[H]c1c([H])c(Cl)c(-c2c([H])c3c([H])nc(N([H])C([H])([H])[H])nc3n(C([H])([H])[H])c2=O)c(Cl)c1[H]


 23 25  0  0  0  0  0  0  0  0999 V2000
  -16.8936   10.5823  -19.5662 C   0  0  0  0  0  0  0  0  0  0  0  0
  -15.9200   10.0825  -20.3490 N   0  0  0  0  0  0  0  0  0  0  0  0
  -15.6147   10.6554  -21.5378 C   0  0  0  0  0  0  0  0  0  0  0  0
  -16.2883   11.7639  -21.9822 C   0  0  0  0  0  0  0  0  0  0  0  0
  -15.9586   12.3269  -23.1941 C   0  0  0  0  0  0  0  0  0  0  0  0
  -16.6824   13.4545  -23.5895 C   0  0  0  0  0  0  0  0  0  0  0  0
  -17.6691   13.9222  -22.7458 C   0  0  0  0  0  0  0  0  0  0  0  0
  -18.3422   14.9419  -23.0760 O   0  0  0  0  0  0  0  0  0  0  0  0
  -17.9685   13.3526  -21.5700 N   0  0  0  0  0  0  0  0  0  0  0  0
  -19.0284   13.8910  -20.7103 C   0  0  0  0  0  0  0  0  0  0  0  0
  -17.2840   12.2663  -21.1704 C   0  0  0  0  0  0  0  0  0  0  0  0
  -17.5562   11.6607  -19.9879 N   0  0  0  0  0  0  0  0  0  0  0  0
  -16.3923   14.1100  -24.8625 C   0  0  0  0  0  0  0  0  0  0  0  0
  -15.5938   15.2353  -24.9377 C   0  0  0  0  0  0  0  0  0  0  0  0
  -14.9335   15.8586  -23.4466 Cl  0  0  0  0  0  0  0  0  0  0  0  0
  -15.3129   15.8627  -26.1336 C   0  0  0  0  0  0  0  0  0  0  0  0
  -15.8453   15.3551  -27.3098 C   0  0  0  0  0  0  0  0  0  0  0  0
  -16.6479   14.2304  -27.2671 C   0  0  0  0  0  0  0  0  0  0  0  0
  -16.9100   13.6238  -26.0441 C   0  0  0  0  0  0  0  0  0  0  0  0
  -17.9334   12.2037  -26.0597 Cl  0  0  0  0  0  0  0  0  0  0  0  0
  -18.5273    9.9261  -17.7995 C   0  0  0  0  0  0  0  0  0  0  0  0
  -17.1832    9.9538  -18.3287 N   0  0  0  0  0  0  0  0  0  0  0  0
  -16.4314    9.4992  -17.7763 H   0  0  0  0  0  0  0  0  0  0  0  0
 21 22  1  0  0  0
 22  1  1  0  0  0
  1  2  2  0  0  0
  2  3  1  0  0  0
  3  4  2  0  0  0
  4  5  1  0  0  0
  5  6  2  0  0  0
  6 13  1  0  0  0
 13 14  2  0  0  0
 14 15  1  0  0  0
 14 16  1  0  0  0
 16 17  2  0  0  0
 17 18  1  0  0  0
 18 19  2  0  0  0
 19 20  1  0  0  0
  6  7  1  0  0  0
  7  8  2  0  0  0
  7  9  1  0  0  0
  9 10  1  0  0  0
  9 11  1  0  0  0
 11 12  2  0  0  0
 12  1  1  0  0  0
 11  4  1  0  0  0
 19 13  1  0  0  0
 22 23  1  0  0  0
M  END
> <minimizedAffinity>
-9.05385

> <CNNscore>
0.9808933735

> <CNNaffinity>
7.0781455040

> <CNN_VS>
6.9429059029

> <CNNaffinity_variance>
0.0941710025

$$$$
[H]c1c([H])c(Cl)c(-c2c([H])c3c([H])nc(N([H])C([H])([H])[H])nc3n(C([H])([H])[H])c2=O)c(Cl)c1[H]


 23 25  0  0  0  0  0  0  0  0999 V2000
  -16.8921   10.5850  -19.5971 C   0  0  0  0  0  0  0  0  0  0  0  0
  -15.9154   10.0909  -20.3795 N   0  0  0  0  0  0  0  0  0  0  0  0
  -15.6150   10.6636  -21.5696 C   0  0  0  0  0  0  0  0  0  0  0  0
  -16.2970   11.7663  -22.0158 C   0  0  0  0  0  0  0  0  0  0  0  0
  -15.9722   12.3293  -23.2290 C   0  0  0  0  0  0  0  0  0  0  0  0
  -16.7045   13.4508  -23.6262 C   0  0  0  0  0  0  0  0  0  0  0  0
  -17.6942   13.9128  -22.7828 C   0  0  0  0  0  0  0  0  0  0  0  0
  -18.3750   14.9269  -23.1146 O   0  0  0  0  0  0  0  0  0  0  0  0
  -17.9886   13.3434  -21.6057 N   0  0  0  0  0  0  0  0  0  0  0  0
  -19.0520   13.8757  -20.7464 C   0  0  0  0  0  0  0  0  0  0  0  0
  -17.2959   12.2629  -21.2043 C   0  0  0  0  0  0  0  0  0  0  0  0
  -17.5629   11.6577  -20.0205 N   0  0  0  0  0  0  0  0  0  0  0  0
  -16.4201   14.1058  -24.9007 C   0  0  0  0  0  0  0  0  0  0  0  0
  -16.9283   13.6297  -26.0943 C   0  0  0  0  0  0  0  0  0  0  0  0
  -17.9335   12.2037  -26.0329 Cl  0  0  0  0  0  0  0  0  0  0  0  0
  -16.6668   14.2395  -27.3036 C   0  0  0  0  0  0  0  0  0  0  0  0
  -15.8661   15.3720  -27.3355 C   0  0  0  0  0  0  0  0  0  0  0  0
  -15.3428   15.8723  -26.1579 C   0  0  0  0  0  0  0  0  0  0  0  0
  -15.6273   15.2322  -24.9572 C   0  0  0  0  0  0  0  0  0  0  0  0
  -14.9337   15.9167  -23.5031 Cl  0  0  0  0  0  0  0  0  0  0  0  0
  -18.5098    9.9671  -17.8020 C   0  0  0  0  0  0  0  0  0  0  0  0
  -17.1763    9.9569  -18.3581 N   0  0  0  0  0  0  0  0  0  0  0  0
  -16.4282    9.4751  -17.8241 H   0  0  0  0  0  0  0  0  0  0  0  0
 21 22  1  0  0  0
 22  1  1  0  0  0
  1  2  2  0  0  0
  2  3  1  0  0  0
  3  4  2  0  0  0
  4  5  1  0  0  0
  5  6  2  0  0  0
  6 13  1  0  0  0
 13 14  2  0  0  0
 14 15  1  0  0  0
 14 16  1  0  0  0
 16 17  2  0  0  0
 17 18  1  0  0  0
 18 19  2  0  0  0
 19 20  1  0  0  0
  6  7  1  0  0  0
  7  8  2  0  0  0
  7  9  1  0  0  0
  9 10  1  0  0  0
  9 11  1  0  0  0
 11 12  2  0  0  0
 12  1  1  0  0  0
 11  4  1  0  0  0
 19 13  1  0  0  0
 22 23  1  0  0  0
M  END
> <minimizedAffinity>
-9.02567

> <CNNscore>
0.9799770117

> <CNNaffinity>
7.0678224564

> <CNN_VS>
6.9263033867

> <CNNaffinity_variance>
0.0960360914

$$$$
[H]c1c([H])c(Cl)c(-c2c([H])c3c([H])nc(N([H])C([H])([H])[H])nc3n(C([H])([H])[H])c2=O)c(Cl)c1[H]


 23 25  0  0  0  0  0  0  0  0999 V2000
  -17.9176   10.3350  -18.5686 C   0  0  0  0  0  0  0  0  0  0  0  0
  -16.8110   10.0310  -19.2712 N   0  0  0  0  0  0  0  0  0  0  0  0
  -16.4033   10.8060  -20.3044 C   0  0  0  0  0  0  0  0  0  0  0  0
  -17.1055   11.9262  -20.6682 C   0  0  0  0  0  0  0  0  0  0  0  0
  -16.6698   12.6968  -21.7221 C   0  0  0  0  0  0  0  0  0  0  0  0
  -17.4295   13.8246  -22.0422 C   0  0  0  0  0  0  0  0  0  0  0  0
  -18.5543   14.0863  -21.2868 C   0  0  0  0  0  0  0  0  0  0  0  0
  -19.2633   15.1007  -21.5521 O   0  0  0  0  0  0  0  0  0  0  0  0
  -18.9547   13.3170  -20.2648 N   0  0  0  0  0  0  0  0  0  0  0  0
  -20.1599   13.6412  -19.4936 C   0  0  0  0  0  0  0  0  0  0  0  0
  -18.2379   12.2266  -19.9400 C   0  0  0  0  0  0  0  0  0  0  0  0
  -18.6093   11.4226  -18.9131 N   0  0  0  0  0  0  0  0  0  0  0  0
  -17.0329   14.6935  -23.1477 C   0  0  0  0  0  0  0  0  0  0  0  0
  -16.4079   15.9072  -22.9329 C   0  0  0  0  0  0  0  0  0  0  0  0
  -16.1025   16.3772  -21.2795 Cl  0  0  0  0  0  0  0  0  0  0  0  0
  -16.0289   16.7359  -23.9683 C   0  0  0  0  0  0  0  0  0  0  0  0
  -16.2787   16.3479  -25.2766 C   0  0  0  0  0  0  0  0  0  0  0  0
  -16.9025   15.1393  -25.5238 C   0  0  0  0  0  0  0  0  0  0  0  0
  -17.2707   14.3292  -24.4558 C   0  0  0  0  0  0  0  0  0  0  0  0
  -18.0565   12.8123  -24.8375 Cl  0  0  0  0  0  0  0  0  0  0  0  0
  -19.4883    9.7920  -16.7088 C   0  0  0  0  0  0  0  0  0  0  0  0
  -18.3113    9.4984  -17.4937 N   0  0  0  0  0  0  0  0  0  0  0  0
  -17.7590    8.6547  -17.2488 H   0  0  0  0  0  0  0  0  0  0  0  0
 21 22  1  0  0  0
 22  1  1  0  0  0
  1  2  2  0  0  0
  2  3  1  0  0  0
  3  4  2  0  0  0
  4  5  1  0  0  0
  5  6  2  0  0  0
  6 13  1  0  0  0
 13 14  2  0  0  0
 14 15  1  0  0  0
 14 16  1  0  0  0
 16 17  2  0  0  0
 17 18  1  0  0  0
 18 19  2  0  0  0
 19 20  1  0  0  0
  6  7  1  0  0  0
  7  8  2  0  0  0
  7  9  1  0  0  0
  9 10  1  0  0  0
  9 11  1  0  0  0
 11 12  2  0  0  0
 12  1  1  0  0  0
 11  4  1  0  0  0
 19 13  1  0  0  0
 22 23  1  0  0  0
M  END
> <minimizedAffinity>
-7.50695

> <CNNscore>
0.8602513075

> <CNNaffinity>
6.7376441956

> <CNN_VS>
5.7960672379

> <CNNaffinity_variance>
0.3545046449

$$$$
[H]c1c([H])c(Cl)c(-c2c([H])c3c([H])nc(N([H])C([H])([H])[H])nc3n(C([H])([H])[H])c2=O)c(Cl)c1[H]


 23 25  0  0  0  0  0  0  0  0999 V2000
  -18.4183   11.7133  -18.9476 C   0  0  0  0  0  0  0  0  0  0  0  0
  -17.4266   11.0216  -19.5379 N   0  0  0  0  0  0  0  0  0  0  0  0
  -16.8996   11.4239  -20.7189 C   0  0  0  0  0  0  0  0  0  0  0  0
  -17.3599   12.5499  -21.3516 C   0  0  0  0  0  0  0  0  0  0  0  0
  -16.8072   12.9373  -22.5511 C   0  0  0  0  0  0  0  0  0  0  0  0
  -17.3205   14.0933  -23.1442 C   0  0  0  0  0  0  0  0  0  0  0  0
  -18.3371   14.7614  -22.4928 C   0  0  0  0  0  0  0  0  0  0  0  0
  -18.8232   15.8119  -23.0047 O   0  0  0  0  0  0  0  0  0  0  0  0
  -18.8562   14.3602  -21.3240 N   0  0  0  0  0  0  0  0  0  0  0  0
  -19.9376   15.1084  -20.6735 C   0  0  0  0  0  0  0  0  0  0  0  0
  -18.3766   13.2500  -20.7360 C   0  0  0  0  0  0  0  0  0  0  0  0
  -18.8747   12.8108  -19.5536 N   0  0  0  0  0  0  0  0  0  0  0  0
  -16.7868   14.5700  -24.4179 C   0  0  0  0  0  0  0  0  0  0  0  0
  -15.9546   15.6706  -24.4934 C   0  0  0  0  0  0  0  0  0  0  0  0
  -15.5549   16.4851  -23.0019 Cl  0  0  0  0  0  0  0  0  0  0  0  0
  -15.4447   16.1299  -25.6899 C   0  0  0  0  0  0  0  0  0  0  0  0
  -15.7719   15.4716  -26.8664 C   0  0  0  0  0  0  0  0  0  0  0  0
  -16.6023   14.3673  -26.8234 C   0  0  0  0  0  0  0  0  0  0  0  0
  -17.0979   13.9321  -25.5998 C   0  0  0  0  0  0  0  0  0  0  0  0
  -18.1437   12.5285  -25.6151 Cl  0  0  0  0  0  0  0  0  0  0  0  0
  -19.6449   12.1558  -16.8214 C   0  0  0  0  0  0  0  0  0  0  0  0
  -18.9434   11.2593  -17.7112 N   0  0  0  0  0  0  0  0  0  0  0  0
  -18.8335   10.2694  -17.4201 H   0  0  0  0  0  0  0  0  0  0  0  0
 21 22  1  0  0  0
 22  1  1  0  0  0
  1  2  2  0  0  0
  2  3  1  0  0  0
  3  4  2  0  0  0
  4  5  1  0  0  0
  5  6  2  0  0  0
  6 13  1  0  0  0
 13 14  2  0  0  0
 14 15  1  0  0  0
 14 16  1  0  0  0
 16 17  2  0  0  0
 17 18  1  0  0  0
 18 19  2  0  0  0
 19 20  1  0  0  0
  6  7  1  0  0  0
  7  8  2  0  0  0
  7  9  1  0  0  0
  9 10  1  0  0  0
  9 11  1  0  0  0
 11 12  2  0  0  0
 12  1  1  0  0  0
 11  4  1  0  0  0
 19 13  1  0  0  0
 22 23  1  0  0  0
M  END
> <minimizedAffinity>
-8.16930

> <CNNscore>
0.7675223947

> <CNNaffinity>
6.6964583397

> <CNN_VS>
5.1396818161

> <CNNaffinity_variance>
0.3483309448

$$$$
[H]c1c([H])c(Cl)c(-c2c([H])c3c([H])nc(N([H])C([H])([H])[H])nc3n(C([H])([H])[H])c2=O)c(Cl)c1[H]


 23 25  0  0  0  0  0  0  0  0999 V2000
  -18.4988   11.1749  -18.5787 C   0  0  0  0  0  0  0  0  0  0  0  0
  -17.3909   10.6580  -19.1408 N   0  0  0  0  0  0  0  0  0  0  0  0
  -16.8350   11.2226  -20.2393 C   0  0  0  0  0  0  0  0  0  0  0  0
  -17.3834   12.3399  -20.8145 C   0  0  0  0  0  0  0  0  0  0  0  0
  -16.7990   12.8943  -21.9305 C   0  0  0  0  0  0  0  0  0  0  0  0
  -17.4064   14.0316  -22.4682 C   0  0  0  0  0  0  0  0  0  0  0  0
  -18.5403   14.5168  -21.8493 C   0  0  0  0  0  0  0  0  0  0  0  0
  -19.1136   15.5456  -22.3126 O   0  0  0  0  0  0  0  0  0  0  0  0
  -19.0877   13.9553  -20.7622 N   0  0  0  0  0  0  0  0  0  0  0  0
  -20.2955   14.5124  -20.1430 C   0  0  0  0  0  0  0  0  0  0  0  0
  -18.5189   12.8599  -20.2286 C   0  0  0  0  0  0  0  0  0  0  0  0
  -19.0417   12.2621  -19.1294 N   0  0  0  0  0  0  0  0  0  0  0  0
  -16.8464   14.6787  -23.6522 C   0  0  0  0  0  0  0  0  0  0  0  0
  -17.0139   14.1518  -24.9187 C   0  0  0  0  0  0  0  0  0  0  0  0
  -17.9265   12.6705  -25.0634 Cl  0  0  0  0  0  0  0  0  0  0  0  0
  -16.4901   14.7536  -26.0439 C   0  0  0  0  0  0  0  0  0  0  0  0
  -15.7673   15.9304  -25.9121 C   0  0  0  0  0  0  0  0  0  0  0  0
  -15.5826   16.4821  -24.6582 C   0  0  0  0  0  0  0  0  0  0  0  0
  -16.1248   15.8485  -23.5461 C   0  0  0  0  0  0  0  0  0  0  0  0
  -15.8543   16.5991  -21.9880 Cl  0  0  0  0  0  0  0  0  0  0  0  0
  -18.7834    9.1673  -17.1264 C   0  0  0  0  0  0  0  0  0  0  0  0
  -19.0504   10.5546  -17.4293 N   0  0  0  0  0  0  0  0  0  0  0  0
  -19.6596   11.0877  -16.7800 H   0  0  0  0  0  0  0  0  0  0  0  0
 21 22  1  0  0  0
 22  1  1  0  0  0
  1  2  2  0  0  0
  2  3  1  0  0  0
  3  4  2  0  0  0
  4  5  1  0  0  0
  5  6  2  0  0  0
  6 13  1  0  0  0
 13 14  2  0  0  0
 14 15  1  0  0  0
 14 16  1  0  0  0
 16 17  2  0  0  0
 17 18  1  0  0  0
 18 19  2  0  0  0
 19 20  1  0  0  0
  6  7  1  0  0  0
  7  8  2  0  0  0
  7  9  1  0  0  0
  9 10  1  0  0  0
  9 11  1  0  0  0
 11 12  2  0  0  0
 12  1  1  0  0  0
 11  4  1  0  0  0
 19 13  1  0  0  0
 22 23  1  0  0  0
M  END
> <minimizedAffinity>
-7.86334

> <CNNscore>
0.7516875267

> <CNNaffinity>
6.6307463646

> <CNN_VS>
4.9842491150

> <CNNaffinity_variance>
0.2996321619

$$$$
[H]c1c([H])c(Cl)c(-c2c([H])c3c([H])nc(N([H])C([H])([H])[H])nc3n(C([H])([H])[H])c2=O)c(Cl)c1[H]


 23 25  0  0  0  0  0  0  0  0999 V2000
  -15.6541   16.1752  -24.1595 C   0  0  0  0  0  0  0  0  0  0  0  0
  -15.6834   16.8636  -23.0037 N   0  0  0  0  0  0  0  0  0  0  0  0
  -16.2078   16.3207  -21.8790 C   0  0  0  0  0  0  0  0  0  0  0  0
  -16.7260   15.0513  -21.8818 C   0  0  0  0  0  0  0  0  0  0  0  0
  -17.2530   14.5229  -20.7254 C   0  0  0  0  0  0  0  0  0  0  0  0
  -17.7649   13.2249  -20.7947 C   0  0  0  0  0  0  0  0  0  0  0  0
  -17.7078   12.5676  -22.0067 C   0  0  0  0  0  0  0  0  0  0  0  0
  -18.1634   11.3906  -22.1015 O   0  0  0  0  0  0  0  0  0  0  0  0
  -17.1881   13.1081  -23.1177 N   0  0  0  0  0  0  0  0  0  0  0  0
  -17.1521   12.3646  -24.3819 C   0  0  0  0  0  0  0  0  0  0  0  0
  -16.6899   14.3564  -23.0729 C   0  0  0  0  0  0  0  0  0  0  0  0
  -16.1555   14.9389  -24.1747 N   0  0  0  0  0  0  0  0  0  0  0  0
  -18.3416   12.5936  -19.6101 C   0  0  0  0  0  0  0  0  0  0  0  0
  -19.5842   12.9535  -19.1241 C   0  0  0  0  0  0  0  0  0  0  0  0
  -20.4556   14.2014  -19.9792 Cl  0  0  0  0  0  0  0  0  0  0  0  0
  -20.1388   12.3648  -18.0069 C   0  0  0  0  0  0  0  0  0  0  0  0
  -19.4335   11.3746  -17.3385 C   0  0  0  0  0  0  0  0  0  0  0  0
  -18.1878   10.9927  -17.8003 C   0  0  0  0  0  0  0  0  0  0  0  0
  -17.6595   11.6076  -18.9296 C   0  0  0  0  0  0  0  0  0  0  0  0
  -16.0783   11.0778  -19.4617 Cl  0  0  0  0  0  0  0  0  0  0  0  0
  -14.5580   15.9791  -26.3912 C   0  0  0  0  0  0  0  0  0  0  0  0
  -15.0967   16.7786  -25.3151 N   0  0  0  0  0  0  0  0  0  0  0  0
  -15.0647   17.8114  -25.4108 H   0  0  0  0  0  0  0  0  0  0  0  0
 21 22  1  0  0  0
 22  1  1  0  0  0
  1  2  2  0  0  0
  2  3  1  0  0  0
  3  4  2  0  0  0
  4  5  1  0  0  0
  5  6  2  0  0  0
  6 13  1  0  0  0
 13 14  2  0  0  0
 14 15  1  0  0  0
 14 16  1  0  0  0
 16 17  2  0  0  0
 17 18  1  0  0  0
 18 19  2  0  0  0
 19 20  1  0  0  0
  6  7  1  0  0  0
  7  8  2  0  0  0
  7  9  1  0  0  0
  9 10  1  0  0  0
  9 11  1  0  0  0
 11 12  2  0  0  0
 12  1  1  0  0  0
 11  4  1  0  0  0
 19 13  1  0  0  0
 22 23  1  0  0  0
M  END
> <minimizedAffinity>
-7.59666

> <CNNscore>
0.6306837797

> <CNNaffinity>
6.4769225121

> <CNN_VS>
4.0848898888

> <CNNaffinity_variance>
0.1342314631

$$$$
[H]c1c([H])c(Cl)c(-c2c([H])c3c([H])nc(N([H])C([H])([H])[H])nc3n(C([H])([H])[H])c2=O)c(Cl)c1[H]


 23 25  0  0  0  0  0  0  0  0999 V2000
  -18.7847   11.8817  -18.9194 C   0  0  0  0  0  0  0  0  0  0  0  0
  -19.5242   12.9465  -19.2795 N   0  0  0  0  0  0  0  0  0  0  0  0
  -19.2610   13.6278  -20.4202 C   0  0  0  0  0  0  0  0  0  0  0  0
  -18.2316   13.2541  -21.2454 C   0  0  0  0  0  0  0  0  0  0  0  0
  -17.9850   13.9633  -22.3989 C   0  0  0  0  0  0  0  0  0  0  0  0
  -16.9222   13.5316  -23.1961 C   0  0  0  0  0  0  0  0  0  0  0  0
  -16.1990   12.4338  -22.7763 C   0  0  0  0  0  0  0  0  0  0  0  0
  -15.2302   12.0184  -23.4768 O   0  0  0  0  0  0  0  0  0  0  0  0
  -16.4626   11.7621  -21.6467 N   0  0  0  0  0  0  0  0  0  0  0  0
  -15.6613   10.6001  -21.2465 C   0  0  0  0  0  0  0  0  0  0  0  0
  -17.4813   12.1610  -20.8648 C   0  0  0  0  0  0  0  0  0  0  0  0
  -17.7803   11.5085  -19.7142 N   0  0  0  0  0  0  0  0  0  0  0  0
  -16.5966   14.2316  -24.4364 C   0  0  0  0  0  0  0  0  0  0  0  0
  -15.8768   15.4113  -24.4401 C   0  0  0  0  0  0  0  0  0  0  0  0
  -15.3614   16.0483  -22.8986 Cl  0  0  0  0  0  0  0  0  0  0  0  0
  -15.5634   16.0812  -25.6045 C   0  0  0  0  0  0  0  0  0  0  0  0
  -15.9803   15.5619  -26.8215 C   0  0  0  0  0  0  0  0  0  0  0  0
  -16.7022   14.3834  -26.8504 C   0  0  0  0  0  0  0  0  0  0  0  0
  -17.0000   13.7349  -25.6574 C   0  0  0  0  0  0  0  0  0  0  0  0
  -17.9168   12.2476  -25.7639 Cl  0  0  0  0  0  0  0  0  0  0  0  0
  -18.7252    9.8101  -17.5317 C   0  0  0  0  0  0  0  0  0  0  0  0
  -19.0922   11.1951  -17.7176 N   0  0  0  0  0  0  0  0  0  0  0  0
  -19.5894   11.6766  -16.9443 H   0  0  0  0  0  0  0  0  0  0  0  0
 21 22  1  0  0  0
 22  1  1  0  0  0
  1  2  2  0  0  0
  2  3  1  0  0  0
  3  4  2  0  0  0
  4  5  1  0  0  0
  5  6  2  0  0  0
  6 13  1  0  0  0
 13 14  2  0  0  0
 14 15  1  0  0  0
 14 16  1  0  0  0
 16 17  2  0  0  0
 17 18  1  0  0  0
 18 19  2  0  0  0
 19 20  1  0  0  0
  6  7  1  0  0  0
  7  8  2  0  0  0
  7  9  1  0  0  0
  9 10  1  0  0  0
  9 11  1  0  0  0
 11 12  2  0  0  0
 12  1  1  0  0  0
 11  4  1  0  0  0
 19 13  1  0  0  0
 22 23  1  0  0  0
M  END
> <minimizedAffinity>
-8.67865

> <CNNscore>
0.5989751816

> <CNNaffinity>
6.5261526108

> <CNN_VS>
3.9090034962

> <CNNaffinity_variance>
0.2650865614

$$$$
[H]c1c([H])c(Cl)c(-c2c([H])c3c([H])nc(N([H])C([H])([H])[H])nc3n(C([H])([H])[H])c2=O)c(Cl)c1[H]


 23 25  0  0  0  0  0  0  0  0999 V2000
  -18.7824   11.9169  -18.9317 C   0  0  0  0  0  0  0  0  0  0  0  0
  -19.5244   12.9785  -19.2965 N   0  0  0  0  0  0  0  0  0  0  0  0
  -19.2660   13.6520  -20.4429 C   0  0  0  0  0  0  0  0  0  0  0  0
  -18.2394   13.2736  -21.2692 C   0  0  0  0  0  0  0  0  0  0  0  0
  -17.9978   13.9750  -22.4286 C   0  0  0  0  0  0  0  0  0  0  0  0
  -16.9375   13.5387  -23.2267 C   0  0  0  0  0  0  0  0  0  0  0  0
  -16.2117   12.4446  -22.8019 C   0  0  0  0  0  0  0  0  0  0  0  0
  -15.2451   12.0253  -23.5032 O   0  0  0  0  0  0  0  0  0  0  0  0
  -16.4703   11.7805  -21.6667 N   0  0  0  0  0  0  0  0  0  0  0  0
  -15.6664   10.6221  -21.2615 C   0  0  0  0  0  0  0  0  0  0  0  0
  -17.4865   12.1839  -20.8838 C   0  0  0  0  0  0  0  0  0  0  0  0
  -17.7806   11.5391  -19.7276 N   0  0  0  0  0  0  0  0  0  0  0  0
  -16.6173   14.2304  -24.4730 C   0  0  0  0  0  0  0  0  0  0  0  0
  -17.0135   13.7386  -25.7022 C   0  0  0  0  0  0  0  0  0  0  0  0
  -17.9198   12.2467  -25.7215 Cl  0  0  0  0  0  0  0  0  0  0  0  0
  -16.7171   14.3827  -26.8854 C   0  0  0  0  0  0  0  0  0  0  0  0
  -15.9960   15.5674  -26.8531 C   0  0  0  0  0  0  0  0  0  0  0  0
  -15.5855   16.0847  -25.6387 C   0  0  0  0  0  0  0  0  0  0  0  0
  -15.9020   15.4089  -24.4659 C   0  0  0  0  0  0  0  0  0  0  0  0
  -15.3525   16.1174  -22.9625 Cl  0  0  0  0  0  0  0  0  0  0  0  0
  -18.7164    9.8549  -17.5301 C   0  0  0  0  0  0  0  0  0  0  0  0
  -19.0848   11.2384  -17.7239 N   0  0  0  0  0  0  0  0  0  0  0  0
  -19.5790   11.7250  -16.9520 H   0  0  0  0  0  0  0  0  0  0  0  0
 21 22  1  0  0  0
 22  1  1  0  0  0
  1  2  2  0  0  0
  2  3  1  0  0  0
  3  4  2  0  0  0
  4  5  1  0  0  0
  5  6  2  0  0  0
  6 13  1  0  0  0
 13 14  2  0  0  0
 14 15  1  0  0  0
 14 16  1  0  0  0
 16 17  2  0  0  0
 17 18  1  0  0  0
 18 19  2  0  0  0
 19 20  1  0  0  0
  6  7  1  0  0  0
  7  8  2  0  0  0
  7  9  1  0  0  0
  9 10  1  0  0  0
  9 11  1  0  0  0
 11 12  2  0  0  0
 12  1  1  0  0  0
 11  4  1  0  0  0
 19 13  1  0  0  0
 22 23  1  0  0  0
M  END
> <minimizedAffinity>
-8.65485

> <CNNscore>
0.5891879797

> <CNNaffinity>
6.5130033493

> <CNN_VS>
3.8373832703

> <CNNaffinity_variance>
0.2678974271

$$$$
[H]c1c([H])c(Cl)c(-c2c([H])c3c([H])nc(N([H])C([H])([H])[H])nc3n(C([H])([H])[H])c2=O)c(Cl)c1[H]


 23 25  0  0  0  0  0  0  0  0999 V2000
  -15.3965   15.5830  -25.9134 C   0  0  0  0  0  0  0  0  0  0  0  0
  -14.9694   16.2021  -24.7977 N   0  0  0  0  0  0  0  0  0  0  0  0
  -15.3089   15.7434  -23.5693 C   0  0  0  0  0  0  0  0  0  0  0  0
  -16.0993   14.6326  -23.4229 C   0  0  0  0  0  0  0  0  0  0  0  0
  -16.4298   14.1869  -22.1634 C   0  0  0  0  0  0  0  0  0  0  0  0
  -17.2378   13.0501  -22.0825 C   0  0  0  0  0  0  0  0  0  0  0  0
  -17.6453   12.4574  -23.2602 C   0  0  0  0  0  0  0  0  0  0  0  0
  -18.3779   11.4261  -23.2200 O   0  0  0  0  0  0  0  0  0  0  0  0
  -17.3073   12.9143  -24.4741 N   0  0  0  0  0  0  0  0  0  0  0  0
  -17.7685   12.2454  -25.6957 C   0  0  0  0  0  0  0  0  0  0  0  0
  -16.5303   14.0072  -24.5744 C   0  0  0  0  0  0  0  0  0  0  0  0
  -16.1661   14.5010  -25.7838 N   0  0  0  0  0  0  0  0  0  0  0  0
  -17.6324   12.5149  -20.7817 C   0  0  0  0  0  0  0  0  0  0  0  0
  -16.9772   11.4434  -20.2052 C   0  0  0  0  0  0  0  0  0  0  0  0
  -15.6466   10.7394  -21.0893 Cl  0  0  0  0  0  0  0  0  0  0  0  0
  -17.3406   10.9294  -18.9779 C   0  0  0  0  0  0  0  0  0  0  0  0
  -18.4003   11.5001  -18.2880 C   0  0  0  0  0  0  0  0  0  0  0  0
  -19.0756   12.5732  -18.8387 C   0  0  0  0  0  0  0  0  0  0  0  0
  -18.6820   13.0654  -20.0777 C   0  0  0  0  0  0  0  0  0  0  0  0
  -19.5786   14.4254  -20.7185 Cl  0  0  0  0  0  0  0  0  0  0  0  0
  -15.6793   15.6594  -28.3902 C   0  0  0  0  0  0  0  0  0  0  0  0
  -15.0192   16.0943  -27.1809 N   0  0  0  0  0  0  0  0  0  0  0  0
  -14.2578   16.7944  -27.2649 H   0  0  0  0  0  0  0  0  0  0  0  0
 21 22  1  0  0  0
 22  1  1  0  0  0
  1  2  2  0  0  0
  2  3  1  0  0  0
  3  4  2  0  0  0
  4  5  1  0  0  0
  5  6  2  0  0  0
  6 13  1  0  0  0
 13 14  2  0  0  0
 14 15  1  0  0  0
 14 16  1  0  0  0
 16 17  2  0  0  0
 17 18  1  0  0  0
 18 19  2  0  0  0
 19 20  1  0  0  0
  6  7  1  0  0  0
  7  8  2  0  0  0
  7  9  1  0  0  0
  9 10  1  0  0  0
  9 11  1  0  0  0
 11 12  2  0  0  0
 12  1  1  0  0  0
 11  4  1  0  0  0
 19 13  1  0  0  0
 22 23  1  0  0  0
M  END
> <minimizedAffinity>
-7.11610

> <CNNscore>
0.5627982020

> <CNNaffinity>
6.6275277138

> <CNN_VS>
3.7299606800

> <CNNaffinity_variance>
0.1149632484

$$$$
[H]OC(=O)C(F)(F)F.[H]OC(=O)C(F)(F)F


  8  7  0  0  0  0  0  0  0  0999 V2000
  -16.9071   11.4462  -21.4507 O   0  0  0  0  0  0  0  0  0  0  0  0
  -16.3668   10.6578  -20.4445 C   0  0  0  0  0  0  0  0  0  0  0  0
  -15.6488    9.6974  -20.7954 O   0  0  0  0  0  0  0  0  0  0  0  0
  -16.3427   12.2617  -21.7210 H   0  0  0  0  0  0  0  0  0  0  0  0
  -16.6699   10.9976  -19.0289 C   0  0  0  0  0  0  0  0  0  0  0  0
  -17.3495   12.1878  -18.9811 F   0  0  0  0  0  0  0  0  0  0  0  0
  -15.4964   11.1107  -18.3047 F   0  0  0  0  0  0  0  0  0  0  0  0
  -17.5015   10.0228  -18.5250 F   0  0  0  0  0  0  0  0  0  0  0  0
  1  2  1  0  0  0
  2  3  2  0  0  0
  2  5  1  0  0  0
  5  6  1  0  0  0
  5  7  1  0  0  0
  5  8  1  0  0  0
  1  4  1  0  0  0
M  END
> <minimizedAffinity>
-3.69712

> <CNNscore>
0.7763141394

> <CNNaffinity>
3.0337765217

> <CNN_VS>
2.3551635742

> <CNNaffinity_variance>
0.1118753105

$$$$
[H]OC(=O)C(F)(F)F.[H]OC(=O)C(F)(F)F


  8  7  0  0  0  0  0  0  0  0999 V2000
  -22.4659   18.3866  -23.0969 O   0  0  0  0  0  0  0  0  0  0  0  0
  -23.5075   17.9241  -23.8888 C   0  0  0  0  0  0  0  0  0  0  0  0
  -24.3046   17.1151  -23.3682 O   0  0  0  0  0  0  0  0  0  0  0  0
  -22.6572   19.2559  -22.5827 H   0  0  0  0  0  0  0  0  0  0  0  0
  -23.6118   18.4116  -25.2898 C   0  0  0  0  0  0  0  0  0  0  0  0
  -24.6827   19.2616  -25.3983 F   0  0  0  0  0  0  0  0  0  0  0  0
  -23.7844   17.3447  -26.1536 F   0  0  0  0  0  0  0  0  0  0  0  0
  -22.4757   19.1350  -25.5755 F   0  0  0  0  0  0  0  0  0  0  0  0
  1  2  1  0  0  0
  2  3  2  0  0  0
  2  5  1  0  0  0
  5  6  1  0  0  0
  5  7  1  0  0  0
  5  8  1  0  0  0
  1  4  1  0  0  0
M  END
> <minimizedAffinity>
-2.90357

> <CNNscore>
0.7338581085

> <CNNaffinity>
2.7723073959

> <CNN_VS>
2.0344803333

> <CNNaffinity_variance>
0.0982727408

$$$$
[H]OC(=O)C(F)(F)F.[H]OC(=O)C(F)(F)F


  8  7  0  0  0  0  0  0  0  0999 V2000
  -16.5377   17.4479  -25.3549 O   0  0  0  0  0  0  0  0  0  0  0  0
  -15.6527   16.6743  -24.6170 C   0  0  0  0  0  0  0  0  0  0  0  0
  -15.5895   16.8942  -23.3888 O   0  0  0  0  0  0  0  0  0  0  0  0
  -17.4800   17.0524  -25.4661 H   0  0  0  0  0  0  0  0  0  0  0  0
  -14.8437   15.6445  -25.3216 C   0  0  0  0  0  0  0  0  0  0  0  0
  -13.8918   15.1495  -24.4674 F   0  0  0  0  0  0  0  0  0  0  0  0
  -14.2234   16.2002  -26.4264 F   0  0  0  0  0  0  0  0  0  0  0  0
  -15.6795   14.6044  -25.6612 F   0  0  0  0  0  0  0  0  0  0  0  0
  1  2  1  0  0  0
  2  3  2  0  0  0
  2  5  1  0  0  0
  5  6  1  0  0  0
  5  7  1  0  0  0
  5  8  1  0  0  0
  1  4  1  0  0  0
M  END
> <minimizedAffinity>
-3.63314

> <CNNscore>
0.6987118125

> <CNNaffinity>
3.0699434280

> <CNN_VS>
2.1450057030

> <CNNaffinity_variance>
0.1532573253

$$$$
[H]OC(=O)C(F)(F)F.[H]OC(=O)C(F)(F)F


  8  7  0  0  0  0  0  0  0  0999 V2000
  -15.0024   16.5879  -24.2317 O   0  0  0  0  0  0  0  0  0  0  0  0
  -15.9718   16.4998  -25.2208 C   0  0  0  0  0  0  0  0  0  0  0  0
  -16.9430   17.2815  -25.1394 O   0  0  0  0  0  0  0  0  0  0  0  0
  -14.2191   17.2205  -24.4390 H   0  0  0  0  0  0  0  0  0  0  0  0
  -15.7999   15.4948  -26.3033 C   0  0  0  0  0  0  0  0  0  0  0  0
  -16.2214   16.0300  -27.4936 F   0  0  0  0  0  0  0  0  0  0  0  0
  -16.5416   14.3611  -26.0226 F   0  0  0  0  0  0  0  0  0  0  0  0
  -14.4557   15.2219  -26.4225 F   0  0  0  0  0  0  0  0  0  0  0  0
  1  2  1  0  0  0
  2  3  2  0  0  0
  2  5  1  0  0  0
  5  6  1  0  0  0
  5  7  1  0  0  0
  5  8  1  0  0  0
  1  4  1  0  0  0
M  END
> <minimizedAffinity>
-3.36835

> <CNNscore>
0.6780460477

> <CNNaffinity>
3.1283495426

> <CNN_VS>
2.1211650372

> <CNNaffinity_variance>
0.1186269969

$$$$
[H]OC(=O)C(F)(F)F.[H]OC(=O)C(F)(F)F


  8  7  0  0  0  0  0  0  0  0999 V2000
  -24.0343   18.3000  -27.3370 O   0  0  0  0  0  0  0  0  0  0  0  0
  -23.9993   18.5103  -25.9657 C   0  0  0  0  0  0  0  0  0  0  0  0
  -24.6042   19.5112  -25.5262 O   0  0  0  0  0  0  0  0  0  0  0  0
  -24.8001   17.7007  -27.6704 H   0  0  0  0  0  0  0  0  0  0  0  0
  -23.2547   17.5461  -25.1130 C   0  0  0  0  0  0  0  0  0  0  0  0
  -22.1308   18.1527  -24.6133 F   0  0  0  0  0  0  0  0  0  0  0  0
  -22.8857   16.4391  -25.8565 F   0  0  0  0  0  0  0  0  0  0  0  0
  -24.0574   17.2127  -24.0452 F   0  0  0  0  0  0  0  0  0  0  0  0
  1  2  1  0  0  0
  2  3  2  0  0  0
  2  5  1  0  0  0
  5  6  1  0  0  0
  5  7  1  0  0  0
  5  8  1  0  0  0
  1  4  1  0  0  0
M  END
> <minimizedAffinity>
-3.53153

> <CNNscore>
0.6565552950

> <CNNaffinity>
2.7349491119

> <CNN_VS>
1.7956453562

> <CNNaffinity_variance>
0.0650149286

$$$$
[H]OC(=O)C(F)(F)F.[H]OC(=O)C(F)(F)F


  8  7  0  0  0  0  0  0  0  0999 V2000
  -17.4456   19.0351  -19.4831 O   0  0  0  0  0  0  0  0  0  0  0  0
  -17.5091   18.1082  -20.5139 C   0  0  0  0  0  0  0  0  0  0  0  0
  -18.5352   18.1166  -21.2267 O   0  0  0  0  0  0  0  0  0  0  0  0
  -16.9963   19.9282  -19.7221 H   0  0  0  0  0  0  0  0  0  0  0  0
  -16.3688   17.1732  -20.7065 C   0  0  0  0  0  0  0  0  0  0  0  0
  -15.3888   17.4542  -19.7891 F   0  0  0  0  0  0  0  0  0  0  0  0
  -15.8533   17.3077  -21.9834 F   0  0  0  0  0  0  0  0  0  0  0  0
  -16.8180   15.8957  -20.4576 F   0  0  0  0  0  0  0  0  0  0  0  0
  1  2  1  0  0  0
  2  3  2  0  0  0
  2  5  1  0  0  0
  5  6  1  0  0  0
  5  7  1  0  0  0
  5  8  1  0  0  0
  1  4  1  0  0  0
M  END
> <minimizedAffinity>
-2.86936

> <CNNscore>
0.6516460180

> <CNNaffinity>
2.9450328350

> <CNN_VS>
1.9191188812

> <CNNaffinity_variance>
0.1764763892

$$$$
[H]OC(=O)C(F)(F)F.[H]OC(=O)C(F)(F)F


  8  7  0  0  0  0  0  0  0  0999 V2000
  -16.7461    9.8321  -19.3909 O   0  0  0  0  0  0  0  0  0  0  0  0
  -16.2784   10.4139  -20.5608 C   0  0  0  0  0  0  0  0  0  0  0  0
  -15.2813    9.8887  -21.1004 O   0  0  0  0  0  0  0  0  0  0  0  0
  -17.4742    9.1174  -19.5160 H   0  0  0  0  0  0  0  0  0  0  0  0
  -16.9811   11.6104  -21.0953 C   0  0  0  0  0  0  0  0  0  0  0  0
  -16.2524   12.1442  -22.1272 F   0  0  0  0  0  0  0  0  0  0  0  0
  -17.1291   12.5599  -20.0998 F   0  0  0  0  0  0  0  0  0  0  0  0
  -18.1911   11.2006  -21.6086 F   0  0  0  0  0  0  0  0  0  0  0  0
  1  2  1  0  0  0
  2  3  2  0  0  0
  2  5  1  0  0  0
  5  6  1  0  0  0
  5  7  1  0  0  0
  5  8  1  0  0  0
  1  4  1  0  0  0
M  END
> <minimizedAffinity>
-3.69269

> <CNNscore>
0.6515065432

> <CNNaffinity>
2.9760982990

> <CNN_VS>
1.9389475584

> <CNNaffinity_variance>
0.0545772724

$$$$
[H]OC(=O)C(F)(F)F.[H]OC(=O)C(F)(F)F


  8  7  0  0  0  0  0  0  0  0999 V2000
  -17.6282   11.6505  -21.5919 O   0  0  0  0  0  0  0  0  0  0  0  0
  -17.1912   11.7327  -20.2774 C   0  0  0  0  0  0  0  0  0  0  0  0
  -17.5693   12.7195  -19.6108 O   0  0  0  0  0  0  0  0  0  0  0  0
  -18.5002   11.1248  -21.7332 H   0  0  0  0  0  0  0  0  0  0  0  0
  -16.3114   10.6573  -19.7474 C   0  0  0  0  0  0  0  0  0  0  0  0
  -17.0635    9.5410  -19.4845 F   0  0  0  0  0  0  0  0  0  0  0  0
  -15.6937   11.0781  -18.5831 F   0  0  0  0  0  0  0  0  0  0  0  0
  -15.4040   10.3263  -20.7285 F   0  0  0  0  0  0  0  0  0  0  0  0
  1  2  1  0  0  0
  2  3  2  0  0  0
  2  5  1  0  0  0
  5  6  1  0  0  0
  5  7  1  0  0  0
  5  8  1  0  0  0
  1  4  1  0  0  0
M  END
> <minimizedAffinity>
-3.46244

> <CNNscore>
0.6128057241

> <CNNaffinity>
2.7857408524

> <CNN_VS>
1.7071179152

> <CNNaffinity_variance>
0.1566657424

$$$$
[H]OC(=O)C(F)(F)F.[H]OC(=O)C(F)(F)F


  8  7  0  0  0  0  0  0  0  0999 V2000
  -18.0425   15.5734  -19.6323 O   0  0  0  0  0  0  0  0  0  0  0  0
  -17.4984   15.1231  -20.8269 C   0  0  0  0  0  0  0  0  0  0  0  0
  -16.4170   15.6330  -21.1896 O   0  0  0  0  0  0  0  0  0  0  0  0
  -17.7721   15.0388  -18.7970 H   0  0  0  0  0  0  0  0  0  0  0  0
  -18.2241   14.0758  -21.5936 C   0  0  0  0  0  0  0  0  0  0  0  0
  -17.4786   12.9247  -21.6111 F   0  0  0  0  0  0  0  0  0  0  0  0
  -18.4411   14.5008  -22.8922 F   0  0  0  0  0  0  0  0  0  0  0  0
  -19.3996   13.8003  -20.9320 F   0  0  0  0  0  0  0  0  0  0  0  0
  1  2  1  0  0  0
  2  3  2  0  0  0
  2  5  1  0  0  0
  5  6  1  0  0  0
  5  7  1  0  0  0
  5  8  1  0  0  0
  1  4  1  0  0  0
M  END
> <minimizedAffinity>
-2.56655

> <CNNscore>
0.5995203257

> <CNNaffinity>
2.8933708668

> <CNN_VS>
1.7346346378

> <CNNaffinity_variance>
0.2413122207

$$$$
[H]OC(=O)C([H])([H])Oc1c([H])c([H])c([H])n2c(C([H])([H])c3c([H])c([H])c([H])c([H])c3[H])c(C([H])([H])C([H])([H])[H])c(C(=O)C(=O)N([H])[H])c12


 31 33  0  0  0  0  0  0  0  0999 V2000
  -16.5972   13.6428  -22.2215 C   0  0  0  0  0  0  0  0  0  0  0  0
  -17.2178   12.9338  -21.1804 C   0  0  0  0  0  0  0  0  0  0  0  0
  -17.6575   13.8455  -20.2682 C   0  0  0  0  0  0  0  0  0  0  0  0
  -18.3295   13.6666  -19.0644 C   0  0  0  0  0  0  0  0  0  0  0  0
  -18.6541   14.7845  -18.3323 C   0  0  0  0  0  0  0  0  0  0  0  0
  -18.3209   16.0362  -18.7833 C   0  0  0  0  0  0  0  0  0  0  0  0
  -17.6554   16.1355  -19.9851 C   0  0  0  0  0  0  0  0  0  0  0  0
  -17.3288   15.0481  -20.7175 N   0  0  0  0  0  0  0  0  0  0  0  0
  -16.6752   14.9741  -21.9152 C   0  0  0  0  0  0  0  0  0  0  0  0
  -16.9542   12.6754  -24.5002 C   0  0  0  0  0  0  0  0  0  0  0  0
  -15.9630   13.0081  -23.4086 C   0  0  0  0  0  0  0  0  0  0  0  0
  -17.3382   11.4730  -21.1390 C   0  0  0  0  0  0  0  0  0  0  0  0
  -18.2998   10.8870  -21.6667 O   0  0  0  0  0  0  0  0  0  0  0  0
  -16.3112   10.6666  -20.4648 C   0  0  0  0  0  0  0  0  0  0  0  0
  -16.1572   10.6778  -19.0539 N   0  0  0  0  0  0  0  0  0  0  0  0
  -15.5530    9.9504  -21.1619 O   0  0  0  0  0  0  0  0  0  0  0  0
  -15.4877   11.2574  -18.5261 H   0  0  0  0  0  0  0  0  0  0  0  0
  -16.7855   10.0359  -18.5131 H   0  0  0  0  0  0  0  0  0  0  0  0
  -18.6658   12.3889  -18.6112 O   0  0  0  0  0  0  0  0  0  0  0  0
  -19.4777   12.2121  -17.4738 C   0  0  0  0  0  0  0  0  0  0  0  0
  -19.5552   10.7687  -17.1376 C   0  0  0  0  0  0  0  0  0  0  0  0
  -18.6564    9.8748  -17.7022 O   0  0  0  0  0  0  0  0  0  0  0  0
  -20.4370   10.3587  -16.3408 O   0  0  0  0  0  0  0  0  0  0  0  0
  -18.4399    8.9750  -17.2603 H   0  0  0  0  0  0  0  0  0  0  0  0
  -16.1821   16.1298  -22.6540 C   0  0  0  0  0  0  0  0  0  0  0  0
  -15.8188   15.9059  -24.0662 C   0  0  0  0  0  0  0  0  0  0  0  0
  -16.7551   16.0924  -25.0837 C   0  0  0  0  0  0  0  0  0  0  0  0
  -16.4318   15.9074  -26.4143 C   0  0  0  0  0  0  0  0  0  0  0  0
  -15.1588   15.5273  -26.7977 C   0  0  0  0  0  0  0  0  0  0  0  0
  -14.2289   15.3411  -25.7996 C   0  0  0  0  0  0  0  0  0  0  0  0
  -14.5593   15.5275  -24.4761 C   0  0  0  0  0  0  0  0  0  0  0  0
 10 11  1  0  0  0
 11  1  1  0  0  0
  1  2  1  0  0  0
  2 12  1  0  0  0
 12 13  2  0  0  0
 12 14  1  0  0  0
 14 15  1  0  0  0
 14 16  2  0  0  0
  2  3  2  0  0  0
  3  4  1  0  0  0
  4 19  1  0  0  0
 19 20  1  0  0  0
 20 21  1  0  0  0
 21 22  1  0  0  0
 21 23  2  0  0  0
  4  5  2  0  0  0
  5  6  1  0  0  0
  6  7  2  0  0  0
  7  8  1  0  0  0
  8  9  1  0  0  0
  9 25  1  0  0  0
 25 26  1  0  0  0
 26 27  2  0  0  0
 27 28  1  0  0  0
 28 29  2  0  0  0
 29 30  1  0  0  0
 30 31  2  0  0  0
  9  1  2  0  0  0
 31 26  1  0  0  0
  8  3  1  0  0  0
 15 17  1  0  0  0
 15 18  1  0  0  0
 22 24  1  0  0  0
M  END
> <minimizedAffinity>
-7.86299

> <CNNscore>
0.6450446844

> <CNNaffinity>
6.5987558365

> <CNN_VS>
4.2564921379

> <CNNaffinity_variance>
0.1569998860

$$$$
[H]OC(=O)C([H])([H])Oc1c([H])c([H])c([H])n2c(C([H])([H])c3c([H])c([H])c([H])c([H])c3[H])c(C([H])([H])C([H])([H])[H])c(C(=O)C(=O)N([H])[H])c12


 31 33  0  0  0  0  0  0  0  0999 V2000
  -17.9707   14.3373  -22.2864 C   0  0  0  0  0  0  0  0  0  0  0  0
  -18.0823   14.1561  -20.8985 C   0  0  0  0  0  0  0  0  0  0  0  0
  -17.5429   12.9413  -20.5987 C   0  0  0  0  0  0  0  0  0  0  0  0
  -17.4072   12.2898  -19.3781 C   0  0  0  0  0  0  0  0  0  0  0  0
  -16.8155   11.0485  -19.3694 C   0  0  0  0  0  0  0  0  0  0  0  0
  -16.3747   10.4764  -20.5354 C   0  0  0  0  0  0  0  0  0  0  0  0
  -16.5431   11.1814  -21.7066 C   0  0  0  0  0  0  0  0  0  0  0  0
  -17.1220   12.4018  -21.7336 N   0  0  0  0  0  0  0  0  0  0  0  0
  -17.3635   13.2232  -22.7986 C   0  0  0  0  0  0  0  0  0  0  0  0
  -17.4131   16.6113  -23.1661 C   0  0  0  0  0  0  0  0  0  0  0  0
  -18.4639   15.5348  -23.0194 C   0  0  0  0  0  0  0  0  0  0  0  0
  -18.6835   15.1355  -19.9877 C   0  0  0  0  0  0  0  0  0  0  0  0
  -19.9056   15.1414  -19.7576 O   0  0  0  0  0  0  0  0  0  0  0  0
  -17.8408   16.1394  -19.3229 C   0  0  0  0  0  0  0  0  0  0  0  0
  -18.1835   16.6860  -18.0587 N   0  0  0  0  0  0  0  0  0  0  0  0
  -16.7906   16.5192  -19.8945 O   0  0  0  0  0  0  0  0  0  0  0  0
  -18.6819   17.5746  -17.9022 H   0  0  0  0  0  0  0  0  0  0  0  0
  -17.8989   16.1269  -17.2186 H   0  0  0  0  0  0  0  0  0  0  0  0
  -17.8582   12.8785  -18.1945 O   0  0  0  0  0  0  0  0  0  0  0  0
  -19.0380   12.4342  -17.5660 C   0  0  0  0  0  0  0  0  0  0  0  0
  -19.5493   13.4940  -16.6618 C   0  0  0  0  0  0  0  0  0  0  0  0
  -18.6954   14.4870  -16.2028 O   0  0  0  0  0  0  0  0  0  0  0  0
  -20.7571   13.4894  -16.3129 O   0  0  0  0  0  0  0  0  0  0  0  0
  -19.0463   15.3970  -15.8859 H   0  0  0  0  0  0  0  0  0  0  0  0
  -17.0201   12.9013  -24.1780 C   0  0  0  0  0  0  0  0  0  0  0  0
  -16.0919   13.8226  -24.8607 C   0  0  0  0  0  0  0  0  0  0  0  0
  -16.4677   14.4766  -26.0344 C   0  0  0  0  0  0  0  0  0  0  0  0
  -15.6220   15.3583  -26.6800 C   0  0  0  0  0  0  0  0  0  0  0  0
  -14.3592   15.6326  -26.1881 C   0  0  0  0  0  0  0  0  0  0  0  0
  -13.9806   14.9911  -25.0302 C   0  0  0  0  0  0  0  0  0  0  0  0
  -14.8294   14.1139  -24.3931 C   0  0  0  0  0  0  0  0  0  0  0  0
 10 11  1  0  0  0
 11  1  1  0  0  0
  1  2  1  0  0  0
  2 12  1  0  0  0
 12 13  2  0  0  0
 12 14  1  0  0  0
 14 15  1  0  0  0
 14 16  2  0  0  0
  2  3  2  0  0  0
  3  4  1  0  0  0
  4 19  1  0  0  0
 19 20  1  0  0  0
 20 21  1  0  0  0
 21 22  1  0  0  0
 21 23  2  0  0  0
  4  5  2  0  0  0
  5  6  1  0  0  0
  6  7  2  0  0  0
  7  8  1  0  0  0
  8  9  1  0  0  0
  9 25  1  0  0  0
 25 26  1  0  0  0
 26 27  2  0  0  0
 27 28  1  0  0  0
 28 29  2  0  0  0
 29 30  1  0  0  0
 30 31  2  0  0  0
  9  1  2  0  0  0
 31 26  1  0  0  0
  8  3  1  0  0  0
 15 17  1  0  0  0
 15 18  1  0  0  0
 22 24  1  0  0  0
M  END
> <minimizedAffinity>
-8.44546

> <CNNscore>
0.4804594815

> <CNNaffinity>
6.3114166260

> <CNN_VS>
3.0323798656

> <CNNaffinity_variance>
0.2573731840

$$$$
[H]OC(=O)C([H])([H])Oc1c([H])c([H])c([H])n2c(C([H])([H])c3c([H])c([H])c([H])c([H])c3[H])c(C([H])([H])C([H])([H])[H])c(C(=O)C(=O)N([H])[H])c12


 31 33  0  0  0  0  0  0  0  0999 V2000
  -17.2618   13.9678  -21.0122 C   0  0  0  0  0  0  0  0  0  0  0  0
  -17.6100   12.8309  -20.2654 C   0  0  0  0  0  0  0  0  0  0  0  0
  -18.1652   13.2611  -19.0978 C   0  0  0  0  0  0  0  0  0  0  0  0
  -18.6705   12.5436  -18.0197 C   0  0  0  0  0  0  0  0  0  0  0  0
  -19.1770   13.2487  -16.9533 C   0  0  0  0  0  0  0  0  0  0  0  0
  -19.1800   14.6203  -16.9607 C   0  0  0  0  0  0  0  0  0  0  0  0
  -18.6627   15.2630  -18.0637 C   0  0  0  0  0  0  0  0  0  0  0  0
  -18.1611   14.5862  -19.1200 N   0  0  0  0  0  0  0  0  0  0  0  0
  -17.6153   15.0663  -20.2770 C   0  0  0  0  0  0  0  0  0  0  0  0
  -17.5761   14.1265  -23.4885 C   0  0  0  0  0  0  0  0  0  0  0  0
  -16.6054   13.9272  -22.3472 C   0  0  0  0  0  0  0  0  0  0  0  0
  -17.3888   11.4529  -20.7153 C   0  0  0  0  0  0  0  0  0  0  0  0
  -18.1811   10.8894  -21.4907 O   0  0  0  0  0  0  0  0  0  0  0  0
  -16.2117   10.7051  -20.2516 C   0  0  0  0  0  0  0  0  0  0  0  0
  -15.9390   10.5189  -18.8712 N   0  0  0  0  0  0  0  0  0  0  0  0
  -15.4304   10.2204  -21.1052 O   0  0  0  0  0  0  0  0  0  0  0  0
  -15.3068   11.0982  -18.2991 H   0  0  0  0  0  0  0  0  0  0  0  0
  -16.4298    9.7184  -18.4048 H   0  0  0  0  0  0  0  0  0  0  0  0
  -18.6644   11.1468  -18.0190 O   0  0  0  0  0  0  0  0  0  0  0  0
  -19.5552   10.4170  -17.2077 C   0  0  0  0  0  0  0  0  0  0  0  0
  -18.9579    9.1005  -16.8725 C   0  0  0  0  0  0  0  0  0  0  0  0
  -17.5868    8.9132  -16.9761 O   0  0  0  0  0  0  0  0  0  0  0  0
  -19.6971    8.1563  -16.4950 O   0  0  0  0  0  0  0  0  0  0  0  0
  -17.0999    8.1824  -16.4464 H   0  0  0  0  0  0  0  0  0  0  0  0
  -17.4665   16.4823  -20.5887 C   0  0  0  0  0  0  0  0  0  0  0  0
  -18.5038   17.0827  -21.4489 C   0  0  0  0  0  0  0  0  0  0  0  0
  -18.1570   17.7842  -22.6040 C   0  0  0  0  0  0  0  0  0  0  0  0
  -19.1123   18.3381  -23.4345 C   0  0  0  0  0  0  0  0  0  0  0  0
  -20.4615   18.2206  -23.1556 C   0  0  0  0  0  0  0  0  0  0  0  0
  -20.8122   17.5298  -22.0173 C   0  0  0  0  0  0  0  0  0  0  0  0
  -19.8539   16.9810  -21.1951 C   0  0  0  0  0  0  0  0  0  0  0  0
 10 11  1  0  0  0
 11  1  1  0  0  0
  1  2  1  0  0  0
  2 12  1  0  0  0
 12 13  2  0  0  0
 12 14  1  0  0  0
 14 15  1  0  0  0
 14 16  2  0  0  0
  2  3  2  0  0  0
  3  4  1  0  0  0
  4 19  1  0  0  0
 19 20  1  0  0  0
 20 21  1  0  0  0
 21 22  1  0  0  0
 21 23  2  0  0  0
  4  5  2  0  0  0
  5  6  1  0  0  0
  6  7  2  0  0  0
  7  8  1  0  0  0
  8  9  1  0  0  0
  9 25  1  0  0  0
 25 26  1  0  0  0
 26 27  2  0  0  0
 27 28  1  0  0  0
 28 29  2  0  0  0
 29 30  1  0  0  0
 30 31  2  0  0  0
  9  1  2  0  0  0
 31 26  1  0  0  0
  8  3  1  0  0  0
 15 17  1  0  0  0
 15 18  1  0  0  0
 22 24  1  0  0  0
M  END
> <minimizedAffinity>
-7.24173

> <CNNscore>
0.3781076670

> <CNNaffinity>
6.1747136116

> <CNN_VS>
2.3347065449

> <CNNaffinity_variance>
0.1714971960

$$$$
[H]OC(=O)C([H])([H])Oc1c([H])c([H])c([H])n2c(C([H])([H])c3c([H])c([H])c([H])c([H])c3[H])c(C([H])([H])C([H])([H])[H])c(C(=O)C(=O)N([H])[H])c12


 31 33  0  0  0  0  0  0  0  0999 V2000
  -17.6259   14.3315  -21.5825 C   0  0  0  0  0  0  0  0  0  0  0  0
  -18.2869   13.6727  -20.5335 C   0  0  0  0  0  0  0  0  0  0  0  0
  -17.7292   12.4356  -20.4097 C   0  0  0  0  0  0  0  0  0  0  0  0
  -18.0191   11.3980  -19.5311 C   0  0  0  0  0  0  0  0  0  0  0  0
  -17.2861   10.2391  -19.6340 C   0  0  0  0  0  0  0  0  0  0  0  0
  -16.2992   10.1181  -20.5789 C   0  0  0  0  0  0  0  0  0  0  0  0
  -16.0685   11.1882  -21.4149 C   0  0  0  0  0  0  0  0  0  0  0  0
  -16.7789   12.3341  -21.3278 N   0  0  0  0  0  0  0  0  0  0  0  0
  -16.6783   13.4750  -22.0730 C   0  0  0  0  0  0  0  0  0  0  0  0
  -17.0246   16.7577  -21.4929 C   0  0  0  0  0  0  0  0  0  0  0  0
  -17.9547   15.7051  -22.0512 C   0  0  0  0  0  0  0  0  0  0  0  0
  -19.3765   14.2630  -19.7496 C   0  0  0  0  0  0  0  0  0  0  0  0
  -20.5637   14.1495  -20.1022 O   0  0  0  0  0  0  0  0  0  0  0  0
  -19.0800   15.0082  -18.5181 C   0  0  0  0  0  0  0  0  0  0  0  0
  -18.4259   14.4009  -17.4145 N   0  0  0  0  0  0  0  0  0  0  0  0
  -19.4171   16.2146  -18.4472 O   0  0  0  0  0  0  0  0  0  0  0  0
  -18.8903   13.9944  -16.5889 H   0  0  0  0  0  0  0  0  0  0  0  0
  -17.3788   14.3696  -17.4552 H   0  0  0  0  0  0  0  0  0  0  0  0
  -19.0254   11.5282  -18.5712 O   0  0  0  0  0  0  0  0  0  0  0  0
  -19.1071   10.6415  -17.4798 C   0  0  0  0  0  0  0  0  0  0  0  0
  -20.0859   11.1584  -16.4913 C   0  0  0  0  0  0  0  0  0  0  0  0
  -21.2407   10.4397  -16.2161 O   0  0  0  0  0  0  0  0  0  0  0  0
  -19.8661   12.2484  -15.9047 O   0  0  0  0  0  0  0  0  0  0  0  0
  -21.7507   10.5541  -15.3337 H   0  0  0  0  0  0  0  0  0  0  0  0
  -15.7293   13.6623  -23.1634 C   0  0  0  0  0  0  0  0  0  0  0  0
  -16.2751   13.6023  -24.5327 C   0  0  0  0  0  0  0  0  0  0  0  0
  -15.8948   14.5376  -25.4956 C   0  0  0  0  0  0  0  0  0  0  0  0
  -16.3782   14.4892  -26.7892 C   0  0  0  0  0  0  0  0  0  0  0  0
  -17.2649   13.5061  -27.1881 C   0  0  0  0  0  0  0  0  0  0  0  0
  -17.6453   12.5793  -26.2437 C   0  0  0  0  0  0  0  0  0  0  0  0
  -17.1589   12.6346  -24.9568 C   0  0  0  0  0  0  0  0  0  0  0  0
 10 11  1  0  0  0
 11  1  1  0  0  0
  1  2  1  0  0  0
  2 12  1  0  0  0
 12 13  2  0  0  0
 12 14  1  0  0  0
 14 15  1  0  0  0
 14 16  2  0  0  0
  2  3  2  0  0  0
  3  4  1  0  0  0
  4 19  1  0  0  0
 19 20  1  0  0  0
 20 21  1  0  0  0
 21 22  1  0  0  0
 21 23  2  0  0  0
  4  5  2  0  0  0
  5  6  1  0  0  0
  6  7  2  0  0  0
  7  8  1  0  0  0
  8  9  1  0  0  0
  9 25  1  0  0  0
 25 26  1  0  0  0
 26 27  2  0  0  0
 27 28  1  0  0  0
 28 29  2  0  0  0
 29 30  1  0  0  0
 30 31  2  0  0  0
  9  1  2  0  0  0
 31 26  1  0  0  0
  8  3  1  0  0  0
 15 17  1  0  0  0
 15 18  1  0  0  0
 22 24  1  0  0  0
M  END
> <minimizedAffinity>
-7.47020

> <CNNscore>
0.3730770051

> <CNNaffinity>
6.1981058121

> <CNN_VS>
2.3123707771

> <CNNaffinity_variance>
0.2425473928

$$$$
[H]OC(=O)C([H])([H])Oc1c([H])c([H])c([H])n2c(C([H])([H])c3c([H])c([H])c([H])c([H])c3[H])c(C([H])([H])C([H])([H])[H])c(C(=O)C(=O)N([H])[H])c12


 31 33  0  0  0  0  0  0  0  0999 V2000
  -18.0780   13.7377  -20.2787 C   0  0  0  0  0  0  0  0  0  0  0  0
  -17.3717   13.4412  -21.4555 C   0  0  0  0  0  0  0  0  0  0  0  0
  -16.8706   14.6123  -21.9395 C   0  0  0  0  0  0  0  0  0  0  0  0
  -16.1052   14.8678  -23.0715 C   0  0  0  0  0  0  0  0  0  0  0  0
  -15.7349   16.1681  -23.3222 C   0  0  0  0  0  0  0  0  0  0  0  0
  -16.1137   17.1783  -22.4752 C   0  0  0  0  0  0  0  0  0  0  0  0
  -16.8717   16.8491  -21.3733 C   0  0  0  0  0  0  0  0  0  0  0  0
  -17.2444   15.5772  -21.1115 N   0  0  0  0  0  0  0  0  0  0  0  0
  -17.9886   15.0879  -20.0753 C   0  0  0  0  0  0  0  0  0  0  0  0
  -18.0028   12.2767  -18.2500 C   0  0  0  0  0  0  0  0  0  0  0  0
  -18.7969   12.7292  -19.4539 C   0  0  0  0  0  0  0  0  0  0  0  0
  -17.2349   12.0922  -22.0138 C   0  0  0  0  0  0  0  0  0  0  0  0
  -18.1239   11.5923  -22.7253 O   0  0  0  0  0  0  0  0  0  0  0  0
  -16.0292   11.2983  -21.7385 C   0  0  0  0  0  0  0  0  0  0  0  0
  -14.9378   11.2553  -22.6448 N   0  0  0  0  0  0  0  0  0  0  0  0
  -15.9697   10.6427  -20.6705 O   0  0  0  0  0  0  0  0  0  0  0  0
  -14.7757   10.5286  -23.3577 H   0  0  0  0  0  0  0  0  0  0  0  0
  -14.2430   12.0371  -22.5722 H   0  0  0  0  0  0  0  0  0  0  0  0
  -15.7229   13.8342  -23.9297 O   0  0  0  0  0  0  0  0  0  0  0  0
  -15.9832   13.9043  -25.3123 C   0  0  0  0  0  0  0  0  0  0  0  0
  -17.2307   13.1624  -25.6217 C   0  0  0  0  0  0  0  0  0  0  0  0
  -18.4482   13.6173  -25.1354 O   0  0  0  0  0  0  0  0  0  0  0  0
  -17.1811   12.1214  -26.3248 O   0  0  0  0  0  0  0  0  0  0  0  0
  -19.3360   13.3694  -25.5850 H   0  0  0  0  0  0  0  0  0  0  0  0
  -18.5484   15.9075  -19.0078 C   0  0  0  0  0  0  0  0  0  0  0  0
  -19.9571   16.3184  -19.1591 C   0  0  0  0  0  0  0  0  0  0  0  0
  -20.4676   16.6758  -20.4074 C   0  0  0  0  0  0  0  0  0  0  0  0
  -21.7884   17.0452  -20.5759 C   0  0  0  0  0  0  0  0  0  0  0  0
  -22.6668   17.0770  -19.5086 C   0  0  0  0  0  0  0  0  0  0  0  0
  -22.1708   16.7259  -18.2731 C   0  0  0  0  0  0  0  0  0  0  0  0
  -20.8534   16.3589  -18.1139 C   0  0  0  0  0  0  0  0  0  0  0  0
 10 11  1  0  0  0
 11  1  1  0  0  0
  1  2  1  0  0  0
  2 12  1  0  0  0
 12 13  2  0  0  0
 12 14  1  0  0  0
 14 15  1  0  0  0
 14 16  2  0  0  0
  2  3  2  0  0  0
  3  4  1  0  0  0
  4 19  1  0  0  0
 19 20  1  0  0  0
 20 21  1  0  0  0
 21 22  1  0  0  0
 21 23  2  0  0  0
  4  5  2  0  0  0
  5  6  1  0  0  0
  6  7  2  0  0  0
  7  8  1  0  0  0
  8  9  1  0  0  0
  9 25  1  0  0  0
 25 26  1  0  0  0
 26 27  2  0  0  0
 27 28  1  0  0  0
 28 29  2  0  0  0
 29 30  1  0  0  0
 30 31  2  0  0  0
  9  1  2  0  0  0
 31 26  1  0  0  0
  8  3  1  0  0  0
 15 17  1  0  0  0
 15 18  1  0  0  0
 22 24  1  0  0  0
M  END
> <minimizedAffinity>
-6.53620

> <CNNscore>
0.3632078767

> <CNNaffinity>
6.0421266556

> <CNN_VS>
2.1945478916

> <CNNaffinity_variance>
0.1375052035

$$$$
[H]OC(=O)C([H])([H])Oc1c([H])c([H])c([H])n2c(C([H])([H])c3c([H])c([H])c([H])c([H])c3[H])c(C([H])([H])C([H])([H])[H])c(C(=O)C(=O)N([H])[H])c12


 31 33  0  0  0  0  0  0  0  0999 V2000
  -16.5883   15.6591  -22.4735 C   0  0  0  0  0  0  0  0  0  0  0  0
  -17.5540   15.4850  -21.4692 C   0  0  0  0  0  0  0  0  0  0  0  0
  -17.6772   14.1465  -21.2459 C   0  0  0  0  0  0  0  0  0  0  0  0
  -18.4922   13.4497  -20.3612 C   0  0  0  0  0  0  0  0  0  0  0  0
  -18.4096   12.0771  -20.3493 C   0  0  0  0  0  0  0  0  0  0  0  0
  -17.5457   11.4219  -21.1894 C   0  0  0  0  0  0  0  0  0  0  0  0
  -16.7694   12.1789  -22.0387 C   0  0  0  0  0  0  0  0  0  0  0  0
  -16.8375   13.5280  -22.0636 N   0  0  0  0  0  0  0  0  0  0  0  0
  -16.1461   14.4166  -22.8378 C   0  0  0  0  0  0  0  0  0  0  0  0
  -17.0803   17.4648  -24.1328 C   0  0  0  0  0  0  0  0  0  0  0  0
  -16.1764   16.9794  -23.0228 C   0  0  0  0  0  0  0  0  0  0  0  0
  -18.2687   16.5868  -20.8168 C   0  0  0  0  0  0  0  0  0  0  0  0
  -19.3810   16.9676  -21.2222 O   0  0  0  0  0  0  0  0  0  0  0  0
  -17.6750   17.2679  -19.6578 C   0  0  0  0  0  0  0  0  0  0  0  0
  -17.1622   18.5883  -19.7471 N   0  0  0  0  0  0  0  0  0  0  0  0
  -17.6234   16.6594  -18.5619 O   0  0  0  0  0  0  0  0  0  0  0  0
  -16.1753   18.8414  -19.9043 H   0  0  0  0  0  0  0  0  0  0  0  0
  -17.8586   19.3650  -19.6422 H   0  0  0  0  0  0  0  0  0  0  0  0
  -19.3696   14.1235  -19.5084 O   0  0  0  0  0  0  0  0  0  0  0  0
  -19.8939   13.4953  -18.3618 C   0  0  0  0  0  0  0  0  0  0  0  0
  -19.6353   14.3404  -17.1696 C   0  0  0  0  0  0  0  0  0  0  0  0
  -18.3708   14.3681  -16.5988 O   0  0  0  0  0  0  0  0  0  0  0  0
  -20.5647   15.0303  -16.6787 O   0  0  0  0  0  0  0  0  0  0  0  0
  -18.0529   15.1589  -16.0283 H   0  0  0  0  0  0  0  0  0  0  0  0
  -15.1558   14.0372  -23.8378 C   0  0  0  0  0  0  0  0  0  0  0  0
  -15.4392   14.4299  -25.2313 C   0  0  0  0  0  0  0  0  0  0  0  0
  -16.5607   13.9373  -25.8991 C   0  0  0  0  0  0  0  0  0  0  0  0
  -16.8562   14.3065  -27.1974 C   0  0  0  0  0  0  0  0  0  0  0  0
  -16.0487   15.1854  -27.8955 C   0  0  0  0  0  0  0  0  0  0  0  0
  -14.9397   15.6760  -27.2436 C   0  0  0  0  0  0  0  0  0  0  0  0
  -14.6524   15.3030  -25.9497 C   0  0  0  0  0  0  0  0  0  0  0  0
 10 11  1  0  0  0
 11  1  1  0  0  0
  1  2  1  0  0  0
  2 12  1  0  0  0
 12 13  2  0  0  0
 12 14  1  0  0  0
 14 15  1  0  0  0
 14 16  2  0  0  0
  2  3  2  0  0  0
  3  4  1  0  0  0
  4 19  1  0  0  0
 19 20  1  0  0  0
 20 21  1  0  0  0
 21 22  1  0  0  0
 21 23  2  0  0  0
  4  5  2  0  0  0
  5  6  1  0  0  0
  6  7  2  0  0  0
  7  8  1  0  0  0
  8  9  1  0  0  0
  9 25  1  0  0  0
 25 26  1  0  0  0
 26 27  2  0  0  0
 27 28  1  0  0  0
 28 29  2  0  0  0
 29 30  1  0  0  0
 30 31  2  0  0  0
  9  1  2  0  0  0
 31 26  1  0  0  0
  8  3  1  0  0  0
 15 17  1  0  0  0
 15 18  1  0  0  0
 22 24  1  0  0  0
M  END
> <minimizedAffinity>
-8.24212

> <CNNscore>
0.3411772847

> <CNNaffinity>
6.1276965141

> <CNN_VS>
2.0906307697

> <CNNaffinity_variance>
0.4681261480

$$$$
[H]OC(=O)C([H])([H])Oc1c([H])c([H])c([H])n2c(C([H])([H])c3c([H])c([H])c([H])c([H])c3[H])c(C([H])([H])C([H])([H])[H])c(C(=O)C(=O)N([H])[H])c12


 31 33  0  0  0  0  0  0  0  0999 V2000
  -17.3223   13.1937  -21.6773 C   0  0  0  0  0  0  0  0  0  0  0  0
  -18.0532   13.9423  -20.7409 C   0  0  0  0  0  0  0  0  0  0  0  0
  -17.6083   15.2285  -20.8065 C   0  0  0  0  0  0  0  0  0  0  0  0
  -17.9980   16.3565  -20.0935 C   0  0  0  0  0  0  0  0  0  0  0  0
  -17.3659   17.5463  -20.3687 C   0  0  0  0  0  0  0  0  0  0  0  0
  -16.3803   17.6102  -21.3204 C   0  0  0  0  0  0  0  0  0  0  0  0
  -16.0474   16.4514  -21.9865 C   0  0  0  0  0  0  0  0  0  0  0  0
  -16.6579   15.2740  -21.7290 N   0  0  0  0  0  0  0  0  0  0  0  0
  -16.4469   14.0470  -22.2920 C   0  0  0  0  0  0  0  0  0  0  0  0
  -16.5650   10.8929  -21.0539 C   0  0  0  0  0  0  0  0  0  0  0  0
  -17.4928   11.7325  -21.9017 C   0  0  0  0  0  0  0  0  0  0  0  0
  -19.0956   13.3822  -19.8749 C   0  0  0  0  0  0  0  0  0  0  0  0
  -20.2926   13.3923  -20.2121 O   0  0  0  0  0  0  0  0  0  0  0  0
  -18.7385   12.7918  -18.5773 C   0  0  0  0  0  0  0  0  0  0  0  0
  -18.3103   13.5894  -17.4842 N   0  0  0  0  0  0  0  0  0  0  0  0
  -18.8170   11.5474  -18.4390 O   0  0  0  0  0  0  0  0  0  0  0  0
  -17.3309   13.7779  -17.2239 H   0  0  0  0  0  0  0  0  0  0  0  0
  -19.0664   14.0185  -16.8982 H   0  0  0  0  0  0  0  0  0  0  0  0
  -19.0026   16.2842  -19.1258 O   0  0  0  0  0  0  0  0  0  0  0  0
  -19.3872   17.4232  -18.3916 C   0  0  0  0  0  0  0  0  0  0  0  0
  -19.1043   17.2053  -16.9512 C   0  0  0  0  0  0  0  0  0  0  0  0
  -18.7389   18.2744  -16.1455 O   0  0  0  0  0  0  0  0  0  0  0  0
  -19.1963   16.0501  -16.4636 O   0  0  0  0  0  0  0  0  0  0  0  0
  -18.8731   18.2553  -15.1289 H   0  0  0  0  0  0  0  0  0  0  0  0
  -15.4602   13.7791  -23.3308 C   0  0  0  0  0  0  0  0  0  0  0  0
  -15.8766   14.0403  -24.7217 C   0  0  0  0  0  0  0  0  0  0  0  0
  -15.2758   15.0531  -25.4699 C   0  0  0  0  0  0  0  0  0  0  0  0
  -15.6363   15.3027  -26.7802 C   0  0  0  0  0  0  0  0  0  0  0  0
  -16.6138   14.5554  -27.4108 C   0  0  0  0  0  0  0  0  0  0  0  0
  -17.2119   13.5539  -26.6793 C   0  0  0  0  0  0  0  0  0  0  0  0
  -16.8468   13.3117  -25.3740 C   0  0  0  0  0  0  0  0  0  0  0  0
 10 11  1  0  0  0
 11  1  1  0  0  0
  1  2  1  0  0  0
  2 12  1  0  0  0
 12 13  2  0  0  0
 12 14  1  0  0  0
 14 15  1  0  0  0
 14 16  2  0  0  0
  2  3  2  0  0  0
  3  4  1  0  0  0
  4 19  1  0  0  0
 19 20  1  0  0  0
 20 21  1  0  0  0
 21 22  1  0  0  0
 21 23  2  0  0  0
  4  5  2  0  0  0
  5  6  1  0  0  0
  6  7  2  0  0  0
  7  8  1  0  0  0
  8  9  1  0  0  0
  9 25  1  0  0  0
 25 26  1  0  0  0
 26 27  2  0  0  0
 27 28  1  0  0  0
 28 29  2  0  0  0
 29 30  1  0  0  0
 30 31  2  0  0  0
  9  1  2  0  0  0
 31 26  1  0  0  0
  8  3  1  0  0  0
 15 17  1  0  0  0
 15 18  1  0  0  0
 22 24  1  0  0  0
M  END
> <minimizedAffinity>
-7.81316

> <CNNscore>
0.2904798388

> <CNNaffinity>
6.1222267151

> <CNN_VS>
1.7783833742

> <CNNaffinity_variance>
0.1779201925

$$$$
[H]OC(=O)C([H])([H])Oc1c([H])c([H])c([H])n2c(C([H])([H])c3c([H])c([H])c([H])c([H])c3[H])c(C([H])([H])C([H])([H])[H])c(C(=O)C(=O)N([H])[H])c12


 31 33  0  0  0  0  0  0  0  0999 V2000
  -16.5830   15.6934  -22.2582 C   0  0  0  0  0  0  0  0  0  0  0  0
  -17.4853   15.3272  -21.2467 C   0  0  0  0  0  0  0  0  0  0  0  0
  -17.4638   13.9682  -21.1500 C   0  0  0  0  0  0  0  0  0  0  0  0
  -18.1684   13.1111  -20.3124 C   0  0  0  0  0  0  0  0  0  0  0  0
  -17.9474   11.7595  -20.4355 C   0  0  0  0  0  0  0  0  0  0  0  0
  -17.0561   11.2786  -21.3605 C   0  0  0  0  0  0  0  0  0  0  0  0
  -16.3946   12.1880  -22.1559 C   0  0  0  0  0  0  0  0  0  0  0  0
  -16.5994   13.5191  -22.0485 N   0  0  0  0  0  0  0  0  0  0  0  0
  -16.0326   14.5430  -22.7539 C   0  0  0  0  0  0  0  0  0  0  0  0
  -17.1256   17.4898  -23.9119 C   0  0  0  0  0  0  0  0  0  0  0  0
  -16.3286   17.0947  -22.6898 C   0  0  0  0  0  0  0  0  0  0  0  0
  -18.2808   16.2831  -20.4697 C   0  0  0  0  0  0  0  0  0  0  0  0
  -17.8011   16.8797  -19.4897 O   0  0  0  0  0  0  0  0  0  0  0  0
  -19.6764   16.5558  -20.8412 C   0  0  0  0  0  0  0  0  0  0  0  0
  -20.7642   16.0976  -20.0531 N   0  0  0  0  0  0  0  0  0  0  0  0
  -19.9051   17.2126  -21.8853 O   0  0  0  0  0  0  0  0  0  0  0  0
  -21.3028   15.2337  -20.2148 H   0  0  0  0  0  0  0  0  0  0  0  0
  -21.0333   16.6999  -19.2382 H   0  0  0  0  0  0  0  0  0  0  0  0
  -19.0745   13.6078  -19.3725 O   0  0  0  0  0  0  0  0  0  0  0  0
  -19.4923   12.8219  -18.2807 C   0  0  0  0  0  0  0  0  0  0  0  0
  -19.0259   13.4408  -17.0151 C   0  0  0  0  0  0  0  0  0  0  0  0
  -19.5922   13.0614  -15.8063 O   0  0  0  0  0  0  0  0  0  0  0  0
  -18.1173   14.3092  -17.0413 O   0  0  0  0  0  0  0  0  0  0  0  0
  -19.0959   13.1794  -14.9166 H   0  0  0  0  0  0  0  0  0  0  0  0
  -15.0499   14.3633  -23.8153 C   0  0  0  0  0  0  0  0  0  0  0  0
  -15.5332   14.5300  -25.1991 C   0  0  0  0  0  0  0  0  0  0  0  0
  -14.9109   15.4240  -26.0710 C   0  0  0  0  0  0  0  0  0  0  0  0
  -15.3342   15.5822  -27.3768 C   0  0  0  0  0  0  0  0  0  0  0  0
  -16.3990   14.8574  -27.8793 C   0  0  0  0  0  0  0  0  0  0  0  0
  -17.0187   13.9730  -27.0252 C   0  0  0  0  0  0  0  0  0  0  0  0
  -16.5907   13.8213  -25.7254 C   0  0  0  0  0  0  0  0  0  0  0  0
 10 11  1  0  0  0
 11  1  1  0  0  0
  1  2  1  0  0  0
  2 12  1  0  0  0
 12 13  2  0  0  0
 12 14  1  0  0  0
 14 15  1  0  0  0
 14 16  2  0  0  0
  2  3  2  0  0  0
  3  4  1  0  0  0
  4 19  1  0  0  0
 19 20  1  0  0  0
 20 21  1  0  0  0
 21 22  1  0  0  0
 21 23  2  0  0  0
  4  5  2  0  0  0
  5  6  1  0  0  0
  6  7  2  0  0  0
  7  8  1  0  0  0
  8  9  1  0  0  0
  9 25  1  0  0  0
 25 26  1  0  0  0
 26 27  2  0  0  0
 27 28  1  0  0  0
 28 29  2  0  0  0
 29 30  1  0  0  0
 30 31  2  0  0  0
  9  1  2  0  0  0
 31 26  1  0  0  0
  8  3  1  0  0  0
 15 17  1  0  0  0
 15 18  1  0  0  0
 22 24  1  0  0  0
M  END
> <minimizedAffinity>
-7.92634

> <CNNscore>
0.2852453291

> <CNNaffinity>
6.0594358444

> <CNN_VS>
1.7284257412

> <CNNaffinity_variance>
0.3350891769

$$$$
[H]OC(=O)C([H])([H])Oc1c([H])c([H])c([H])n2c(C([H])([H])c3c([H])c([H])c([H])c([H])c3[H])c(C([H])([H])C([H])([H])[H])c(C(=O)C(=O)N([H])[H])c12


 31 33  0  0  0  0  0  0  0  0999 V2000
  -18.7945   14.7024  -19.7985 C   0  0  0  0  0  0  0  0  0  0  0  0
  -19.4448   13.9073  -18.8412 C   0  0  0  0  0  0  0  0  0  0  0  0
  -18.8033   12.7058  -18.8014 C   0  0  0  0  0  0  0  0  0  0  0  0
  -19.0497   11.5756  -18.0304 C   0  0  0  0  0  0  0  0  0  0  0  0
  -18.2307   10.4843  -18.2016 C   0  0  0  0  0  0  0  0  0  0  0  0
  -17.2026   10.5178  -19.1089 C   0  0  0  0  0  0  0  0  0  0  0  0
  -17.0192   11.6724  -19.8373 C   0  0  0  0  0  0  0  0  0  0  0  0
  -17.8141   12.7537  -19.6820 N   0  0  0  0  0  0  0  0  0  0  0  0
  -17.7689   13.9614  -20.3196 C   0  0  0  0  0  0  0  0  0  0  0  0
  -18.3367   17.1454  -19.5191 C   0  0  0  0  0  0  0  0  0  0  0  0
  -19.2046   16.0865  -20.1596 C   0  0  0  0  0  0  0  0  0  0  0  0
  -20.6035   14.3476  -18.0577 C   0  0  0  0  0  0  0  0  0  0  0  0
  -21.7547   14.3101  -18.5265 O   0  0  0  0  0  0  0  0  0  0  0  0
  -20.4213   14.8466  -16.6874 C   0  0  0  0  0  0  0  0  0  0  0  0
  -21.0320   14.2146  -15.5730 N   0  0  0  0  0  0  0  0  0  0  0  0
  -19.7043   15.8598  -16.5050 O   0  0  0  0  0  0  0  0  0  0  0  0
  -21.9227   14.4943  -15.1359 H   0  0  0  0  0  0  0  0  0  0  0  0
  -20.5222   13.3926  -15.1684 H   0  0  0  0  0  0  0  0  0  0  0  0
  -20.0984   11.5485  -17.1082 O   0  0  0  0  0  0  0  0  0  0  0  0
  -20.3497   10.4033  -16.3275 C   0  0  0  0  0  0  0  0  0  0  0  0
  -19.8085   10.6048  -14.9604 C   0  0  0  0  0  0  0  0  0  0  0  0
  -20.0266   11.8039  -14.2968 O   0  0  0  0  0  0  0  0  0  0  0  0
  -19.1523    9.6870  -14.4060 O   0  0  0  0  0  0  0  0  0  0  0  0
  -19.9915   11.8693  -13.2739 H   0  0  0  0  0  0  0  0  0  0  0  0
  -16.7956   14.3116  -21.3465 C   0  0  0  0  0  0  0  0  0  0  0  0
  -17.1855   14.0478  -22.7446 C   0  0  0  0  0  0  0  0  0  0  0  0
  -18.0173   14.9307  -23.4339 C   0  0  0  0  0  0  0  0  0  0  0  0
  -18.3796   14.7137  -24.7495 C   0  0  0  0  0  0  0  0  0  0  0  0
  -17.9309   13.6058  -25.4445 C   0  0  0  0  0  0  0  0  0  0  0  0
  -17.1095   12.7294  -24.7714 C   0  0  0  0  0  0  0  0  0  0  0  0
  -16.7533   12.9530  -23.4604 C   0  0  0  0  0  0  0  0  0  0  0  0
 10 11  1  0  0  0
 11  1  1  0  0  0
  1  2  1  0  0  0
  2 12  1  0  0  0
 12 13  2  0  0  0
 12 14  1  0  0  0
 14 15  1  0  0  0
 14 16  2  0  0  0
  2  3  2  0  0  0
  3  4  1  0  0  0
  4 19  1  0  0  0
 19 20  1  0  0  0
 20 21  1  0  0  0
 21 22  1  0  0  0
 21 23  2  0  0  0
  4  5  2  0  0  0
  5  6  1  0  0  0
  6  7  2  0  0  0
  7  8  1  0  0  0
  8  9  1  0  0  0
  9 25  1  0  0  0
 25 26  1  0  0  0
 26 27  2  0  0  0
 27 28  1  0  0  0
 28 29  2  0  0  0
 29 30  1  0  0  0
 30 31  2  0  0  0
  9  1  2  0  0  0
 31 26  1  0  0  0
  8  3  1  0  0  0
 15 17  1  0  0  0
 15 18  1  0  0  0
 22 24  1  0  0  0
M  END
> <minimizedAffinity>
-7.33666

> <CNNscore>
0.2607124150

> <CNNaffinity>
5.8360838890

> <CNN_VS>
1.5215395689

> <CNNaffinity_variance>
0.1902116388

$$$$
[H]N=C(N([H])[H])N([H])C([H])([H])C([H])([H])C([H])([H])[C@@]([H])(C(=O)c1nc2c([H])c([H])c([H])c([H])c2s1)N([H])C(=O)[C@@]([H])(N([H])C(=O)[C@@]([H])(N([H])C(=O)OC([H])([H])c1c([H])c([H])c([H])c([H])c1[H])C([H])([H])C([H])([H])C(=O)N([H])[H])C([H])([H])C([H])([H])C([H])([H])N([H])C(=N[H])N([H])[H]


 63 65  0  0  0  0  0  0  0  0999 V2000
  -19.9960   15.2565  -20.7981 C   0  0  0  0  0  0  0  0  0  0  0  0
  -19.0259   16.2912  -21.1593 N   0  0  0  0  0  0  0  0  0  0  0  0
  -19.2443   17.2471  -22.1623 C   0  0  0  0  0  0  0  0  0  0  0  0
  -20.3108   17.2235  -22.8098 O   0  0  0  0  0  0  0  0  0  0  0  0
  -18.1378   16.2647  -20.6096 H   0  0  0  0  0  0  0  0  0  0  0  0
  -18.2400   18.2708  -22.4595 C   0  0  0  0  0  0  0  0  0  0  0  0
  -17.2657   17.8641  -23.4237 N   0  0  0  0  0  0  0  0  0  0  0  0
  -16.1644   17.0623  -22.9816 C   0  0  0  0  0  0  0  0  0  0  0  0
  -16.0276   16.7109  -21.7883 O   0  0  0  0  0  0  0  0  0  0  0  0
  -17.3602   18.1192  -24.4264 H   0  0  0  0  0  0  0  0  0  0  0  0
  -15.2216   16.6615  -23.9016 O   0  0  0  0  0  0  0  0  0  0  0  0
  -14.9677   15.2947  -24.1669 C   0  0  0  0  0  0  0  0  0  0  0  0
  -15.6786   14.7943  -25.3538 C   0  0  0  0  0  0  0  0  0  0  0  0
  -15.5257   15.4682  -26.5565 C   0  0  0  0  0  0  0  0  0  0  0  0
  -16.1269   15.0929  -27.7255 C   0  0  0  0  0  0  0  0  0  0  0  0
  -16.9554   13.9652  -27.7505 C   0  0  0  0  0  0  0  0  0  0  0  0
  -17.1061   13.2976  -26.5532 C   0  0  0  0  0  0  0  0  0  0  0  0
  -16.4927   13.6885  -25.3839 C   0  0  0  0  0  0  0  0  0  0  0  0
  -18.8732   19.5902  -22.8381 C   0  0  0  0  0  0  0  0  0  0  0  0
  -18.9368   20.6342  -21.8109 C   0  0  0  0  0  0  0  0  0  0  0  0
  -20.0308   20.6442  -20.8603 C   0  0  0  0  0  0  0  0  0  0  0  0
  -21.1191   21.5281  -20.9843 N   0  0  0  0  0  0  0  0  0  0  0  0
  -20.0310   19.8453  -19.8929 O   0  0  0  0  0  0  0  0  0  0  0  0
  -22.0190   21.3957  -20.4901 H   0  0  0  0  0  0  0  0  0  0  0  0
  -21.0187   22.3592  -21.6040 H   0  0  0  0  0  0  0  0  0  0  0  0
  -21.0967   15.7883  -20.0059 C   0  0  0  0  0  0  0  0  0  0  0  0
  -21.8560   14.8974  -19.4556 O   0  0  0  0  0  0  0  0  0  0  0  0
  -21.4285   17.1207  -19.7678 N   0  0  0  0  0  0  0  0  0  0  0  0
  -20.8977   17.9050  -20.1412 H   0  0  0  0  0  0  0  0  0  0  0  0
  -22.6191   17.4816  -18.9237 C   0  0  0  0  0  0  0  0  0  0  0  0
  -23.6476   17.8251  -19.8894 C   0  0  0  0  0  0  0  0  0  0  0  0
  -24.8738   17.8750  -19.4595 O   0  0  0  0  0  0  0  0  0  0  0  0
  -23.4537   18.0923  -21.3010 C   0  0  0  0  0  0  0  0  0  0  0  0
  -23.0618   19.1902  -21.9100 N   0  0  0  0  0  0  0  0  0  0  0  0
  -23.1260   19.3174  -23.1948 C   0  0  0  0  0  0  0  0  0  0  0  0
  -22.7305   20.4562  -23.9316 C   0  0  0  0  0  0  0  0  0  0  0  0
  -22.8550   20.4536  -25.2826 C   0  0  0  0  0  0  0  0  0  0  0  0
  -23.3469   19.4082  -26.0183 C   0  0  0  0  0  0  0  0  0  0  0  0
  -23.7358   18.2915  -25.3131 C   0  0  0  0  0  0  0  0  0  0  0  0
  -23.6217   18.2580  -23.9138 C   0  0  0  0  0  0  0  0  0  0  0  0
  -23.9627   17.1470  -22.6764 S   0  0  0  0  0  0  0  0  0  0  0  0
  -22.3551   18.3533  -17.7860 C   0  0  0  0  0  0  0  0  0  0  0  0
  -23.1540   19.5787  -17.6464 C   0  0  0  0  0  0  0  0  0  0  0  0
  -23.0024   20.9586  -17.9484 C   0  0  0  0  0  0  0  0  0  0  0  0
  -24.0337   21.7707  -18.4831 N   0  0  0  0  0  0  0  0  0  0  0  0
  -24.3057   22.6631  -17.9955 H   0  0  0  0  0  0  0  0  0  0  0  0
  -24.7195   21.4408  -19.6777 C   0  0  0  0  0  0  0  0  0  0  0  0
  -25.9308   20.6948  -19.6266 N   0  0  0  0  0  0  0  0  0  0  0  0
  -24.2781   21.7947  -20.8113 N   0  0  0  0  0  0  0  0  0  0  0  0
  -25.9741   19.7085  -19.9776 H   0  0  0  0  0  0  0  0  0  0  0  0
  -26.8217   21.0757  -19.2471 H   0  0  0  0  0  0  0  0  0  0  0  0
  -23.3945   22.3414  -20.8929 H   0  0  0  0  0  0  0  0  0  0  0  0
  -19.1708   14.2290  -20.0041 C   0  0  0  0  0  0  0  0  0  0  0  0
  -18.0380   13.7226  -20.8226 C   0  0  0  0  0  0  0  0  0  0  0  0
  -17.4304   12.5269  -20.0822 C   0  0  0  0  0  0  0  0  0  0  0  0
  -16.8396   11.5989  -21.0217 N   0  0  0  0  0  0  0  0  0  0  0  0
  -16.9283   11.7896  -22.0429 H   0  0  0  0  0  0  0  0  0  0  0  0
  -16.4538    9.6938  -19.4379 N   0  0  0  0  0  0  0  0  0  0  0  0
  -16.1481   10.4291  -20.6148 C   0  0  0  0  0  0  0  0  0  0  0  0
  -15.1902   10.0157  -21.3665 N   0  0  0  0  0  0  0  0  0  0  0  0
  -16.0634    9.9540  -18.5305 H   0  0  0  0  0  0  0  0  0  0  0  0
  -17.0921    8.8577  -19.4573 H   0  0  0  0  0  0  0  0  0  0  0  0
  -14.6015    9.1687  -21.1876 H   0  0  0  0  0  0  0  0  0  0  0  0
 58 59  1  0  0  0
 59 60  2  0  0  0
 59 56  1  0  0  0
 56 55  1  0  0  0
 55 54  1  0  0  0
 54 53  1  0  0  0
 53  1  1  0  0  0
  1  2  1  0  0  0
  2  3  1  0  0  0
  3  4  2  0  0  0
  3  6  1  0  0  0
  6 19  1  0  0  0
 19 20  1  0  0  0
 20 21  1  0  0  0
 21 22  1  0  0  0
 21 23  2  0  0  0
  6  7  1  0  0  0
  7  8  1  0  0  0
  8  9  2  0  0  0
  8 11  1  0  0  0
 11 12  1  0  0  0
 12 13  1  0  0  0
 13 14  2  0  0  0
 14 15  1  0  0  0
 15 16  2  0  0  0
 16 17  1  0  0  0
 17 18  2  0  0  0
  1 26  1  0  0  0
 26 27  2  0  0  0
 26 28  1  0  0  0
 28 30  1  0  0  0
 30 42  1  0  0  0
 42 43  1  0  0  0
 43 44  1  0  0  0
 44 45  1  0  0  0
 45 47  1  0  0  0
 47 48  1  0  0  0
 47 49  2  0  0  0
 30 31  1  0  0  0
 31 32  2  0  0  0
 31 33  1  0  0  0
 33 34  2  0  0  0
 34 35  1  0  0  0
 35 36  2  0  0  0
 36 37  1  0  0  0
 37 38  2  0  0  0
 38 39  1  0  0  0
 39 40  2  0  0  0
 40 41  1  0  0  0
 18 13  1  0  0  0
 41 33  1  0  0  0
 40 35  1  0  0  0
 58 61  1  0  0  0
 58 62  1  0  0  0
 60 63  1  0  0  0
 56 57  1  0  0  0
  2  5  1  0  0  0
 22 24  1  0  0  0
 22 25  1  0  0  0
  7 10  1  0  0  0
 28 29  1  0  0  0
 45 46  1  0  0  0
 48 50  1  0  0  0
 48 51  1  0  0  0
 49 52  1  0  0  0
M  END
> <minimizedAffinity>
-7.15020

> <CNNscore>
0.4257771969

> <CNNaffinity>
7.4915008545

> <CNN_VS>
3.1897101402

> <CNNaffinity_variance>
0.1651093364

$$$$
[H]N=C(N([H])[H])N([H])C([H])([H])C([H])([H])C([H])([H])[C@@]([H])(C(=O)c1nc2c([H])c([H])c([H])c([H])c2s1)N([H])C(=O)[C@@]([H])(N([H])C(=O)[C@@]([H])(N([H])C(=O)OC([H])([H])c1c([H])c([H])c([H])c([H])c1[H])C([H])([H])C([H])([H])C(=O)N([H])[H])C([H])([H])C([H])([H])C([H])([H])N([H])C(=N[H])N([H])[H]


 63 65  0  0  0  0  0  0  0  0999 V2000
  -18.5455   17.0575  -22.0556 C   0  0  0  0  0  0  0  0  0  0  0  0
  -18.4468   15.6059  -21.8966 N   0  0  0  0  0  0  0  0  0  0  0  0
  -17.2877   14.9475  -21.4600 C   0  0  0  0  0  0  0  0  0  0  0  0
  -16.2641   15.6137  -21.2038 O   0  0  0  0  0  0  0  0  0  0  0  0
  -19.3171   15.0820  -22.1411 H   0  0  0  0  0  0  0  0  0  0  0  0
  -17.2621   13.4919  -21.3008 C   0  0  0  0  0  0  0  0  0  0  0  0
  -18.0345   13.0163  -20.1955 N   0  0  0  0  0  0  0  0  0  0  0  0
  -17.6997   11.7443  -19.6287 C   0  0  0  0  0  0  0  0  0  0  0  0
  -16.7621   11.0410  -20.0673 O   0  0  0  0  0  0  0  0  0  0  0  0
  -18.8053   13.5843  -19.7922 H   0  0  0  0  0  0  0  0  0  0  0  0
  -18.4341   11.2774  -18.5617 O   0  0  0  0  0  0  0  0  0  0  0  0
  -18.1147   10.0644  -17.9063 C   0  0  0  0  0  0  0  0  0  0  0  0
  -19.1546    9.6261  -16.9623 C   0  0  0  0  0  0  0  0  0  0  0  0
  -20.1906   10.4972  -16.6592 C   0  0  0  0  0  0  0  0  0  0  0  0
  -21.2161   10.1988  -15.8059 C   0  0  0  0  0  0  0  0  0  0  0  0
  -21.2580    8.9479  -15.1797 C   0  0  0  0  0  0  0  0  0  0  0  0
  -20.2264    8.0842  -15.4823 C   0  0  0  0  0  0  0  0  0  0  0  0
  -19.2005    8.4000  -16.3450 C   0  0  0  0  0  0  0  0  0  0  0  0
  -17.6320   12.7771  -22.5803 C   0  0  0  0  0  0  0  0  0  0  0  0
  -16.6959   12.8665  -23.7050 C   0  0  0  0  0  0  0  0  0  0  0  0
  -15.2696   12.7746  -23.4645 C   0  0  0  0  0  0  0  0  0  0  0  0
  -14.6498   11.5626  -23.1066 N   0  0  0  0  0  0  0  0  0  0  0  0
  -14.5454   13.7927  -23.5786 O   0  0  0  0  0  0  0  0  0  0  0  0
  -13.6295   11.4026  -23.1773 H   0  0  0  0  0  0  0  0  0  0  0  0
  -15.2440   10.7840  -22.7524 H   0  0  0  0  0  0  0  0  0  0  0  0
  -19.6620   17.6173  -21.3059 C   0  0  0  0  0  0  0  0  0  0  0  0
  -20.5109   16.7500  -20.8584 O   0  0  0  0  0  0  0  0  0  0  0  0
  -19.9253   18.9539  -21.0123 N   0  0  0  0  0  0  0  0  0  0  0  0
  -19.3226   19.7204  -21.3044 H   0  0  0  0  0  0  0  0  0  0  0  0
  -21.1456   19.3465  -20.2267 C   0  0  0  0  0  0  0  0  0  0  0  0
  -21.8730   20.2308  -21.1196 C   0  0  0  0  0  0  0  0  0  0  0  0
  -22.1103   21.4377  -20.6976 O   0  0  0  0  0  0  0  0  0  0  0  0
  -22.3924   19.8986  -22.4316 C   0  0  0  0  0  0  0  0  0  0  0  0
  -22.6845   18.7285  -22.9565 N   0  0  0  0  0  0  0  0  0  0  0  0
  -22.9586   18.5939  -24.2125 C   0  0  0  0  0  0  0  0  0  0  0  0
  -23.2808   17.3807  -24.8610 C   0  0  0  0  0  0  0  0  0  0  0  0
  -23.5464   17.3848  -26.1914 C   0  0  0  0  0  0  0  0  0  0  0  0
  -23.5287   18.4998  -26.9866 C   0  0  0  0  0  0  0  0  0  0  0  0
  -23.2165   19.6894  -26.3677 C   0  0  0  0  0  0  0  0  0  0  0  0
  -22.9358   19.7238  -24.9922 C   0  0  0  0  0  0  0  0  0  0  0  0
  -22.5168   20.9075  -23.8497 S   0  0  0  0  0  0  0  0  0  0  0  0
  -20.9169   19.7256  -18.8382 C   0  0  0  0  0  0  0  0  0  0  0  0
  -20.6700   18.6606  -17.8562 C   0  0  0  0  0  0  0  0  0  0  0  0
  -19.6381   18.3034  -16.9473 C   0  0  0  0  0  0  0  0  0  0  0  0
  -19.1278   16.9887  -16.8048 N   0  0  0  0  0  0  0  0  0  0  0  0
  -19.2392   16.4784  -15.8909 H   0  0  0  0  0  0  0  0  0  0  0  0
  -18.4757   16.3073  -17.8614 C   0  0  0  0  0  0  0  0  0  0  0  0
  -17.4210   16.9386  -18.5791 N   0  0  0  0  0  0  0  0  0  0  0  0
  -18.8105   15.1314  -18.1942 N   0  0  0  0  0  0  0  0  0  0  0  0
  -17.5453   17.2314  -19.5775 H   0  0  0  0  0  0  0  0  0  0  0  0
  -16.4883   17.1415  -18.1647 H   0  0  0  0  0  0  0  0  0  0  0  0
  -19.5781   14.6338  -17.6949 H   0  0  0  0  0  0  0  0  0  0  0  0
  -18.7229   17.2579  -23.5708 C   0  0  0  0  0  0  0  0  0  0  0  0
  -17.4589   17.7406  -24.1863 C   0  0  0  0  0  0  0  0  0  0  0  0
  -16.6519   16.5098  -24.6118 C   0  0  0  0  0  0  0  0  0  0  0  0
  -16.2856   16.6045  -26.0082 N   0  0  0  0  0  0  0  0  0  0  0  0
  -16.8479   17.2176  -26.6368 H   0  0  0  0  0  0  0  0  0  0  0  0
  -14.0029   15.5784  -25.8590 N   0  0  0  0  0  0  0  0  0  0  0  0
  -15.1949   15.8902  -26.5667 C   0  0  0  0  0  0  0  0  0  0  0  0
  -15.3039   15.5028  -27.7880 N   0  0  0  0  0  0  0  0  0  0  0  0
  -13.2296   16.2431  -25.7986 H   0  0  0  0  0  0  0  0  0  0  0  0
  -13.8734   14.6548  -25.3719 H   0  0  0  0  0  0  0  0  0  0  0  0
  -14.5795   14.9670  -28.3210 H   0  0  0  0  0  0  0  0  0  0  0  0
 58 59  1  0  0  0
 59 60  2  0  0  0
 59 56  1  0  0  0
 56 55  1  0  0  0
 55 54  1  0  0  0
 54 53  1  0  0  0
 53  1  1  0  0  0
  1  2  1  0  0  0
  2  3  1  0  0  0
  3  4  2  0  0  0
  3  6  1  0  0  0
  6 19  1  0  0  0
 19 20  1  0  0  0
 20 21  1  0  0  0
 21 22  1  0  0  0
 21 23  2  0  0  0
  6  7  1  0  0  0
  7  8  1  0  0  0
  8  9  2  0  0  0
  8 11  1  0  0  0
 11 12  1  0  0  0
 12 13  1  0  0  0
 13 14  2  0  0  0
 14 15  1  0  0  0
 15 16  2  0  0  0
 16 17  1  0  0  0
 17 18  2  0  0  0
  1 26  1  0  0  0
 26 27  2  0  0  0
 26 28  1  0  0  0
 28 30  1  0  0  0
 30 42  1  0  0  0
 42 43  1  0  0  0
 43 44  1  0  0  0
 44 45  1  0  0  0
 45 47  1  0  0  0
 47 48  1  0  0  0
 47 49  2  0  0  0
 30 31  1  0  0  0
 31 32  2  0  0  0
 31 33  1  0  0  0
 33 34  2  0  0  0
 34 35  1  0  0  0
 35 36  2  0  0  0
 36 37  1  0  0  0
 37 38  2  0  0  0
 38 39  1  0  0  0
 39 40  2  0  0  0
 40 41  1  0  0  0
 18 13  1  0  0  0
 41 33  1  0  0  0
 40 35  1  0  0  0
 58 61  1  0  0  0
 58 62  1  0  0  0
 60 63  1  0  0  0
 56 57  1  0  0  0
  2  5  1  0  0  0
 22 24  1  0  0  0
 22 25  1  0  0  0
  7 10  1  0  0  0
 28 29  1  0  0  0
 45 46  1  0  0  0
 48 50  1  0  0  0
 48 51  1  0  0  0
 49 52  1  0  0  0
M  END
> <minimizedAffinity>
-7.94009

> <CNNscore>
0.4098134339

> <CNNaffinity>
7.4549813271

> <CNN_VS>
3.0551514626

> <CNNaffinity_variance>
0.6531158686

$$$$
[H]N=C(N([H])[H])N([H])C([H])([H])C([H])([H])C([H])([H])[C@@]([H])(C(=O)c1nc2c([H])c([H])c([H])c([H])c2s1)N([H])C(=O)[C@@]([H])(N([H])C(=O)[C@@]([H])(N([H])C(=O)OC([H])([H])c1c([H])c([H])c([H])c([H])c1[H])C([H])([H])C([H])([H])C(=O)N([H])[H])C([H])([H])C([H])([H])C([H])([H])N([H])C(=N[H])N([H])[H]


 63 65  0  0  0  0  0  0  0  0999 V2000
  -20.9074   14.5021  -18.9352 C   0  0  0  0  0  0  0  0  0  0  0  0
  -19.4757   14.6488  -19.2014 N   0  0  0  0  0  0  0  0  0  0  0  0
  -18.9538   15.1226  -20.4142 C   0  0  0  0  0  0  0  0  0  0  0  0
  -19.7335   15.4256  -21.3402 O   0  0  0  0  0  0  0  0  0  0  0  0
  -18.8555   14.3651  -18.4100 H   0  0  0  0  0  0  0  0  0  0  0  0
  -17.5094   15.2666  -20.6083 C   0  0  0  0  0  0  0  0  0  0  0  0
  -17.0168   14.6283  -21.7891 N   0  0  0  0  0  0  0  0  0  0  0  0
  -17.0778   13.1994  -21.8660 C   0  0  0  0  0  0  0  0  0  0  0  0
  -17.5424   12.4975  -20.9400 O   0  0  0  0  0  0  0  0  0  0  0  0
  -16.6451   15.1816  -22.5860 H   0  0  0  0  0  0  0  0  0  0  0  0
  -16.6097   12.5736  -22.9997 O   0  0  0  0  0  0  0  0  0  0  0  0
  -17.0934   12.9000  -24.2891 C   0  0  0  0  0  0  0  0  0  0  0  0
  -16.2103   13.8205  -25.0220 C   0  0  0  0  0  0  0  0  0  0  0  0
  -16.6969   14.4486  -26.1590 C   0  0  0  0  0  0  0  0  0  0  0  0
  -15.9747   15.3293  -26.9150 C   0  0  0  0  0  0  0  0  0  0  0  0
  -14.6595   15.6415  -26.5522 C   0  0  0  0  0  0  0  0  0  0  0  0
  -14.1781   15.0150  -25.4218 C   0  0  0  0  0  0  0  0  0  0  0  0
  -14.9192   14.1304  -24.6705 C   0  0  0  0  0  0  0  0  0  0  0  0
  -17.0714   16.7117  -20.5390 C   0  0  0  0  0  0  0  0  0  0  0  0
  -16.4677   17.2982  -21.7392 C   0  0  0  0  0  0  0  0  0  0  0  0
  -17.3167   17.8288  -22.7872 C   0  0  0  0  0  0  0  0  0  0  0  0
  -17.0781   17.5609  -24.1483 N   0  0  0  0  0  0  0  0  0  0  0  0
  -18.3034   18.5465  -22.4947 O   0  0  0  0  0  0  0  0  0  0  0  0
  -17.7876   17.7010  -24.8888 H   0  0  0  0  0  0  0  0  0  0  0  0
  -16.1412   17.2028  -24.4294 H   0  0  0  0  0  0  0  0  0  0  0  0
  -21.5559   15.7847  -18.6975 C   0  0  0  0  0  0  0  0  0  0  0  0
  -22.0402   15.9414  -17.5084 O   0  0  0  0  0  0  0  0  0  0  0  0
  -21.7156   16.8517  -19.5795 N   0  0  0  0  0  0  0  0  0  0  0  0
  -21.3674   16.8442  -20.5360 H   0  0  0  0  0  0  0  0  0  0  0  0
  -22.4291   18.1050  -19.1549 C   0  0  0  0  0  0  0  0  0  0  0  0
  -23.6492   18.1028  -19.9420 C   0  0  0  0  0  0  0  0  0  0  0  0
  -24.7530   17.7961  -19.3268 O   0  0  0  0  0  0  0  0  0  0  0  0
  -23.7638   18.3806  -21.3603 C   0  0  0  0  0  0  0  0  0  0  0  0
  -23.7379   17.5620  -22.3894 N   0  0  0  0  0  0  0  0  0  0  0  0
  -23.6612   17.9963  -23.6044 C   0  0  0  0  0  0  0  0  0  0  0  0
  -23.6266   17.1936  -24.7666 C   0  0  0  0  0  0  0  0  0  0  0  0
  -23.5430   17.7854  -25.9846 C   0  0  0  0  0  0  0  0  0  0  0  0
  -23.4877   19.1381  -26.1920 C   0  0  0  0  0  0  0  0  0  0  0  0
  -23.5210   19.9327  -25.0681 C   0  0  0  0  0  0  0  0  0  0  0  0
  -23.6071   19.3555  -23.7907 C   0  0  0  0  0  0  0  0  0  0  0  0
  -23.6704   19.9134  -22.1886 S   0  0  0  0  0  0  0  0  0  0  0  0
  -21.6105   19.3076  -19.0668 C   0  0  0  0  0  0  0  0  0  0  0  0
  -20.1616   19.1523  -18.8768 C   0  0  0  0  0  0  0  0  0  0  0  0
  -18.9786   19.7905  -19.3367 C   0  0  0  0  0  0  0  0  0  0  0  0
  -18.8701   21.1841  -19.5717 N   0  0  0  0  0  0  0  0  0  0  0  0
  -18.7979   21.8497  -18.7594 H   0  0  0  0  0  0  0  0  0  0  0  0
  -18.8365   21.7351  -20.8761 C   0  0  0  0  0  0  0  0  0  0  0  0
  -18.0523   22.8920  -21.1460 N   0  0  0  0  0  0  0  0  0  0  0  0
  -19.4972   21.2206  -21.8270 N   0  0  0  0  0  0  0  0  0  0  0  0
  -18.5030   23.8128  -21.3623 H   0  0  0  0  0  0  0  0  0  0  0  0
  -17.0117   22.8910  -21.1441 H   0  0  0  0  0  0  0  0  0  0  0  0
  -20.0845   20.3738  -21.6717 H   0  0  0  0  0  0  0  0  0  0  0  0
  -20.9673   13.5976  -17.6920 C   0  0  0  0  0  0  0  0  0  0  0  0
  -19.5988   13.2074  -17.2624 C   0  0  0  0  0  0  0  0  0  0  0  0
  -19.4908   11.6844  -17.3888 C   0  0  0  0  0  0  0  0  0  0  0  0
  -18.5522   11.3299  -18.4311 N   0  0  0  0  0  0  0  0  0  0  0  0
  -18.4746   11.9437  -19.2703 H   0  0  0  0  0  0  0  0  0  0  0  0
  -16.7317    9.8545  -19.3230 N   0  0  0  0  0  0  0  0  0  0  0  0
  -17.7336   10.1732  -18.3671 C   0  0  0  0  0  0  0  0  0  0  0  0
  -17.9155    9.3729  -17.3772 N   0  0  0  0  0  0  0  0  0  0  0  0
  -16.9576    9.3574  -20.1863 H   0  0  0  0  0  0  0  0  0  0  0  0
  -15.7237   10.1187  -19.1779 H   0  0  0  0  0  0  0  0  0  0  0  0
  -17.3820    8.4885  -17.2066 H   0  0  0  0  0  0  0  0  0  0  0  0
 58 59  1  0  0  0
 59 60  2  0  0  0
 59 56  1  0  0  0
 56 55  1  0  0  0
 55 54  1  0  0  0
 54 53  1  0  0  0
 53  1  1  0  0  0
  1  2  1  0  0  0
  2  3  1  0  0  0
  3  4  2  0  0  0
  3  6  1  0  0  0
  6 19  1  0  0  0
 19 20  1  0  0  0
 20 21  1  0  0  0
 21 22  1  0  0  0
 21 23  2  0  0  0
  6  7  1  0  0  0
  7  8  1  0  0  0
  8  9  2  0  0  0
  8 11  1  0  0  0
 11 12  1  0  0  0
 12 13  1  0  0  0
 13 14  2  0  0  0
 14 15  1  0  0  0
 15 16  2  0  0  0
 16 17  1  0  0  0
 17 18  2  0  0  0
  1 26  1  0  0  0
 26 27  2  0  0  0
 26 28  1  0  0  0
 28 30  1  0  0  0
 30 42  1  0  0  0
 42 43  1  0  0  0
 43 44  1  0  0  0
 44 45  1  0  0  0
 45 47  1  0  0  0
 47 48  1  0  0  0
 47 49  2  0  0  0
 30 31  1  0  0  0
 31 32  2  0  0  0
 31 33  1  0  0  0
 33 34  2  0  0  0
 34 35  1  0  0  0
 35 36  2  0  0  0
 36 37  1  0  0  0
 37 38  2  0  0  0
 38 39  1  0  0  0
 39 40  2  0  0  0
 40 41  1  0  0  0
 18 13  1  0  0  0
 41 33  1  0  0  0
 40 35  1  0  0  0
 58 61  1  0  0  0
 58 62  1  0  0  0
 60 63  1  0  0  0
 56 57  1  0  0  0
  2  5  1  0  0  0
 22 24  1  0  0  0
 22 25  1  0  0  0
  7 10  1  0  0  0
 28 29  1  0  0  0
 45 46  1  0  0  0
 48 50  1  0  0  0
 48 51  1  0  0  0
 49 52  1  0  0  0
M  END
> <minimizedAffinity>
-8.11847

> <CNNscore>
0.3786332011

> <CNNaffinity>
7.4754600525

> <CNN_VS>
2.8304574490

> <CNNaffinity_variance>
0.4731240869

$$$$
[H]N=C(N([H])[H])N([H])C([H])([H])C([H])([H])C([H])([H])[C@@]([H])(C(=O)c1nc2c([H])c([H])c([H])c([H])c2s1)N([H])C(=O)[C@@]([H])(N([H])C(=O)[C@@]([H])(N([H])C(=O)OC([H])([H])c1c([H])c([H])c([H])c([H])c1[H])C([H])([H])C([H])([H])C(=O)N([H])[H])C([H])([H])C([H])([H])C([H])([H])N([H])C(=N[H])N([H])[H]


 63 65  0  0  0  0  0  0  0  0999 V2000
  -19.5017   16.2104  -20.9055 C   0  0  0  0  0  0  0  0  0  0  0  0
  -19.1378   14.7969  -21.0147 N   0  0  0  0  0  0  0  0  0  0  0  0
  -18.2396   14.1551  -20.1492 C   0  0  0  0  0  0  0  0  0  0  0  0
  -17.6932   14.8094  -19.2378 O   0  0  0  0  0  0  0  0  0  0  0  0
  -19.5996   14.2892  -21.8024 H   0  0  0  0  0  0  0  0  0  0  0  0
  -17.9352   12.7306  -20.2997 C   0  0  0  0  0  0  0  0  0  0  0  0
  -16.8379   12.4620  -21.1762 N   0  0  0  0  0  0  0  0  0  0  0  0
  -17.0158   12.6902  -22.5789 C   0  0  0  0  0  0  0  0  0  0  0  0
  -18.0922   13.1117  -23.0581 O   0  0  0  0  0  0  0  0  0  0  0  0
  -15.9232   12.1326  -20.8097 H   0  0  0  0  0  0  0  0  0  0  0  0
  -15.9650   12.4385  -23.4323 O   0  0  0  0  0  0  0  0  0  0  0  0
  -14.9374   13.3859  -23.6547 C   0  0  0  0  0  0  0  0  0  0  0  0
  -15.1173   14.1531  -24.8971 C   0  0  0  0  0  0  0  0  0  0  0  0
  -16.2424   13.9136  -25.6722 C   0  0  0  0  0  0  0  0  0  0  0  0
  -16.5214   14.5694  -26.8388 C   0  0  0  0  0  0  0  0  0  0  0  0
  -15.6417   15.5489  -27.3135 C   0  0  0  0  0  0  0  0  0  0  0  0
  -14.5237   15.7844  -26.5412 C   0  0  0  0  0  0  0  0  0  0  0  0
  -14.2573   15.1152  -25.3675 C   0  0  0  0  0  0  0  0  0  0  0  0
  -17.7538   12.0474  -18.9636 C   0  0  0  0  0  0  0  0  0  0  0  0
  -18.9595   11.7269  -18.1937 C   0  0  0  0  0  0  0  0  0  0  0  0
  -19.0673   10.4465  -17.5232 C   0  0  0  0  0  0  0  0  0  0  0  0
  -18.0787    9.4526  -17.6493 N   0  0  0  0  0  0  0  0  0  0  0  0
  -20.0609   10.1972  -16.7988 O   0  0  0  0  0  0  0  0  0  0  0  0
  -17.9926    8.6500  -17.0012 H   0  0  0  0  0  0  0  0  0  0  0  0
  -17.3963    9.5243  -18.4329 H   0  0  0  0  0  0  0  0  0  0  0  0
  -20.8499   16.3916  -20.3846 C   0  0  0  0  0  0  0  0  0  0  0  0
  -21.4320   15.3086  -19.9829 O   0  0  0  0  0  0  0  0  0  0  0  0
  -21.5812   17.5718  -20.2644 N   0  0  0  0  0  0  0  0  0  0  0  0
  -21.2215   18.4836  -20.5392 H   0  0  0  0  0  0  0  0  0  0  0  0
  -22.9774   17.5623  -19.7070 C   0  0  0  0  0  0  0  0  0  0  0  0
  -23.7630   18.2650  -20.7057 C   0  0  0  0  0  0  0  0  0  0  0  0
  -24.7959   18.9345  -20.2864 O   0  0  0  0  0  0  0  0  0  0  0  0
  -23.5322   18.2756  -22.1369 C   0  0  0  0  0  0  0  0  0  0  0  0
  -23.2114   19.2693  -22.9366 N   0  0  0  0  0  0  0  0  0  0  0  0
  -23.2309   19.1429  -24.2229 C   0  0  0  0  0  0  0  0  0  0  0  0
  -22.9046   20.1525  -25.1558 C   0  0  0  0  0  0  0  0  0  0  0  0
  -22.9699   19.8811  -26.4835 C   0  0  0  0  0  0  0  0  0  0  0  0
  -23.3366   18.6734  -27.0153 C   0  0  0  0  0  0  0  0  0  0  0  0
  -23.6569   17.6799  -26.1175 C   0  0  0  0  0  0  0  0  0  0  0  0
  -23.6009   17.9242  -24.7357 C   0  0  0  0  0  0  0  0  0  0  0  0
  -23.8971   17.0422  -23.3158 S   0  0  0  0  0  0  0  0  0  0  0  0
  -23.1041   17.9027  -18.2956 C   0  0  0  0  0  0  0  0  0  0  0  0
  -22.1330   18.8401  -17.7145 C   0  0  0  0  0  0  0  0  0  0  0  0
  -20.8934   18.7583  -17.0253 C   0  0  0  0  0  0  0  0  0  0  0  0
  -19.9397   17.7298  -17.2293 N   0  0  0  0  0  0  0  0  0  0  0  0
  -19.4609   17.6349  -18.1619 H   0  0  0  0  0  0  0  0  0  0  0  0
  -19.5794   16.8137  -16.2109 C   0  0  0  0  0  0  0  0  0  0  0  0
  -19.1437   15.5012  -16.5481 N   0  0  0  0  0  0  0  0  0  0  0  0
  -19.6360   17.1329  -14.9860 N   0  0  0  0  0  0  0  0  0  0  0  0
  -19.7344   14.6630  -16.3328 H   0  0  0  0  0  0  0  0  0  0  0  0
  -18.2361   15.3024  -17.0167 H   0  0  0  0  0  0  0  0  0  0  0  0
  -19.9503   18.0834  -14.6963 H   0  0  0  0  0  0  0  0  0  0  0  0
  -19.3731   16.7432  -22.3432 C   0  0  0  0  0  0  0  0  0  0  0  0
  -18.2905   17.7581  -22.4303 C   0  0  0  0  0  0  0  0  0  0  0  0
  -17.7708   18.0034  -21.0102 C   0  0  0  0  0  0  0  0  0  0  0  0
  -17.7940   19.4166  -20.7014 N   0  0  0  0  0  0  0  0  0  0  0  0
  -16.9854   19.8354  -20.1936 H   0  0  0  0  0  0  0  0  0  0  0  0
  -18.8088   21.2681  -22.0537 N   0  0  0  0  0  0  0  0  0  0  0  0
  -18.8774   20.2622  -21.0524 C   0  0  0  0  0  0  0  0  0  0  0  0
  -19.9859   20.0971  -20.4219 N   0  0  0  0  0  0  0  0  0  0  0  0
  -18.4550   22.2036  -21.8460 H   0  0  0  0  0  0  0  0  0  0  0  0
  -19.1179   21.0869  -23.0429 H   0  0  0  0  0  0  0  0  0  0  0  0
  -20.8620   20.6476  -20.5815 H   0  0  0  0  0  0  0  0  0  0  0  0
 58 59  1  0  0  0
 59 60  2  0  0  0
 59 56  1  0  0  0
 56 55  1  0  0  0
 55 54  1  0  0  0
 54 53  1  0  0  0
 53  1  1  0  0  0
  1  2  1  0  0  0
  2  3  1  0  0  0
  3  4  2  0  0  0
  3  6  1  0  0  0
  6 19  1  0  0  0
 19 20  1  0  0  0
 20 21  1  0  0  0
 21 22  1  0  0  0
 21 23  2  0  0  0
  6  7  1  0  0  0
  7  8  1  0  0  0
  8  9  2  0  0  0
  8 11  1  0  0  0
 11 12  1  0  0  0
 12 13  1  0  0  0
 13 14  2  0  0  0
 14 15  1  0  0  0
 15 16  2  0  0  0
 16 17  1  0  0  0
 17 18  2  0  0  0
  1 26  1  0  0  0
 26 27  2  0  0  0
 26 28  1  0  0  0
 28 30  1  0  0  0
 30 42  1  0  0  0
 42 43  1  0  0  0
 43 44  1  0  0  0
 44 45  1  0  0  0
 45 47  1  0  0  0
 47 48  1  0  0  0
 47 49  2  0  0  0
 30 31  1  0  0  0
 31 32  2  0  0  0
 31 33  1  0  0  0
 33 34  2  0  0  0
 34 35  1  0  0  0
 35 36  2  0  0  0
 36 37  1  0  0  0
 37 38  2  0  0  0
 38 39  1  0  0  0
 39 40  2  0  0  0
 40 41  1  0  0  0
 18 13  1  0  0  0
 41 33  1  0  0  0
 40 35  1  0  0  0
 58 61  1  0  0  0
 58 62  1  0  0  0
 60 63  1  0  0  0
 56 57  1  0  0  0
  2  5  1  0  0  0
 22 24  1  0  0  0
 22 25  1  0  0  0
  7 10  1  0  0  0
 28 29  1  0  0  0
 45 46  1  0  0  0
 48 50  1  0  0  0
 48 51  1  0  0  0
 49 52  1  0  0  0
M  END
> <minimizedAffinity>
-7.79583

> <CNNscore>
0.3709148169

> <CNNaffinity>
7.3020734787

> <CNN_VS>
2.7084472179

> <CNNaffinity_variance>
0.7686253786

$$$$
[H]N=C(N([H])[H])N([H])C([H])([H])C([H])([H])C([H])([H])[C@@]([H])(C(=O)c1nc2c([H])c([H])c([H])c([H])c2s1)N([H])C(=O)[C@@]([H])(N([H])C(=O)[C@@]([H])(N([H])C(=O)OC([H])([H])c1c([H])c([H])c([H])c([H])c1[H])C([H])([H])C([H])([H])C(=O)N([H])[H])C([H])([H])C([H])([H])C([H])([H])N([H])C(=N[H])N([H])[H]


 63 65  0  0  0  0  0  0  0  0999 V2000
  -19.3338   16.6251  -21.7274 C   0  0  0  0  0  0  0  0  0  0  0  0
  -18.8176   15.3164  -22.1312 N   0  0  0  0  0  0  0  0  0  0  0  0
  -17.4726   14.9378  -22.0068 C   0  0  0  0  0  0  0  0  0  0  0  0
  -16.6470   15.7517  -21.5452 O   0  0  0  0  0  0  0  0  0  0  0  0
  -19.5350   14.6714  -22.5322 H   0  0  0  0  0  0  0  0  0  0  0  0
  -17.0249   13.6030  -22.4099 C   0  0  0  0  0  0  0  0  0  0  0  0
  -17.5561   12.5463  -21.6064 N   0  0  0  0  0  0  0  0  0  0  0  0
  -16.7564   11.3748  -21.4076 C   0  0  0  0  0  0  0  0  0  0  0  0
  -15.6184   11.2466  -21.9120 O   0  0  0  0  0  0  0  0  0  0  0  0
  -18.4879   12.6289  -21.1544 H   0  0  0  0  0  0  0  0  0  0  0  0
  -17.2560   10.3520  -20.6328 O   0  0  0  0  0  0  0  0  0  0  0  0
  -16.8593   10.1701  -19.2865 C   0  0  0  0  0  0  0  0  0  0  0  0
  -17.9678   10.3231  -18.3314 C   0  0  0  0  0  0  0  0  0  0  0  0
  -18.6096   11.5497  -18.2450 C   0  0  0  0  0  0  0  0  0  0  0  0
  -19.6558   11.8082  -17.4039 C   0  0  0  0  0  0  0  0  0  0  0  0
  -20.1370   10.7989  -16.5622 C   0  0  0  0  0  0  0  0  0  0  0  0
  -19.4965    9.5807  -16.6497 C   0  0  0  0  0  0  0  0  0  0  0  0
  -18.4439    9.3362  -17.5032 C   0  0  0  0  0  0  0  0  0  0  0  0
  -17.2602   13.3487  -23.8813 C   0  0  0  0  0  0  0  0  0  0  0  0
  -16.2280   13.7933  -24.8225 C   0  0  0  0  0  0  0  0  0  0  0  0
  -16.5079   14.8818  -25.7376 C   0  0  0  0  0  0  0  0  0  0  0  0
  -16.4957   14.7048  -27.1339 N   0  0  0  0  0  0  0  0  0  0  0  0
  -16.7772   16.0239  -25.2933 O   0  0  0  0  0  0  0  0  0  0  0  0
  -16.9306   15.3712  -27.7959 H   0  0  0  0  0  0  0  0  0  0  0  0
  -16.0264   13.8615  -27.5257 H   0  0  0  0  0  0  0  0  0  0  0  0
  -20.4188   16.5132  -20.7618 C   0  0  0  0  0  0  0  0  0  0  0  0
  -20.6926   15.3072  -20.3829 O   0  0  0  0  0  0  0  0  0  0  0  0
  -21.1877   17.5309  -20.2005 N   0  0  0  0  0  0  0  0  0  0  0  0
  -21.0555   18.5167  -20.4171 H   0  0  0  0  0  0  0  0  0  0  0  0
  -22.2825   17.2200  -19.2182 C   0  0  0  0  0  0  0  0  0  0  0  0
  -23.4886   17.7032  -19.8664 C   0  0  0  0  0  0  0  0  0  0  0  0
  -24.5722   17.7474  -19.1489 O   0  0  0  0  0  0  0  0  0  0  0  0
  -23.6202   18.1181  -21.2493 C   0  0  0  0  0  0  0  0  0  0  0  0
  -23.6151   17.4030  -22.3531 N   0  0  0  0  0  0  0  0  0  0  0  0
  -23.5513   17.9527  -23.5213 C   0  0  0  0  0  0  0  0  0  0  0  0
  -23.5392   17.2663  -24.7562 C   0  0  0  0  0  0  0  0  0  0  0  0
  -23.4673   17.9729  -25.9121 C   0  0  0  0  0  0  0  0  0  0  0  0
  -23.4036   19.3389  -25.9883 C   0  0  0  0  0  0  0  0  0  0  0  0
  -23.4151   20.0209  -24.7923 C   0  0  0  0  0  0  0  0  0  0  0  0
  -23.4885   19.3231  -23.5758 C   0  0  0  0  0  0  0  0  0  0  0  0
  -23.5254   19.7234  -21.9265 S   0  0  0  0  0  0  0  0  0  0  0  0
  -22.0074   17.5566  -17.8272 C   0  0  0  0  0  0  0  0  0  0  0  0
  -21.8776   16.4604  -16.8571 C   0  0  0  0  0  0  0  0  0  0  0  0
  -21.0347   15.3323  -16.6698 C   0  0  0  0  0  0  0  0  0  0  0  0
  -19.6426   15.4166  -16.4166 N   0  0  0  0  0  0  0  0  0  0  0  0
  -19.2556   15.0872  -15.4948 H   0  0  0  0  0  0  0  0  0  0  0  0
  -18.7248   15.9180  -17.3718 C   0  0  0  0  0  0  0  0  0  0  0  0
  -18.2806   15.0916  -18.4423 N   0  0  0  0  0  0  0  0  0  0  0  0
  -18.2777   17.1013  -17.2996 N   0  0  0  0  0  0  0  0  0  0  0  0
  -17.2924   14.7460  -18.4850 H   0  0  0  0  0  0  0  0  0  0  0  0
  -18.8959   14.7899  -19.2254 H   0  0  0  0  0  0  0  0  0  0  0  0
  -18.5769   17.7387  -16.5311 H   0  0  0  0  0  0  0  0  0  0  0  0
  -19.8102   17.2632  -23.0439 C   0  0  0  0  0  0  0  0  0  0  0  0
  -19.6602   18.7413  -22.9933 C   0  0  0  0  0  0  0  0  0  0  0  0
  -18.2174   19.0460  -22.5777 C   0  0  0  0  0  0  0  0  0  0  0  0
  -18.1961   19.7897  -21.3370 N   0  0  0  0  0  0  0  0  0  0  0  0
  -18.4628   20.7976  -21.3482 H   0  0  0  0  0  0  0  0  0  0  0  0
  -16.6943   18.3553  -19.9321 N   0  0  0  0  0  0  0  0  0  0  0  0
  -17.8178   19.2090  -20.0993 C   0  0  0  0  0  0  0  0  0  0  0  0
  -18.5410   19.4816  -19.0717 N   0  0  0  0  0  0  0  0  0  0  0  0
  -16.7557   17.3519  -20.1136 H   0  0  0  0  0  0  0  0  0  0  0  0
  -15.7605   18.7239  -19.6172 H   0  0  0  0  0  0  0  0  0  0  0  0
  -18.3750   19.1248  -18.1016 H   0  0  0  0  0  0  0  0  0  0  0  0
 58 59  1  0  0  0
 59 60  2  0  0  0
 59 56  1  0  0  0
 56 55  1  0  0  0
 55 54  1  0  0  0
 54 53  1  0  0  0
 53  1  1  0  0  0
  1  2  1  0  0  0
  2  3  1  0  0  0
  3  4  2  0  0  0
  3  6  1  0  0  0
  6 19  1  0  0  0
 19 20  1  0  0  0
 20 21  1  0  0  0
 21 22  1  0  0  0
 21 23  2  0  0  0
  6  7  1  0  0  0
  7  8  1  0  0  0
  8  9  2  0  0  0
  8 11  1  0  0  0
 11 12  1  0  0  0
 12 13  1  0  0  0
 13 14  2  0  0  0
 14 15  1  0  0  0
 15 16  2  0  0  0
 16 17  1  0  0  0
 17 18  2  0  0  0
  1 26  1  0  0  0
 26 27  2  0  0  0
 26 28  1  0  0  0
 28 30  1  0  0  0
 30 42  1  0  0  0
 42 43  1  0  0  0
 43 44  1  0  0  0
 44 45  1  0  0  0
 45 47  1  0  0  0
 47 48  1  0  0  0
 47 49  2  0  0  0
 30 31  1  0  0  0
 31 32  2  0  0  0
 31 33  1  0  0  0
 33 34  2  0  0  0
 34 35  1  0  0  0
 35 36  2  0  0  0
 36 37  1  0  0  0
 37 38  2  0  0  0
 38 39  1  0  0  0
 39 40  2  0  0  0
 40 41  1  0  0  0
 18 13  1  0  0  0
 41 33  1  0  0  0
 40 35  1  0  0  0
 58 61  1  0  0  0
 58 62  1  0  0  0
 60 63  1  0  0  0
 56 57  1  0  0  0
  2  5  1  0  0  0
 22 24  1  0  0  0
 22 25  1  0  0  0
  7 10  1  0  0  0
 28 29  1  0  0  0
 45 46  1  0  0  0
 48 50  1  0  0  0
 48 51  1  0  0  0
 49 52  1  0  0  0
M  END
> <minimizedAffinity>
-7.96952

> <CNNscore>
0.3398039341

> <CNNaffinity>
7.1863851547

> <CNN_VS>
2.4419620037

> <CNNaffinity_variance>
0.8546396494

$$$$
[H]N=C(N([H])[H])N([H])C([H])([H])C([H])([H])C([H])([H])[C@@]([H])(C(=O)c1nc2c([H])c([H])c([H])c([H])c2s1)N([H])C(=O)[C@@]([H])(N([H])C(=O)[C@@]([H])(N([H])C(=O)OC([H])([H])c1c([H])c([H])c([H])c([H])c1[H])C([H])([H])C([H])([H])C(=O)N([H])[H])C([H])([H])C([H])([H])C([H])([H])N([H])C(=N[H])N([H])[H]


 63 65  0  0  0  0  0  0  0  0999 V2000
  -18.5709   17.6233  -21.3951 C   0  0  0  0  0  0  0  0  0  0  0  0
  -19.9641   17.9797  -21.6679 N   0  0  0  0  0  0  0  0  0  0  0  0
  -20.4354   18.3679  -22.9308 C   0  0  0  0  0  0  0  0  0  0  0  0
  -19.6376   18.4385  -23.8877 O   0  0  0  0  0  0  0  0  0  0  0  0
  -20.5960   17.9286  -20.8375 H   0  0  0  0  0  0  0  0  0  0  0  0
  -21.8483   18.6905  -23.1415 C   0  0  0  0  0  0  0  0  0  0  0  0
  -22.6213   18.7211  -21.9391 N   0  0  0  0  0  0  0  0  0  0  0  0
  -23.7764   17.8788  -21.8511 C   0  0  0  0  0  0  0  0  0  0  0  0
  -24.1289   17.1249  -22.7857 O   0  0  0  0  0  0  0  0  0  0  0  0
  -22.3447   19.3185  -21.1353 H   0  0  0  0  0  0  0  0  0  0  0  0
  -24.5267   17.8971  -20.6967 O   0  0  0  0  0  0  0  0  0  0  0  0
  -24.0350   18.4554  -19.4928 C   0  0  0  0  0  0  0  0  0  0  0  0
  -23.3221   17.4807  -18.6524 C   0  0  0  0  0  0  0  0  0  0  0  0
  -23.8747   17.1218  -17.4318 C   0  0  0  0  0  0  0  0  0  0  0  0
  -23.3104   16.2215  -16.5716 C   0  0  0  0  0  0  0  0  0  0  0  0
  -22.1005   15.6033  -16.9074 C   0  0  0  0  0  0  0  0  0  0  0  0
  -21.5531   15.9626  -18.1211 C   0  0  0  0  0  0  0  0  0  0  0  0
  -22.1348   16.8711  -18.9769 C   0  0  0  0  0  0  0  0  0  0  0  0
  -22.0244   19.9602  -23.9428 C   0  0  0  0  0  0  0  0  0  0  0  0
  -22.5909   19.8420  -25.2897 C   0  0  0  0  0  0  0  0  0  0  0  0
  -23.8439   19.1402  -25.4854 C   0  0  0  0  0  0  0  0  0  0  0  0
  -23.8892   17.7806  -25.8469 N   0  0  0  0  0  0  0  0  0  0  0  0
  -24.9334   19.7421  -25.3277 O   0  0  0  0  0  0  0  0  0  0  0  0
  -24.7353   17.1929  -25.7462 H   0  0  0  0  0  0  0  0  0  0  0  0
  -23.0298   17.3389  -26.2356 H   0  0  0  0  0  0  0  0  0  0  0  0
  -18.4436   16.2734  -20.8628 C   0  0  0  0  0  0  0  0  0  0  0  0
  -18.1828   16.2059  -19.5977 O   0  0  0  0  0  0  0  0  0  0  0  0
  -18.5684   15.0604  -21.5375 N   0  0  0  0  0  0  0  0  0  0  0  0
  -18.7812   14.9916  -22.5305 H   0  0  0  0  0  0  0  0  0  0  0  0
  -18.3916   13.7533  -20.8161 C   0  0  0  0  0  0  0  0  0  0  0  0
  -17.5973   12.9494  -21.7279 C   0  0  0  0  0  0  0  0  0  0  0  0
  -17.3371   11.7267  -21.3699 O   0  0  0  0  0  0  0  0  0  0  0  0
  -17.0344   13.3787  -22.9930 C   0  0  0  0  0  0  0  0  0  0  0  0
  -16.0077   14.1622  -23.2418 N   0  0  0  0  0  0  0  0  0  0  0  0
  -15.7559   14.5987  -24.4322 C   0  0  0  0  0  0  0  0  0  0  0  0
  -14.6807   15.4421  -24.7910 C   0  0  0  0  0  0  0  0  0  0  0  0
  -14.5362   15.8263  -26.0841 C   0  0  0  0  0  0  0  0  0  0  0  0
  -15.3697   15.4550  -27.1055 C   0  0  0  0  0  0  0  0  0  0  0  0
  -16.4218   14.6326  -26.7703 C   0  0  0  0  0  0  0  0  0  0  0  0
  -16.6031   14.2146  -25.4420 C   0  0  0  0  0  0  0  0  0  0  0  0
  -17.7106   13.2453  -24.5959 S   0  0  0  0  0  0  0  0  0  0  0  0
  -19.5881   13.1991  -20.1954 C   0  0  0  0  0  0  0  0  0  0  0  0
  -19.6010   13.0280  -18.7359 C   0  0  0  0  0  0  0  0  0  0  0  0
  -18.9870   12.1702  -17.7843 C   0  0  0  0  0  0  0  0  0  0  0  0
  -19.2443   10.7796  -17.6888 N   0  0  0  0  0  0  0  0  0  0  0  0
  -20.2218   10.4382  -17.4990 H   0  0  0  0  0  0  0  0  0  0  0  0
  -18.2302    9.8052  -17.8569 C   0  0  0  0  0  0  0  0  0  0  0  0
  -18.1478    8.6953  -16.9694 N   0  0  0  0  0  0  0  0  0  0  0  0
  -17.3775    9.8944  -18.7898 N   0  0  0  0  0  0  0  0  0  0  0  0
  -17.3575    8.6054  -16.2874 H   0  0  0  0  0  0  0  0  0  0  0  0
  -18.8501    7.9278  -16.9465 H   0  0  0  0  0  0  0  0  0  0  0  0
  -17.4021   10.6916  -19.4607 H   0  0  0  0  0  0  0  0  0  0  0  0
  -18.1055   18.6799  -20.3781 C   0  0  0  0  0  0  0  0  0  0  0  0
  -19.0571   19.8211  -20.3366 C   0  0  0  0  0  0  0  0  0  0  0  0
  -19.5867   19.9300  -18.9031 C   0  0  0  0  0  0  0  0  0  0  0  0
  -18.9999   18.9039  -18.0691 N   0  0  0  0  0  0  0  0  0  0  0  0
  -18.2280   18.3194  -18.4560 H   0  0  0  0  0  0  0  0  0  0  0  0
  -18.6505   17.9848  -15.7626 N   0  0  0  0  0  0  0  0  0  0  0  0
  -19.4354   18.6489  -16.7434 C   0  0  0  0  0  0  0  0  0  0  0  0
  -20.6130   19.0509  -16.4193 N   0  0  0  0  0  0  0  0  0  0  0  0
  -18.6279   16.9656  -15.6987 H   0  0  0  0  0  0  0  0  0  0  0  0
  -18.0647   18.5164  -15.0690 H   0  0  0  0  0  0  0  0  0  0  0  0
  -21.0569   18.9316  -15.4787 H   0  0  0  0  0  0  0  0  0  0  0  0
 58 59  1  0  0  0
 59 60  2  0  0  0
 59 56  1  0  0  0
 56 55  1  0  0  0
 55 54  1  0  0  0
 54 53  1  0  0  0
 53  1  1  0  0  0
  1  2  1  0  0  0
  2  3  1  0  0  0
  3  4  2  0  0  0
  3  6  1  0  0  0
  6 19  1  0  0  0
 19 20  1  0  0  0
 20 21  1  0  0  0
 21 22  1  0  0  0
 21 23  2  0  0  0
  6  7  1  0  0  0
  7  8  1  0  0  0
  8  9  2  0  0  0
  8 11  1  0  0  0
 11 12  1  0  0  0
 12 13  1  0  0  0
 13 14  2  0  0  0
 14 15  1  0  0  0
 15 16  2  0  0  0
 16 17  1  0  0  0
 17 18  2  0  0  0
  1 26  1  0  0  0
 26 27  2  0  0  0
 26 28  1  0  0  0
 28 30  1  0  0  0
 30 42  1  0  0  0
 42 43  1  0  0  0
 43 44  1  0  0  0
 44 45  1  0  0  0
 45 47  1  0  0  0
 47 48  1  0  0  0
 47 49  2  0  0  0
 30 31  1  0  0  0
 31 32  2  0  0  0
 31 33  1  0  0  0
 33 34  2  0  0  0
 34 35  1  0  0  0
 35 36  2  0  0  0
 36 37  1  0  0  0
 37 38  2  0  0  0
 38 39  1  0  0  0
 39 40  2  0  0  0
 40 41  1  0  0  0
 18 13  1  0  0  0
 41 33  1  0  0  0
 40 35  1  0  0  0
 58 61  1  0  0  0
 58 62  1  0  0  0
 60 63  1  0  0  0
 56 57  1  0  0  0
  2  5  1  0  0  0
 22 24  1  0  0  0
 22 25  1  0  0  0
  7 10  1  0  0  0
 28 29  1  0  0  0
 45 46  1  0  0  0
 48 50  1  0  0  0
 48 51  1  0  0  0
 49 52  1  0  0  0
M  END
> <minimizedAffinity>
-7.97317

> <CNNscore>
0.3224977255

> <CNNaffinity>
7.3658318520

> <CNN_VS>
2.3754639626

> <CNNaffinity_variance>
0.7095500827

$$$$
[H]N=C(N([H])[H])N([H])C([H])([H])C([H])([H])C([H])([H])[C@@]([H])(C(=O)c1nc2c([H])c([H])c([H])c([H])c2s1)N([H])C(=O)[C@@]([H])(N([H])C(=O)[C@@]([H])(N([H])C(=O)OC([H])([H])c1c([H])c([H])c([H])c([H])c1[H])C([H])([H])C([H])([H])C(=O)N([H])[H])C([H])([H])C([H])([H])C([H])([H])N([H])C(=N[H])N([H])[H]


 63 65  0  0  0  0  0  0  0  0999 V2000
  -20.1432   15.3799  -20.7008 C   0  0  0  0  0  0  0  0  0  0  0  0
  -19.1489   16.3831  -21.0845 N   0  0  0  0  0  0  0  0  0  0  0  0
  -19.3521   17.3336  -22.0959 C   0  0  0  0  0  0  0  0  0  0  0  0
  -20.4262   17.3325  -22.7311 O   0  0  0  0  0  0  0  0  0  0  0  0
  -18.2557   16.3379  -20.5444 H   0  0  0  0  0  0  0  0  0  0  0  0
  -18.3233   18.3255  -22.4159 C   0  0  0  0  0  0  0  0  0  0  0  0
  -17.6077   18.0496  -23.6225 N   0  0  0  0  0  0  0  0  0  0  0  0
  -16.4026   17.2803  -23.5382 C   0  0  0  0  0  0  0  0  0  0  0  0
  -15.9585   16.8473  -22.4513 O   0  0  0  0  0  0  0  0  0  0  0  0
  -17.9597   18.3747  -24.5445 H   0  0  0  0  0  0  0  0  0  0  0  0
  -15.7067   17.0052  -24.6941 O   0  0  0  0  0  0  0  0  0  0  0  0
  -15.0355   15.7746  -24.8892 C   0  0  0  0  0  0  0  0  0  0  0  0
  -15.9389   14.6772  -25.2684 C   0  0  0  0  0  0  0  0  0  0  0  0
  -16.3514   13.7842  -24.2904 C   0  0  0  0  0  0  0  0  0  0  0  0
  -17.1950   12.7335  -24.5205 C   0  0  0  0  0  0  0  0  0  0  0  0
  -17.6939   12.5116  -25.8091 C   0  0  0  0  0  0  0  0  0  0  0  0
  -17.2816   13.4004  -26.7796 C   0  0  0  0  0  0  0  0  0  0  0  0
  -16.4314   14.4549  -26.5312 C   0  0  0  0  0  0  0  0  0  0  0  0
  -18.8748   19.7330  -22.4112 C   0  0  0  0  0  0  0  0  0  0  0  0
  -19.6678   20.1572  -23.5689 C   0  0  0  0  0  0  0  0  0  0  0  0
  -19.4618   21.4731  -24.1403 C   0  0  0  0  0  0  0  0  0  0  0  0
  -19.2460   22.6095  -23.3383 N   0  0  0  0  0  0  0  0  0  0  0  0
  -19.4667   21.6262  -25.3856 O   0  0  0  0  0  0  0  0  0  0  0  0
  -18.8489   23.4943  -23.7001 H   0  0  0  0  0  0  0  0  0  0  0  0
  -19.4967   22.5622  -22.3285 H   0  0  0  0  0  0  0  0  0  0  0  0
  -21.1376   15.9161  -19.7813 C   0  0  0  0  0  0  0  0  0  0  0  0
  -21.5767   15.0777  -18.8996 O   0  0  0  0  0  0  0  0  0  0  0  0
  -21.6669   17.2043  -19.7319 N   0  0  0  0  0  0  0  0  0  0  0  0
  -21.3892   17.9483  -20.3688 H   0  0  0  0  0  0  0  0  0  0  0  0
  -22.7033   17.5752  -18.7080 C   0  0  0  0  0  0  0  0  0  0  0  0
  -23.8777   17.9055  -19.4954 C   0  0  0  0  0  0  0  0  0  0  0  0
  -25.0349   17.7917  -18.9132 O   0  0  0  0  0  0  0  0  0  0  0  0
  -23.8985   18.3247  -20.8830 C   0  0  0  0  0  0  0  0  0  0  0  0
  -23.8989   17.6074  -21.9854 N   0  0  0  0  0  0  0  0  0  0  0  0
  -23.7248   18.1444  -23.1483 C   0  0  0  0  0  0  0  0  0  0  0  0
  -23.7086   17.4545  -24.3812 C   0  0  0  0  0  0  0  0  0  0  0  0
  -23.5131   18.1471  -25.5313 C   0  0  0  0  0  0  0  0  0  0  0  0
  -23.3241   19.5016  -25.6031 C   0  0  0  0  0  0  0  0  0  0  0  0
  -23.3379   20.1869  -24.4091 C   0  0  0  0  0  0  0  0  0  0  0  0
  -23.5374   19.5035  -23.1986 C   0  0  0  0  0  0  0  0  0  0  0  0
  -23.6256   19.9123  -21.5533 S   0  0  0  0  0  0  0  0  0  0  0  0
  -22.2580   18.4616  -17.6403 C   0  0  0  0  0  0  0  0  0  0  0  0
  -20.9146   18.2586  -17.0803 C   0  0  0  0  0  0  0  0  0  0  0  0
  -20.3005   17.3867  -16.1416 C   0  0  0  0  0  0  0  0  0  0  0  0
  -20.0424   16.0146  -16.3857 N   0  0  0  0  0  0  0  0  0  0  0  0
  -20.8104   15.3055  -16.2616 H   0  0  0  0  0  0  0  0  0  0  0  0
  -18.7774   15.5432  -16.8144 C   0  0  0  0  0  0  0  0  0  0  0  0
  -17.9136   16.3893  -17.5655 N   0  0  0  0  0  0  0  0  0  0  0  0
  -18.3852   14.3687  -16.5460 N   0  0  0  0  0  0  0  0  0  0  0  0
  -17.7149   16.1993  -18.5765 H   0  0  0  0  0  0  0  0  0  0  0  0
  -17.4410   17.2251  -17.1645 H   0  0  0  0  0  0  0  0  0  0  0  0
  -18.9874   13.7170  -15.9991 H   0  0  0  0  0  0  0  0  0  0  0  0
  -19.3140   14.2598  -20.0489 C   0  0  0  0  0  0  0  0  0  0  0  0
  -18.5849   13.4791  -21.0825 C   0  0  0  0  0  0  0  0  0  0  0  0
  -17.4152   12.7729  -20.3895 C   0  0  0  0  0  0  0  0  0  0  0  0
  -17.1821   11.4767  -20.9883 N   0  0  0  0  0  0  0  0  0  0  0  0
  -17.4684   11.3194  -21.9784 H   0  0  0  0  0  0  0  0  0  0  0  0
  -17.0821    9.8820  -19.0561 N   0  0  0  0  0  0  0  0  0  0  0  0
  -16.5860   10.4002  -20.2826 C   0  0  0  0  0  0  0  0  0  0  0  0
  -15.5348    9.8659  -20.7953 N   0  0  0  0  0  0  0  0  0  0  0  0
  -16.8277   10.2996  -18.1593 H   0  0  0  0  0  0  0  0  0  0  0  0
  -17.7284    9.0522  -19.0264 H   0  0  0  0  0  0  0  0  0  0  0  0
  -14.9986    9.0665  -20.3836 H   0  0  0  0  0  0  0  0  0  0  0  0
 58 59  1  0  0  0
 59 60  2  0  0  0
 59 56  1  0  0  0
 56 55  1  0  0  0
 55 54  1  0  0  0
 54 53  1  0  0  0
 53  1  1  0  0  0
  1  2  1  0  0  0
  2  3  1  0  0  0
  3  4  2  0  0  0
  3  6  1  0  0  0
  6 19  1  0  0  0
 19 20  1  0  0  0
 20 21  1  0  0  0
 21 22  1  0  0  0
 21 23  2  0  0  0
  6  7  1  0  0  0
  7  8  1  0  0  0
  8  9  2  0  0  0
  8 11  1  0  0  0
 11 12  1  0  0  0
 12 13  1  0  0  0
 13 14  2  0  0  0
 14 15  1  0  0  0
 15 16  2  0  0  0
 16 17  1  0  0  0
 17 18  2  0  0  0
  1 26  1  0  0  0
 26 27  2  0  0  0
 26 28  1  0  0  0
 28 30  1  0  0  0
 30 42  1  0  0  0
 42 43  1  0  0  0
 43 44  1  0  0  0
 44 45  1  0  0  0
 45 47  1  0  0  0
 47 48  1  0  0  0
 47 49  2  0  0  0
 30 31  1  0  0  0
 31 32  2  0  0  0
 31 33  1  0  0  0
 33 34  2  0  0  0
 34 35  1  0  0  0
 35 36  2  0  0  0
 36 37  1  0  0  0
 37 38  2  0  0  0
 38 39  1  0  0  0
 39 40  2  0  0  0
 40 41  1  0  0  0
 18 13  1  0  0  0
 41 33  1  0  0  0
 40 35  1  0  0  0
 58 61  1  0  0  0
 58 62  1  0  0  0
 60 63  1  0  0  0
 56 57  1  0  0  0
  2  5  1  0  0  0
 22 24  1  0  0  0
 22 25  1  0  0  0
  7 10  1  0  0  0
 28 29  1  0  0  0
 45 46  1  0  0  0
 48 50  1  0  0  0
 48 51  1  0  0  0
 49 52  1  0  0  0
M  END
> <minimizedAffinity>
-8.25055

> <CNNscore>
0.3079199195

> <CNNaffinity>
7.3825173378

> <CNN_VS>
2.2732241154

> <CNNaffinity_variance>
0.4564085007

$$$$
[H]N=C(N([H])[H])N([H])C([H])([H])C([H])([H])C([H])([H])[C@@]([H])(C(=O)c1nc2c([H])c([H])c([H])c([H])c2s1)N([H])C(=O)[C@@]([H])(N([H])C(=O)[C@@]([H])(N([H])C(=O)OC([H])([H])c1c([H])c([H])c([H])c([H])c1[H])C([H])([H])C([H])([H])C(=O)N([H])[H])C([H])([H])C([H])([H])C([H])([H])N([H])C(=N[H])N([H])[H]


 63 65  0  0  0  0  0  0  0  0999 V2000
  -21.0679   13.7603  -15.9927 C   0  0  0  0  0  0  0  0  0  0  0  0
  -20.6152   13.5525  -17.3690 N   0  0  0  0  0  0  0  0  0  0  0  0
  -19.2797   13.6840  -17.7775 C   0  0  0  0  0  0  0  0  0  0  0  0
  -18.4130   14.0136  -16.9424 O   0  0  0  0  0  0  0  0  0  0  0  0
  -21.3731   13.2989  -18.0419 H   0  0  0  0  0  0  0  0  0  0  0  0
  -18.8892   13.4401  -19.1678 C   0  0  0  0  0  0  0  0  0  0  0  0
  -18.0113   14.4322  -19.7057 N   0  0  0  0  0  0  0  0  0  0  0  0
  -18.5671   15.4469  -20.5500 C   0  0  0  0  0  0  0  0  0  0  0  0
  -19.7857   15.4914  -20.8313 O   0  0  0  0  0  0  0  0  0  0  0  0
  -16.9984   14.4382  -19.4747 H   0  0  0  0  0  0  0  0  0  0  0  0
  -17.7321   16.4098  -21.0710 O   0  0  0  0  0  0  0  0  0  0  0  0
  -17.6250   16.6339  -22.4643 C   0  0  0  0  0  0  0  0  0  0  0  0
  -17.2881   15.4182  -23.2213 C   0  0  0  0  0  0  0  0  0  0  0  0
  -18.1406   15.0053  -24.2345 C   0  0  0  0  0  0  0  0  0  0  0  0
  -17.9279   13.9000  -25.0104 C   0  0  0  0  0  0  0  0  0  0  0  0
  -16.7917   13.1105  -24.7994 C   0  0  0  0  0  0  0  0  0  0  0  0
  -15.9463   13.5230  -23.7909 C   0  0  0  0  0  0  0  0  0  0  0  0
  -16.1746   14.6399  -23.0184 C   0  0  0  0  0  0  0  0  0  0  0  0
  -18.3334   12.0480  -19.3624 C   0  0  0  0  0  0  0  0  0  0  0  0
  -17.4226   11.8302  -20.4903 C   0  0  0  0  0  0  0  0  0  0  0  0
  -16.4901   10.7212  -20.4598 C   0  0  0  0  0  0  0  0  0  0  0  0
  -16.4848    9.7792  -19.4140 N   0  0  0  0  0  0  0  0  0  0  0  0
  -15.6571   10.5738  -21.3864 O   0  0  0  0  0  0  0  0  0  0  0  0
  -16.0237    8.8549  -19.4828 H   0  0  0  0  0  0  0  0  0  0  0  0
  -16.9685   10.0198  -18.5235 H   0  0  0  0  0  0  0  0  0  0  0  0
  -21.5405   12.5270  -15.3781 C   0  0  0  0  0  0  0  0  0  0  0  0
  -22.1278   12.6748  -14.2351 O   0  0  0  0  0  0  0  0  0  0  0  0
  -21.4422   11.2241  -15.8628 N   0  0  0  0  0  0  0  0  0  0  0  0
  -21.0095   10.9896  -16.7538 H   0  0  0  0  0  0  0  0  0  0  0  0
  -21.9848   10.0639  -15.0756 C   0  0  0  0  0  0  0  0  0  0  0  0
  -20.8082    9.2830  -14.7378 C   0  0  0  0  0  0  0  0  0  0  0  0
  -20.4805    8.3207  -15.5488 O   0  0  0  0  0  0  0  0  0  0  0  0
  -19.9694    9.4456  -13.5667 C   0  0  0  0  0  0  0  0  0  0  0  0
  -19.2351    8.5660  -12.9210 N   0  0  0  0  0  0  0  0  0  0  0  0
  -18.6966    8.8356  -11.7772 C   0  0  0  0  0  0  0  0  0  0  0  0
  -17.8971    7.9554  -11.0141 C   0  0  0  0  0  0  0  0  0  0  0  0
  -17.3951    8.3713   -9.8242 C   0  0  0  0  0  0  0  0  0  0  0  0
  -17.6029    9.6112   -9.2809 C   0  0  0  0  0  0  0  0  0  0  0  0
  -18.3801   10.4796  -10.0141 C   0  0  0  0  0  0  0  0  0  0  0  0
  -18.9168   10.0841  -11.2501 C   0  0  0  0  0  0  0  0  0  0  0  0
  -19.8923   10.7842  -12.4501 S   0  0  0  0  0  0  0  0  0  0  0  0
  -23.1673    9.4149  -15.6272 C   0  0  0  0  0  0  0  0  0  0  0  0
  -24.4796    9.7614  -15.0639 C   0  0  0  0  0  0  0  0  0  0  0  0
  -25.1106   10.9186  -14.5338 C   0  0  0  0  0  0  0  0  0  0  0  0
  -26.0796   11.6826  -15.2313 N   0  0  0  0  0  0  0  0  0  0  0  0
  -26.6018   11.2565  -16.0398 H   0  0  0  0  0  0  0  0  0  0  0  0
  -26.3982   13.0157  -14.8742 C   0  0  0  0  0  0  0  0  0  0  0  0
  -27.5783   13.2960  -14.1292 N   0  0  0  0  0  0  0  0  0  0  0  0
  -25.6514   13.9841  -15.2055 N   0  0  0  0  0  0  0  0  0  0  0  0
  -28.3864   13.8006  -14.5653 H   0  0  0  0  0  0  0  0  0  0  0  0
  -27.7044   13.0230  -13.1330 H   0  0  0  0  0  0  0  0  0  0  0  0
  -24.7787   13.8222  -15.7518 H   0  0  0  0  0  0  0  0  0  0  0  0
  -22.1965   14.7981  -16.1214 C   0  0  0  0  0  0  0  0  0  0  0  0
  -21.8977   16.0007  -15.3004 C   0  0  0  0  0  0  0  0  0  0  0  0
  -20.7847   16.7796  -16.0087 C   0  0  0  0  0  0  0  0  0  0  0  0
  -19.7091   17.0735  -15.0868 N   0  0  0  0  0  0  0  0  0  0  0  0
  -18.8895   16.4302  -15.0462 H   0  0  0  0  0  0  0  0  0  0  0  0
  -20.1057   19.5063  -14.6282 N   0  0  0  0  0  0  0  0  0  0  0  0
  -19.7227   18.1991  -14.2238 C   0  0  0  0  0  0  0  0  0  0  0  0
  -19.3682   18.0128  -13.0019 N   0  0  0  0  0  0  0  0  0  0  0  0
  -19.4392   20.1461  -15.0641 H   0  0  0  0  0  0  0  0  0  0  0  0
  -21.0868   19.8622  -14.4950 H   0  0  0  0  0  0  0  0  0  0  0  0
  -19.3349   18.7516  -12.2609 H   0  0  0  0  0  0  0  0  0  0  0  0
 58 59  1  0  0  0
 59 60  2  0  0  0
 59 56  1  0  0  0
 56 55  1  0  0  0
 55 54  1  0  0  0
 54 53  1  0  0  0
 53  1  1  0  0  0
  1  2  1  0  0  0
  2  3  1  0  0  0
  3  4  2  0  0  0
  3  6  1  0  0  0
  6 19  1  0  0  0
 19 20  1  0  0  0
 20 21  1  0  0  0
 21 22  1  0  0  0
 21 23  2  0  0  0
  6  7  1  0  0  0
  7  8  1  0  0  0
  8  9  2  0  0  0
  8 11  1  0  0  0
 11 12  1  0  0  0
 12 13  1  0  0  0
 13 14  2  0  0  0
 14 15  1  0  0  0
 15 16  2  0  0  0
 16 17  1  0  0  0
 17 18  2  0  0  0
  1 26  1  0  0  0
 26 27  2  0  0  0
 26 28  1  0  0  0
 28 30  1  0  0  0
 30 42  1  0  0  0
 42 43  1  0  0  0
 43 44  1  0  0  0
 44 45  1  0  0  0
 45 47  1  0  0  0
 47 48  1  0  0  0
 47 49  2  0  0  0
 30 31  1  0  0  0
 31 32  2  0  0  0
 31 33  1  0  0  0
 33 34  2  0  0  0
 34 35  1  0  0  0
 35 36  2  0  0  0
 36 37  1  0  0  0
 37 38  2  0  0  0
 38 39  1  0  0  0
 39 40  2  0  0  0
 40 41  1  0  0  0
 18 13  1  0  0  0
 41 33  1  0  0  0
 40 35  1  0  0  0
 58 61  1  0  0  0
 58 62  1  0  0  0
 60 63  1  0  0  0
 56 57  1  0  0  0
  2  5  1  0  0  0
 22 24  1  0  0  0
 22 25  1  0  0  0
  7 10  1  0  0  0
 28 29  1  0  0  0
 45 46  1  0  0  0
 48 50  1  0  0  0
 48 51  1  0  0  0
 49 52  1  0  0  0
M  END
> <minimizedAffinity>
-7.34646

> <CNNscore>
0.3063736558

> <CNNaffinity>
6.9620604515

> <CNN_VS>
2.1329920292

> <CNNaffinity_variance>
0.3277105689

$$$$
[H]N=C(N([H])[H])N([H])C([H])([H])C([H])([H])C([H])([H])[C@@]([H])(C(=O)c1nc2c([H])c([H])c([H])c([H])c2s1)N([H])C(=O)[C@@]([H])(N([H])C(=O)[C@@]([H])(N([H])C(=O)OC([H])([H])c1c([H])c([H])c([H])c([H])c1[H])C([H])([H])C([H])([H])C(=O)N([H])[H])C([H])([H])C([H])([H])C([H])([H])N([H])C(=N[H])N([H])[H]


 63 65  0  0  0  0  0  0  0  0999 V2000
  -18.5055   17.6402  -20.8713 C   0  0  0  0  0  0  0  0  0  0  0  0
  -19.9144   17.8261  -21.2215 N   0  0  0  0  0  0  0  0  0  0  0  0
  -20.3657   18.0790  -22.5254 C   0  0  0  0  0  0  0  0  0  0  0  0
  -19.5368   18.1733  -23.4534 O   0  0  0  0  0  0  0  0  0  0  0  0
  -20.5748   17.7610  -20.4146 H   0  0  0  0  0  0  0  0  0  0  0  0
  -21.7935   18.2334  -22.8122 C   0  0  0  0  0  0  0  0  0  0  0  0
  -22.4772   19.0985  -21.9020 N   0  0  0  0  0  0  0  0  0  0  0  0
  -23.7393   18.6721  -21.3759 C   0  0  0  0  0  0  0  0  0  0  0  0
  -24.2593   17.5770  -21.6862 O   0  0  0  0  0  0  0  0  0  0  0  0
  -22.0639   20.0045  -21.6057 H   0  0  0  0  0  0  0  0  0  0  0  0
  -24.4054   19.4952  -20.4957 O   0  0  0  0  0  0  0  0  0  0  0  0
  -24.0002   20.8319  -20.2676 C   0  0  0  0  0  0  0  0  0  0  0  0
  -24.7849   21.8126  -21.0338 C   0  0  0  0  0  0  0  0  0  0  0  0
  -24.3211   22.2124  -22.2784 C   0  0  0  0  0  0  0  0  0  0  0  0
  -24.9672   23.1081  -23.0841 C   0  0  0  0  0  0  0  0  0  0  0  0
  -26.1732   23.6791  -22.6619 C   0  0  0  0  0  0  0  0  0  0  0  0
  -26.6315   23.2803  -21.4239 C   0  0  0  0  0  0  0  0  0  0  0  0
  -25.9687   22.3760  -20.6243 C   0  0  0  0  0  0  0  0  0  0  0  0
  -22.0409   18.6368  -24.2478 C   0  0  0  0  0  0  0  0  0  0  0  0
  -23.0104   17.8520  -25.0180 C   0  0  0  0  0  0  0  0  0  0  0  0
  -23.8501   18.5076  -26.0008 C   0  0  0  0  0  0  0  0  0  0  0  0
  -23.7860   18.1871  -27.3698 N   0  0  0  0  0  0  0  0  0  0  0  0
  -24.6701   19.3866  -25.6417 O   0  0  0  0  0  0  0  0  0  0  0  0
  -24.5265   18.4378  -28.0483 H   0  0  0  0  0  0  0  0  0  0  0  0
  -22.9531   17.6710  -27.7229 H   0  0  0  0  0  0  0  0  0  0  0  0
  -18.2002   16.2549  -20.5402 C   0  0  0  0  0  0  0  0  0  0  0  0
  -17.6256   16.0794  -19.3947 O   0  0  0  0  0  0  0  0  0  0  0  0
  -18.4489   15.1089  -21.2931 N   0  0  0  0  0  0  0  0  0  0  0  0
  -18.9034   15.1251  -22.2037 H   0  0  0  0  0  0  0  0  0  0  0  0
  -18.0493   13.7505  -20.7875 C   0  0  0  0  0  0  0  0  0  0  0  0
  -17.2221   13.2060  -21.8494 C   0  0  0  0  0  0  0  0  0  0  0  0
  -16.7418   12.0102  -21.6748 O   0  0  0  0  0  0  0  0  0  0  0  0
  -16.8480   13.8716  -23.0817 C   0  0  0  0  0  0  0  0  0  0  0  0
  -17.2621   13.6700  -24.3136 N   0  0  0  0  0  0  0  0  0  0  0  0
  -16.6826   14.2248  -25.3271 C   0  0  0  0  0  0  0  0  0  0  0  0
  -17.0564   14.0650  -26.6803 C   0  0  0  0  0  0  0  0  0  0  0  0
  -16.3553   14.7086  -27.6472 C   0  0  0  0  0  0  0  0  0  0  0  0
  -15.2812   15.5268  -27.4177 C   0  0  0  0  0  0  0  0  0  0  0  0
  -14.9059   15.6920  -26.1033 C   0  0  0  0  0  0  0  0  0  0  0  0
  -15.6080   15.0416  -25.0756 C   0  0  0  0  0  0  0  0  0  0  0  0
  -15.5095   14.9495  -23.3834 S   0  0  0  0  0  0  0  0  0  0  0  0
  -19.1146   12.9495  -20.1982 C   0  0  0  0  0  0  0  0  0  0  0  0
  -20.3899   13.6084  -19.8835 C   0  0  0  0  0  0  0  0  0  0  0  0
  -21.0592   14.0764  -18.7210 C   0  0  0  0  0  0  0  0  0  0  0  0
  -20.5094   14.0255  -17.4156 N   0  0  0  0  0  0  0  0  0  0  0  0
  -20.9059   13.3583  -16.7044 H   0  0  0  0  0  0  0  0  0  0  0  0
  -19.4170   14.8348  -17.0183 C   0  0  0  0  0  0  0  0  0  0  0  0
  -19.5498   16.2516  -16.9823 N   0  0  0  0  0  0  0  0  0  0  0  0
  -18.3041   14.3261  -16.6895 N   0  0  0  0  0  0  0  0  0  0  0  0
  -19.0425   16.8602  -17.6680 H   0  0  0  0  0  0  0  0  0  0  0  0
  -20.1437   16.7531  -16.2906 H   0  0  0  0  0  0  0  0  0  0  0  0
  -18.1648   13.2933  -16.7029 H   0  0  0  0  0  0  0  0  0  0  0  0
  -18.2926   18.5715  -19.6652 C   0  0  0  0  0  0  0  0  0  0  0  0
  -19.5845   19.1589  -19.2231 C   0  0  0  0  0  0  0  0  0  0  0  0
  -19.4111   20.6805  -19.1825 C   0  0  0  0  0  0  0  0  0  0  0  0
  -19.8664   21.2735  -20.4210 N   0  0  0  0  0  0  0  0  0  0  0  0
  -20.8900   21.3130  -20.6152 H   0  0  0  0  0  0  0  0  0  0  0  0
  -18.0594   22.8544  -21.1437 N   0  0  0  0  0  0  0  0  0  0  0  0
  -18.9777   21.7992  -21.3937 C   0  0  0  0  0  0  0  0  0  0  0  0
  -19.0112   21.2791  -22.5691 N   0  0  0  0  0  0  0  0  0  0  0  0
  -18.3405   23.8338  -21.2156 H   0  0  0  0  0  0  0  0  0  0  0  0
  -17.0595   22.6665  -20.8755 H   0  0  0  0  0  0  0  0  0  0  0  0
  -18.4113   21.5674  -23.3771 H   0  0  0  0  0  0  0  0  0  0  0  0
 58 59  1  0  0  0
 59 60  2  0  0  0
 59 56  1  0  0  0
 56 55  1  0  0  0
 55 54  1  0  0  0
 54 53  1  0  0  0
 53  1  1  0  0  0
  1  2  1  0  0  0
  2  3  1  0  0  0
  3  4  2  0  0  0
  3  6  1  0  0  0
  6 19  1  0  0  0
 19 20  1  0  0  0
 20 21  1  0  0  0
 21 22  1  0  0  0
 21 23  2  0  0  0
  6  7  1  0  0  0
  7  8  1  0  0  0
  8  9  2  0  0  0
  8 11  1  0  0  0
 11 12  1  0  0  0
 12 13  1  0  0  0
 13 14  2  0  0  0
 14 15  1  0  0  0
 15 16  2  0  0  0
 16 17  1  0  0  0
 17 18  2  0  0  0
  1 26  1  0  0  0
 26 27  2  0  0  0
 26 28  1  0  0  0
 28 30  1  0  0  0
 30 42  1  0  0  0
 42 43  1  0  0  0
 43 44  1  0  0  0
 44 45  1  0  0  0
 45 47  1  0  0  0
 47 48  1  0  0  0
 47 49  2  0  0  0
 30 31  1  0  0  0
 31 32  2  0  0  0
 31 33  1  0  0  0
 33 34  2  0  0  0
 34 35  1  0  0  0
 35 36  2  0  0  0
 36 37  1  0  0  0
 37 38  2  0  0  0
 38 39  1  0  0  0
 39 40  2  0  0  0
 40 41  1  0  0  0
 18 13  1  0  0  0
 41 33  1  0  0  0
 40 35  1  0  0  0
 58 61  1  0  0  0
 58 62  1  0  0  0
 60 63  1  0  0  0
 56 57  1  0  0  0
  2  5  1  0  0  0
 22 24  1  0  0  0
 22 25  1  0  0  0
  7 10  1  0  0  0
 28 29  1  0  0  0
 45 46  1  0  0  0
 48 50  1  0  0  0
 48 51  1  0  0  0
 49 52  1  0  0  0
M  END
> <minimizedAffinity>
-7.95038

> <CNNscore>
0.3048801124

> <CNNaffinity>
6.9868454933

> <CNN_VS>
2.1301503181

> <CNNaffinity_variance>
0.9817875028

$$$$
[H]c1nc(Cl)c([H])c([H])c1N1C([H])([H])C([H])([H])[C@@]2([H])C([H])([H])N([H])C([H])([H])[C@@]2([H])C1([H])[H]


 17 19  0  0  0  0  0  0  0  0999 V2000
  -17.2313   14.1489  -22.5171 N   0  0  0  0  0  0  0  0  0  0  0  0
  -17.6175   13.7684  -23.8339 C   0  0  0  0  0  0  0  0  0  0  0  0
  -17.3745   14.7567  -24.9166 C   0  0  0  0  0  0  0  0  0  0  0  0
  -16.0976   15.5187  -24.6424 C   0  0  0  0  0  0  0  0  0  0  0  0
  -15.9320   16.6849  -25.5878 C   0  0  0  0  0  0  0  0  0  0  0  0
  -16.5918   17.8070  -24.9963 N   0  0  0  0  0  0  0  0  0  0  0  0
  -17.1551   17.3772  -23.7294 C   0  0  0  0  0  0  0  0  0  0  0  0
  -16.2264   16.2655  -23.3294 C   0  0  0  0  0  0  0  0  0  0  0  0
  -16.6714   15.4270  -22.2140 C   0  0  0  0  0  0  0  0  0  0  0  0
  -17.3102   18.2291  -25.6264 H   0  0  0  0  0  0  0  0  0  0  0  0
  -17.8704   10.1185  -18.2291 Cl  0  0  0  0  0  0  0  0  0  0  0  0
  -17.6668   11.2763  -19.5109 C   0  0  0  0  0  0  0  0  0  0  0  0
  -18.1056   12.5772  -19.3054 C   0  0  0  0  0  0  0  0  0  0  0  0
  -17.9880   13.5628  -20.2593 C   0  0  0  0  0  0  0  0  0  0  0  0
  -17.4074   13.2269  -21.4645 C   0  0  0  0  0  0  0  0  0  0  0  0
  -16.9823   11.9277  -21.6375 C   0  0  0  0  0  0  0  0  0  0  0  0
  -17.1143   10.9943  -20.6834 N   0  0  0  0  0  0  0  0  0  0  0  0
 11 12  1  0  0  0
 12 13  2  0  0  0
 13 14  1  0  0  0
 14 15  2  0  0  0
 15 16  1  0  0  0
 16 17  2  0  0  0
 15  1  1  0  0  0
  1  2  1  0  0  0
  2  3  1  0  0  0
  3  4  1  0  0  0
  4  5  1  0  0  0
  5  6  1  0  0  0
  6  7  1  0  0  0
  7  8  1  0  0  0
  8  9  1  0  0  0
 17 12  1  0  0  0
  9  1  1  0  0  0
  8  4  1  0  0  0
  6 10  1  0  0  0
M  END
> <minimizedAffinity>
-6.60978

> <CNNscore>
0.6238633394

> <CNNaffinity>
5.6577730179

> <CNN_VS>
3.5296771526

> <CNNaffinity_variance>
0.1036854982

$$$$
[H]c1nc(Cl)c([H])c([H])c1N1C([H])([H])C([H])([H])[C@@]2([H])C([H])([H])N([H])C([H])([H])[C@@]2([H])C1([H])[H]


 17 19  0  0  0  0  0  0  0  0999 V2000
  -16.7045   13.8802  -22.8779 N   0  0  0  0  0  0  0  0  0  0  0  0
  -16.9109   13.2651  -24.1457 C   0  0  0  0  0  0  0  0  0  0  0  0
  -16.2407   13.8936  -25.3135 C   0  0  0  0  0  0  0  0  0  0  0  0
  -14.8970   14.4497  -24.8996 C   0  0  0  0  0  0  0  0  0  0  0  0
  -14.2850   15.2954  -25.9911 C   0  0  0  0  0  0  0  0  0  0  0  0
  -14.7631   16.6308  -25.8109 N   0  0  0  0  0  0  0  0  0  0  0  0
  -15.6426   16.6384  -24.6560 C   0  0  0  0  0  0  0  0  0  0  0  0
  -15.0947   15.5075  -23.8318 C   0  0  0  0  0  0  0  0  0  0  0  0
  -15.9284   15.0671  -22.7111 C   0  0  0  0  0  0  0  0  0  0  0  0
  -15.2286   17.0101  -26.6657 H   0  0  0  0  0  0  0  0  0  0  0  0
  -19.0369   11.2349  -18.1239 Cl  0  0  0  0  0  0  0  0  0  0  0  0
  -18.3318   11.9807  -19.5279 C   0  0  0  0  0  0  0  0  0  0  0  0
  -18.7044   13.2795  -19.8466 C   0  0  0  0  0  0  0  0  0  0  0  0
  -18.2013   13.9529  -20.9368 C   0  0  0  0  0  0  0  0  0  0  0  0
  -17.2896   13.2951  -21.7358 C   0  0  0  0  0  0  0  0  0  0  0  0
  -16.9403   12.0070  -21.3929 C   0  0  0  0  0  0  0  0  0  0  0  0
  -17.4527   11.3836  -20.3216 N   0  0  0  0  0  0  0  0  0  0  0  0
 11 12  1  0  0  0
 12 13  2  0  0  0
 13 14  1  0  0  0
 14 15  2  0  0  0
 15 16  1  0  0  0
 16 17  2  0  0  0
 15  1  1  0  0  0
  1  2  1  0  0  0
  2  3  1  0  0  0
  3  4  1  0  0  0
  4  5  1  0  0  0
  5  6  1  0  0  0
  6  7  1  0  0  0
  7  8  1  0  0  0
  8  9  1  0  0  0
 17 12  1  0  0  0
  9  1  1  0  0  0
  8  4  1  0  0  0
  6 10  1  0  0  0
M  END
> <minimizedAffinity>
-7.16236

> <CNNscore>
0.6127327085

> <CNNaffinity>
5.8891849518

> <CNN_VS>
3.6084961891

> <CNNaffinity_variance>
0.1020745188

$$$$
[H]c1nc(Cl)c([H])c([H])c1N1C([H])([H])C([H])([H])[C@@]2([H])C([H])([H])N([H])C([H])([H])[C@@]2([H])C1([H])[H]


 17 19  0  0  0  0  0  0  0  0999 V2000
  -16.4965   13.1347  -23.4320 N   0  0  0  0  0  0  0  0  0  0  0  0
  -15.1459   13.5301  -23.6504 C   0  0  0  0  0  0  0  0  0  0  0  0
  -14.8509   14.2355  -24.9245 C   0  0  0  0  0  0  0  0  0  0  0  0
  -16.0181   15.1165  -25.3086 C   0  0  0  0  0  0  0  0  0  0  0  0
  -15.8604   15.6712  -26.7046 C   0  0  0  0  0  0  0  0  0  0  0  0
  -16.4318   14.7196  -27.6058 N   0  0  0  0  0  0  0  0  0  0  0  0
  -16.9318   13.6054  -26.8211 C   0  0  0  0  0  0  0  0  0  0  0  0
  -17.2536   14.2608  -25.5076 C   0  0  0  0  0  0  0  0  0  0  0  0
  -17.5320   13.3563  -24.3898 C   0  0  0  0  0  0  0  0  0  0  0  0
  -15.7610   14.4135  -28.3458 H   0  0  0  0  0  0  0  0  0  0  0  0
  -17.7323   10.3016  -18.3837 Cl  0  0  0  0  0  0  0  0  0  0  0  0
  -17.3429   11.1080  -19.8746 C   0  0  0  0  0  0  0  0  0  0  0  0
  -18.0471   12.2559  -20.2113 C   0  0  0  0  0  0  0  0  0  0  0  0
  -17.8109   12.9626  -21.3689 C   0  0  0  0  0  0  0  0  0  0  0  0
  -16.8297   12.4968  -22.2190 C   0  0  0  0  0  0  0  0  0  0  0  0
  -16.1487   11.3551  -21.8566 C   0  0  0  0  0  0  0  0  0  0  0  0
  -16.4077   10.6934  -20.7191 N   0  0  0  0  0  0  0  0  0  0  0  0
 11 12  1  0  0  0
 12 13  2  0  0  0
 13 14  1  0  0  0
 14 15  2  0  0  0
 15 16  1  0  0  0
 16 17  2  0  0  0
 15  1  1  0  0  0
  1  2  1  0  0  0
  2  3  1  0  0  0
  3  4  1  0  0  0
  4  5  1  0  0  0
  5  6  1  0  0  0
  6  7  1  0  0  0
  7  8  1  0  0  0
  8  9  1  0  0  0
 17 12  1  0  0  0
  9  1  1  0  0  0
  8  4  1  0  0  0
  6 10  1  0  0  0
M  END
> <minimizedAffinity>
-6.86232

> <CNNscore>
0.5882526040

> <CNNaffinity>
6.0519862175

> <CNN_VS>
3.5600967407

> <CNNaffinity_variance>
0.1405530274

$$$$
[H]c1nc(Cl)c([H])c([H])c1N1C([H])([H])C([H])([H])[C@@]2([H])C([H])([H])N([H])C([H])([H])[C@@]2([H])C1([H])[H]


 17 19  0  0  0  0  0  0  0  0999 V2000
  -18.8347   14.8765  -18.6696 N   0  0  0  0  0  0  0  0  0  0  0  0
  -19.5520   15.7319  -19.5539 C   0  0  0  0  0  0  0  0  0  0  0  0
  -20.0952   16.9893  -18.9779 C   0  0  0  0  0  0  0  0  0  0  0  0
  -19.1470   17.5290  -17.9311 C   0  0  0  0  0  0  0  0  0  0  0  0
  -19.7626   18.6723  -17.1597 C   0  0  0  0  0  0  0  0  0  0  0  0
  -20.4733   18.1050  -16.0564 N   0  0  0  0  0  0  0  0  0  0  0  0
  -20.3199   16.6629  -16.1200 C   0  0  0  0  0  0  0  0  0  0  0  0
  -18.9956   16.5146  -16.8148 C   0  0  0  0  0  0  0  0  0  0  0  0
  -18.6630   15.1669  -17.2822 C   0  0  0  0  0  0  0  0  0  0  0  0
  -21.4764   18.3959  -16.0318 H   0  0  0  0  0  0  0  0  0  0  0  0
  -16.4621    9.8121  -20.6091 Cl  0  0  0  0  0  0  0  0  0  0  0  0
  -17.1596   11.2860  -20.0042 C   0  0  0  0  0  0  0  0  0  0  0  0
  -17.4110   12.3169  -20.8992 C   0  0  0  0  0  0  0  0  0  0  0  0
  -17.9604   13.5196  -20.5156 C   0  0  0  0  0  0  0  0  0  0  0  0
  -18.2680   13.6911  -19.1821 C   0  0  0  0  0  0  0  0  0  0  0  0
  -18.0064   12.6493  -18.3190 C   0  0  0  0  0  0  0  0  0  0  0  0
  -17.4697   11.4912  -18.7309 N   0  0  0  0  0  0  0  0  0  0  0  0
 11 12  1  0  0  0
 12 13  2  0  0  0
 13 14  1  0  0  0
 14 15  2  0  0  0
 15 16  1  0  0  0
 16 17  2  0  0  0
 15  1  1  0  0  0
  1  2  1  0  0  0
  2  3  1  0  0  0
  3  4  1  0  0  0
  4  5  1  0  0  0
  5  6  1  0  0  0
  6  7  1  0  0  0
  7  8  1  0  0  0
  8  9  1  0  0  0
 17 12  1  0  0  0
  9  1  1  0  0  0
  8  4  1  0  0  0
  6 10  1  0  0  0
M  END
> <minimizedAffinity>
-5.29454

> <CNNscore>
0.5473259687

> <CNNaffinity>
4.9736309052

> <CNN_VS>
2.7221972942

> <CNNaffinity_variance>
0.0589600801

$$$$
[H]c1nc(Cl)c([H])c([H])c1N1C([H])([H])C([H])([H])[C@@]2([H])C([H])([H])N([H])C([H])([H])[C@@]2([H])C1([H])[H]


 17 19  0  0  0  0  0  0  0  0999 V2000
  -16.6521   13.8360  -22.8844 N   0  0  0  0  0  0  0  0  0  0  0  0
  -16.8768   13.2448  -24.1603 C   0  0  0  0  0  0  0  0  0  0  0  0
  -16.2254   13.8965  -25.3260 C   0  0  0  0  0  0  0  0  0  0  0  0
  -14.8763   14.4469  -24.9219 C   0  0  0  0  0  0  0  0  0  0  0  0
  -14.2822   15.3143  -26.0063 C   0  0  0  0  0  0  0  0  0  0  0  0
  -14.7595   16.6452  -25.7935 N   0  0  0  0  0  0  0  0  0  0  0  0
  -15.6213   16.6294  -24.6255 C   0  0  0  0  0  0  0  0  0  0  0  0
  -15.0594   15.4839  -23.8314 C   0  0  0  0  0  0  0  0  0  0  0  0
  -15.8754   15.0208  -22.7067 C   0  0  0  0  0  0  0  0  0  0  0  0
  -15.2384   17.0399  -26.6338 H   0  0  0  0  0  0  0  0  0  0  0  0
  -19.1282   11.4864  -18.0483 Cl  0  0  0  0  0  0  0  0  0  0  0  0
  -18.4158   12.2102  -19.4602 C   0  0  0  0  0  0  0  0  0  0  0  0
  -17.6436   11.4144  -20.2954 C   0  0  0  0  0  0  0  0  0  0  0  0
  -17.0395   11.8964  -21.4347 C   0  0  0  0  0  0  0  0  0  0  0  0
  -17.2190   13.2282  -21.7449 C   0  0  0  0  0  0  0  0  0  0  0  0
  -17.9907   13.9914  -20.8960 C   0  0  0  0  0  0  0  0  0  0  0  0
  -18.5636   13.4854  -19.7939 N   0  0  0  0  0  0  0  0  0  0  0  0
 11 12  1  0  0  0
 12 13  2  0  0  0
 13 14  1  0  0  0
 14 15  2  0  0  0
 15 16  1  0  0  0
 16 17  2  0  0  0
 15  1  1  0  0  0
  1  2  1  0  0  0
  2  3  1  0  0  0
  3  4  1  0  0  0
  4  5  1  0  0  0
  5  6  1  0  0  0
  6  7  1  0  0  0
  7  8  1  0  0  0
  8  9  1  0  0  0
 17 12  1  0  0  0
  9  1  1  0  0  0
  8  4  1  0  0  0
  6 10  1  0  0  0
M  END
> <minimizedAffinity>
-7.21613

> <CNNscore>
0.3707801700

> <CNNaffinity>
5.5783576965

> <CNN_VS>
2.0683443546

> <CNNaffinity_variance>
0.0278812088

$$$$
[H]c1nc(Cl)c([H])c([H])c1N1C([H])([H])C([H])([H])[C@@]2([H])C([H])([H])N([H])C([H])([H])[C@@]2([H])C1([H])[H]


 17 19  0  0  0  0  0  0  0  0999 V2000
  -17.1088   12.9160  -22.1075 N   0  0  0  0  0  0  0  0  0  0  0  0
  -17.8945   14.0952  -22.2501 C   0  0  0  0  0  0  0  0  0  0  0  0
  -17.6403   14.9296  -23.4531 C   0  0  0  0  0  0  0  0  0  0  0  0
  -17.2969   14.0456  -24.6308 C   0  0  0  0  0  0  0  0  0  0  0  0
  -16.8079   14.8542  -25.8091 C   0  0  0  0  0  0  0  0  0  0  0  0
  -15.3942   15.0076  -25.6603 N   0  0  0  0  0  0  0  0  0  0  0  0
  -14.9970   14.3280  -24.4406 C   0  0  0  0  0  0  0  0  0  0  0  0
  -16.0417   13.2545  -24.3202 C   0  0  0  0  0  0  0  0  0  0  0  0
  -16.0910   12.5473  -23.0386 C   0  0  0  0  0  0  0  0  0  0  0  0
  -15.0948   16.0083  -25.6717 H   0  0  0  0  0  0  0  0  0  0  0  0
  -18.2439    9.5329  -17.3847 Cl  0  0  0  0  0  0  0  0  0  0  0  0
  -17.9348   10.5526  -18.7592 C   0  0  0  0  0  0  0  0  0  0  0  0
  -17.0223   10.1219  -19.7127 C   0  0  0  0  0  0  0  0  0  0  0  0
  -16.7119   10.8586  -20.8335 C   0  0  0  0  0  0  0  0  0  0  0  0
  -17.3431   12.0734  -21.0010 C   0  0  0  0  0  0  0  0  0  0  0  0
  -18.2433   12.4727  -20.0372 C   0  0  0  0  0  0  0  0  0  0  0  0
  -18.5197   11.7265  -18.9576 N   0  0  0  0  0  0  0  0  0  0  0  0
 11 12  1  0  0  0
 12 13  2  0  0  0
 13 14  1  0  0  0
 14 15  2  0  0  0
 15 16  1  0  0  0
 16 17  2  0  0  0
 15  1  1  0  0  0
  1  2  1  0  0  0
  2  3  1  0  0  0
  3  4  1  0  0  0
  4  5  1  0  0  0
  5  6  1  0  0  0
  6  7  1  0  0  0
  7  8  1  0  0  0
  8  9  1  0  0  0
 17 12  1  0  0  0
  9  1  1  0  0  0
  8  4  1  0  0  0
  6 10  1  0  0  0
M  END
> <minimizedAffinity>
-6.84371

> <CNNscore>
0.3483363092

> <CNNaffinity>
5.4600958824

> <CNN_VS>
1.9019496441

> <CNNaffinity_variance>
0.0443528518

$$$$
[H]c1nc(Cl)c([H])c([H])c1N1C([H])([H])C([H])([H])[C@@]2([H])C([H])([H])N([H])C([H])([H])[C@@]2([H])C1([H])[H]


 17 19  0  0  0  0  0  0  0  0999 V2000
  -18.4034   15.4058  -20.5413 N   0  0  0  0  0  0  0  0  0  0  0  0
  -17.4799   16.4310  -20.1889 C   0  0  0  0  0  0  0  0  0  0  0  0
  -18.0199   17.8106  -20.0756 C   0  0  0  0  0  0  0  0  0  0  0  0
  -19.4259   17.7704  -19.5208 C   0  0  0  0  0  0  0  0  0  0  0  0
  -20.0956   19.1216  -19.6044 C   0  0  0  0  0  0  0  0  0  0  0  0
  -20.7273   19.2029  -20.8845 N   0  0  0  0  0  0  0  0  0  0  0  0
  -20.4721   17.9594  -21.5885 C   0  0  0  0  0  0  0  0  0  0  0  0
  -20.3172   16.9805  -20.4588 C   0  0  0  0  0  0  0  0  0  0  0  0
  -19.7800   15.6660  -20.8172 C   0  0  0  0  0  0  0  0  0  0  0  0
  -20.4208   20.0382  -21.4319 H   0  0  0  0  0  0  0  0  0  0  0  0
  -16.5196    9.7953  -20.6578 Cl  0  0  0  0  0  0  0  0  0  0  0  0
  -17.0806   11.4400  -20.5867 C   0  0  0  0  0  0  0  0  0  0  0  0
  -17.0495   12.2021  -21.7467 C   0  0  0  0  0  0  0  0  0  0  0  0
  -17.4718   13.5117  -21.7896 C   0  0  0  0  0  0  0  0  0  0  0  0
  -17.9428   14.0752  -20.6221 C   0  0  0  0  0  0  0  0  0  0  0  0
  -17.9609   13.2928  -19.4880 C   0  0  0  0  0  0  0  0  0  0  0  0
  -17.5405   12.0192  -19.4856 N   0  0  0  0  0  0  0  0  0  0  0  0
 11 12  1  0  0  0
 12 13  2  0  0  0
 13 14  1  0  0  0
 14 15  2  0  0  0
 15 16  1  0  0  0
 16 17  2  0  0  0
 15  1  1  0  0  0
  1  2  1  0  0  0
  2  3  1  0  0  0
  3  4  1  0  0  0
  4  5  1  0  0  0
  5  6  1  0  0  0
  6  7  1  0  0  0
  7  8  1  0  0  0
  8  9  1  0  0  0
 17 12  1  0  0  0
  9  1  1  0  0  0
  8  4  1  0  0  0
  6 10  1  0  0  0
M  END
> <minimizedAffinity>
-5.23556

> <CNNscore>
0.3146057725

> <CNNaffinity>
5.0138368607

> <CNN_VS>
1.5773819685

> <CNNaffinity_variance>
0.1411908567

$$$$
[H]c1nc(Cl)c([H])c([H])c1N1C([H])([H])C([H])([H])[C@@]2([H])C([H])([H])N([H])C([H])([H])[C@@]2([H])C1([H])[H]


 17 19  0  0  0  0  0  0  0  0999 V2000
  -17.4873   13.7799  -22.7649 N   0  0  0  0  0  0  0  0  0  0  0  0
  -16.9749   12.5618  -22.2341 C   0  0  0  0  0  0  0  0  0  0  0  0
  -17.3866   12.2065  -20.8513 C   0  0  0  0  0  0  0  0  0  0  0  0
  -18.8098   12.6541  -20.6058 C   0  0  0  0  0  0  0  0  0  0  0  0
  -19.1908   12.5229  -19.1501 C   0  0  0  0  0  0  0  0  0  0  0  0
  -18.8185   13.7422  -18.5030 N   0  0  0  0  0  0  0  0  0  0  0  0
  -18.2249   14.6142  -19.5004 C   0  0  0  0  0  0  0  0  0  0  0  0
  -18.9009   14.1591  -20.7631 C   0  0  0  0  0  0  0  0  0  0  0  0
  -18.3266   14.6581  -22.0146 C   0  0  0  0  0  0  0  0  0  0  0  0
  -18.1864   13.5872  -17.6859 H   0  0  0  0  0  0  0  0  0  0  0  0
  -16.0141   15.4837  -28.2390 Cl  0  0  0  0  0  0  0  0  0  0  0  0
  -16.4355   15.0167  -26.6176 C   0  0  0  0  0  0  0  0  0  0  0  0
  -16.9781   13.7558  -26.4104 C   0  0  0  0  0  0  0  0  0  0  0  0
  -17.3426   13.2968  -25.1648 C   0  0  0  0  0  0  0  0  0  0  0  0
  -17.1541   14.1376  -24.0878 C   0  0  0  0  0  0  0  0  0  0  0  0
  -16.6136   15.3824  -24.3263 C   0  0  0  0  0  0  0  0  0  0  0  0
  -16.2706   15.7944  -25.5557 N   0  0  0  0  0  0  0  0  0  0  0  0
 11 12  1  0  0  0
 12 13  2  0  0  0
 13 14  1  0  0  0
 14 15  2  0  0  0
 15 16  1  0  0  0
 16 17  2  0  0  0
 15  1  1  0  0  0
  1  2  1  0  0  0
  2  3  1  0  0  0
  3  4  1  0  0  0
  4  5  1  0  0  0
  5  6  1  0  0  0
  6  7  1  0  0  0
  7  8  1  0  0  0
  8  9  1  0  0  0
 17 12  1  0  0  0
  9  1  1  0  0  0
  8  4  1  0  0  0
  6 10  1  0  0  0
M  END
> <minimizedAffinity>
-6.74348

> <CNNscore>
0.2821489871

> <CNNaffinity>
5.2966814041

> <CNN_VS>
1.4944533110

> <CNNaffinity_variance>
0.1122040972

$$$$
[H]c1nc(Cl)c([H])c([H])c1N1C([H])([H])C([H])([H])[C@@]2([H])C([H])([H])N([H])C([H])([H])[C@@]2([H])C1([H])[H]


 17 19  0  0  0  0  0  0  0  0999 V2000
  -16.4459   12.3901  -22.7398 N   0  0  0  0  0  0  0  0  0  0  0  0
  -15.4312   11.4319  -22.4564 C   0  0  0  0  0  0  0  0  0  0  0  0
  -15.5490   10.6887  -21.1751 C   0  0  0  0  0  0  0  0  0  0  0  0
  -17.0054   10.4341  -20.8585 C   0  0  0  0  0  0  0  0  0  0  0  0
  -17.1836    9.8891  -19.4611 C   0  0  0  0  0  0  0  0  0  0  0  0
  -17.3083   11.0096  -18.5819 N   0  0  0  0  0  0  0  0  0  0  0  0
  -17.2131   12.2176  -19.3813 C   0  0  0  0  0  0  0  0  0  0  0  0
  -17.7306   11.7576  -20.7152 C   0  0  0  0  0  0  0  0  0  0  0  0
  -17.5160   12.6734  -21.8378 C   0  0  0  0  0  0  0  0  0  0  0  0
  -16.6089   10.9919  -17.8061 H   0  0  0  0  0  0  0  0  0  0  0  0
  -16.0370   15.4267  -27.8044 Cl  0  0  0  0  0  0  0  0  0  0  0  0
  -16.1249   14.5505  -26.3047 C   0  0  0  0  0  0  0  0  0  0  0  0
  -17.2026   13.7008  -26.0953 C   0  0  0  0  0  0  0  0  0  0  0  0
  -17.3591   12.9661  -24.9416 C   0  0  0  0  0  0  0  0  0  0  0  0
  -16.3957   13.0912  -23.9625 C   0  0  0  0  0  0  0  0  0  0  0  0
  -15.3387   13.9424  -24.2006 C   0  0  0  0  0  0  0  0  0  0  0  0
  -15.2207   14.6423  -25.3386 N   0  0  0  0  0  0  0  0  0  0  0  0
 11 12  1  0  0  0
 12 13  2  0  0  0
 13 14  1  0  0  0
 14 15  2  0  0  0
 15 16  1  0  0  0
 16 17  2  0  0  0
 15  1  1  0  0  0
  1  2  1  0  0  0
  2  3  1  0  0  0
  3  4  1  0  0  0
  4  5  1  0  0  0
  5  6  1  0  0  0
  6  7  1  0  0  0
  7  8  1  0  0  0
  8  9  1  0  0  0
 17 12  1  0  0  0
  9  1  1  0  0  0
  8  4  1  0  0  0
  6 10  1  0  0  0
M  END
> <minimizedAffinity>
-7.05495

> <CNNscore>
0.2771449387

> <CNNaffinity>
5.4372258186

> <CNN_VS>
1.5068995953

> <CNNaffinity_variance>
0.0797413364

$$$$
[H]c1nc(N([H])[H])c([H])c([H])c1C(=O)N([H])c1sc(N([H])c2c([H])c([H])c3c([H])c([H])c([H])c([H])c3c2[H])nc1C(=O)N([H])[H]


 35 38  0  0  0  0  0  0  0  0999 V2000
  -16.7987   11.6186  -21.2753 C   0  0  0  0  0  0  0  0  0  0  0  0
  -17.5077   11.3737  -20.2016 N   0  0  0  0  0  0  0  0  0  0  0  0
  -18.4106   12.1951  -19.7596 C   0  0  0  0  0  0  0  0  0  0  0  0
  -18.3116   13.4547  -20.9128 S   0  0  0  0  0  0  0  0  0  0  0  0
  -17.0359   12.7732  -21.9410 C   0  0  0  0  0  0  0  0  0  0  0  0
  -14.7568   10.9832  -22.6237 N   0  0  0  0  0  0  0  0  0  0  0  0
  -15.6339   10.7191  -21.5491 C   0  0  0  0  0  0  0  0  0  0  0  0
  -15.4188    9.7383  -20.8460 O   0  0  0  0  0  0  0  0  0  0  0  0
  -14.3281   10.1919  -23.1279 H   0  0  0  0  0  0  0  0  0  0  0  0
  -14.5400   11.9493  -22.9099 H   0  0  0  0  0  0  0  0  0  0  0  0
  -16.6915   13.3469  -23.1878 N   0  0  0  0  0  0  0  0  0  0  0  0
  -15.5368   13.8475  -23.7331 C   0  0  0  0  0  0  0  0  0  0  0  0
  -14.3697   13.9167  -23.2707 O   0  0  0  0  0  0  0  0  0  0  0  0
  -17.5572   13.3977  -23.8621 H   0  0  0  0  0  0  0  0  0  0  0  0
  -15.6332   14.4234  -25.1226 C   0  0  0  0  0  0  0  0  0  0  0  0
  -16.6183   14.0413  -25.9945 C   0  0  0  0  0  0  0  0  0  0  0  0
  -16.6529   14.5941  -27.2657 C   0  0  0  0  0  0  0  0  0  0  0  0
  -15.7107   15.5157  -27.6492 C   0  0  0  0  0  0  0  0  0  0  0  0
  -15.7652   16.0760  -28.9713 N   0  0  0  0  0  0  0  0  0  0  0  0
  -14.7555   15.8729  -26.7733 N   0  0  0  0  0  0  0  0  0  0  0  0
  -14.6989   15.3527  -25.5362 C   0  0  0  0  0  0  0  0  0  0  0  0
  -15.3498   15.5501  -29.7667 H   0  0  0  0  0  0  0  0  0  0  0  0
  -16.2051   16.9858  -29.1532 H   0  0  0  0  0  0  0  0  0  0  0  0
  -19.2825   12.1185  -18.6207 N   0  0  0  0  0  0  0  0  0  0  0  0
  -19.9832   12.9132  -18.5701 H   0  0  0  0  0  0  0  0  0  0  0  0
  -19.3057   11.1537  -17.6182 C   0  0  0  0  0  0  0  0  0  0  0  0
  -18.7736    9.8869  -17.6843 C   0  0  0  0  0  0  0  0  0  0  0  0
  -18.8319    8.9814  -16.6536 C   0  0  0  0  0  0  0  0  0  0  0  0
  -19.4463    9.3242  -15.4798 C   0  0  0  0  0  0  0  0  0  0  0  0
  -19.5315    8.4489  -14.4125 C   0  0  0  0  0  0  0  0  0  0  0  0
  -20.1513    8.8260  -13.2590 C   0  0  0  0  0  0  0  0  0  0  0  0
  -20.7127   10.0741  -13.1024 C   0  0  0  0  0  0  0  0  0  0  0  0
  -20.6201   10.9277  -14.1667 C   0  0  0  0  0  0  0  0  0  0  0  0
  -19.9947   10.5820  -15.3647 C   0  0  0  0  0  0  0  0  0  0  0  0
  -19.9285   11.4725  -16.4001 C   0  0  0  0  0  0  0  0  0  0  0  0
  6  7  1  0  0  0
  7  8  2  0  0  0
  7  1  1  0  0  0
  1  2  1  0  0  0
  2  3  2  0  0  0
  3 24  1  0  0  0
 24 26  1  0  0  0
 26 27  2  0  0  0
 27 28  1  0  0  0
 28 29  2  0  0  0
 29 30  1  0  0  0
 30 31  2  0  0  0
 31 32  1  0  0  0
 32 33  2  0  0  0
 33 34  1  0  0  0
 34 35  2  0  0  0
  3  4  1  0  0  0
  4  5  1  0  0  0
  5 11  1  0  0  0
 11 12  1  0  0  0
 12 13  2  0  0  0
 12 15  1  0  0  0
 15 16  2  0  0  0
 16 17  1  0  0  0
 17 18  2  0  0  0
 18 19  1  0  0  0
 18 20  1  0  0  0
 20 21  2  0  0  0
  5  1  2  0  0  0
 21 15  1  0  0  0
 35 26  1  0  0  0
 34 29  1  0  0  0
  6  9  1  0  0  0
  6 10  1  0  0  0
 24 25  1  0  0  0
 11 14  1  0  0  0
 19 22  1  0  0  0
 19 23  1  0  0  0
M  END
> <minimizedAffinity>
-9.44630

> <CNNscore>
0.9774283767

> <CNNaffinity>
7.2819547653

> <CNN_VS>
7.1175889969

> <CNNaffinity_variance>
0.1162641793

$$$$
[H]c1nc(N([H])[H])c([H])c([H])c1C(=O)N([H])c1sc(N([H])c2c([H])c([H])c3c([H])c([H])c([H])c([H])c3c2[H])nc1C(=O)N([H])[H]


 35 38  0  0  0  0  0  0  0  0999 V2000
  -16.9315   11.9127  -20.7618 C   0  0  0  0  0  0  0  0  0  0  0  0
  -17.5186   11.8685  -19.5919 N   0  0  0  0  0  0  0  0  0  0  0  0
  -18.1198   12.8959  -19.0739 C   0  0  0  0  0  0  0  0  0  0  0  0
  -17.8799   14.0738  -20.2910 S   0  0  0  0  0  0  0  0  0  0  0  0
  -16.9703   13.0800  -21.4460 C   0  0  0  0  0  0  0  0  0  0  0  0
  -15.2000   10.8275  -22.2504 N   0  0  0  0  0  0  0  0  0  0  0  0
  -16.0744   10.7467  -21.1446 C   0  0  0  0  0  0  0  0  0  0  0  0
  -16.1140    9.7013  -20.5056 O   0  0  0  0  0  0  0  0  0  0  0  0
  -15.0280    9.9830  -22.8172 H   0  0  0  0  0  0  0  0  0  0  0  0
  -14.7340   11.7129  -22.4980 H   0  0  0  0  0  0  0  0  0  0  0  0
  -16.6767   13.5312  -22.7547 N   0  0  0  0  0  0  0  0  0  0  0  0
  -15.5355   13.6224  -23.5102 C   0  0  0  0  0  0  0  0  0  0  0  0
  -14.3519   13.2806  -23.2593 O   0  0  0  0  0  0  0  0  0  0  0  0
  -17.5783   13.8883  -23.2707 H   0  0  0  0  0  0  0  0  0  0  0  0
  -15.6739   14.2286  -24.8831 C   0  0  0  0  0  0  0  0  0  0  0  0
  -16.6572   13.8319  -25.7505 C   0  0  0  0  0  0  0  0  0  0  0  0
  -16.7310   14.4143  -27.0066 C   0  0  0  0  0  0  0  0  0  0  0  0
  -15.8291   15.3794  -27.3799 C   0  0  0  0  0  0  0  0  0  0  0  0
  -15.9240   15.9699  -28.6866 N   0  0  0  0  0  0  0  0  0  0  0  0
  -14.8747   15.7500  -26.5088 N   0  0  0  0  0  0  0  0  0  0  0  0
  -14.7805   15.2018  -25.2861 C   0  0  0  0  0  0  0  0  0  0  0  0
  -15.5015   15.4795  -29.5008 H   0  0  0  0  0  0  0  0  0  0  0  0
  -16.3996   16.8669  -28.8392 H   0  0  0  0  0  0  0  0  0  0  0  0
  -18.8127   13.0563  -17.8259 N   0  0  0  0  0  0  0  0  0  0  0  0
  -18.6492   13.9996  -17.3694 H   0  0  0  0  0  0  0  0  0  0  0  0
  -19.6409   12.1447  -17.1782 C   0  0  0  0  0  0  0  0  0  0  0  0
  -20.8797   12.4001  -16.6372 C   0  0  0  0  0  0  0  0  0  0  0  0
  -21.6472   11.4503  -16.0093 C   0  0  0  0  0  0  0  0  0  0  0  0
  -21.1855   10.1668  -15.8969 C   0  0  0  0  0  0  0  0  0  0  0  0
  -21.9198    9.1742  -15.2740 C   0  0  0  0  0  0  0  0  0  0  0  0
  -21.4271    7.9071  -15.1813 C   0  0  0  0  0  0  0  0  0  0  0  0
  -20.1966    7.5594  -15.6938 C   0  0  0  0  0  0  0  0  0  0  0  0
  -19.4832    8.5521  -16.3065 C   0  0  0  0  0  0  0  0  0  0  0  0
  -19.9503    9.8613  -16.4230 C   0  0  0  0  0  0  0  0  0  0  0  0
  -19.1979   10.8183  -17.0454 C   0  0  0  0  0  0  0  0  0  0  0  0
  6  7  1  0  0  0
  7  8  2  0  0  0
  7  1  1  0  0  0
  1  2  1  0  0  0
  2  3  2  0  0  0
  3 24  1  0  0  0
 24 26  1  0  0  0
 26 27  2  0  0  0
 27 28  1  0  0  0
 28 29  2  0  0  0
 29 30  1  0  0  0
 30 31  2  0  0  0
 31 32  1  0  0  0
 32 33  2  0  0  0
 33 34  1  0  0  0
 34 35  2  0  0  0
  3  4  1  0  0  0
  4  5  1  0  0  0
  5 11  1  0  0  0
 11 12  1  0  0  0
 12 13  2  0  0  0
 12 15  1  0  0  0
 15 16  2  0  0  0
 16 17  1  0  0  0
 17 18  2  0  0  0
 18 19  1  0  0  0
 18 20  1  0  0  0
 20 21  2  0  0  0
  5  1  2  0  0  0
 21 15  1  0  0  0
 35 26  1  0  0  0
 34 29  1  0  0  0
  6  9  1  0  0  0
  6 10  1  0  0  0
 24 25  1  0  0  0
 11 14  1  0  0  0
 19 22  1  0  0  0
 19 23  1  0  0  0
M  END
> <minimizedAffinity>
-9.10571

> <CNNscore>
0.9006726146

> <CNNaffinity>
7.1723146439

> <CNN_VS>
6.4599075317

> <CNNaffinity_variance>
0.2354290485

$$$$
[H]c1nc(N([H])[H])c([H])c([H])c1C(=O)N([H])c1sc(N([H])c2c([H])c([H])c3c([H])c([H])c([H])c([H])c3c2[H])nc1C(=O)N([H])[H]


 35 38  0  0  0  0  0  0  0  0999 V2000
  -16.7847   11.7106  -21.1875 C   0  0  0  0  0  0  0  0  0  0  0  0
  -17.4460   11.5421  -20.0696 N   0  0  0  0  0  0  0  0  0  0  0  0
  -18.2211   12.4573  -19.5728 C   0  0  0  0  0  0  0  0  0  0  0  0
  -18.0565   13.7028  -20.7339 S   0  0  0  0  0  0  0  0  0  0  0  0
  -16.9338   12.8872  -21.8401 C   0  0  0  0  0  0  0  0  0  0  0  0
  -14.7961   10.9403  -22.5451 N   0  0  0  0  0  0  0  0  0  0  0  0
  -15.7479   10.6878  -21.5331 C   0  0  0  0  0  0  0  0  0  0  0  0
  -15.7045    9.6135  -20.9443 O   0  0  0  0  0  0  0  0  0  0  0  0
  -14.4618   10.1567  -23.1267 H   0  0  0  0  0  0  0  0  0  0  0  0
  -14.4326   11.8905  -22.7100 H   0  0  0  0  0  0  0  0  0  0  0  0
  -16.6085   13.4240  -23.1082 N   0  0  0  0  0  0  0  0  0  0  0  0
  -15.4482   13.8367  -23.7121 C   0  0  0  0  0  0  0  0  0  0  0  0
  -14.2588   13.8270  -23.3047 O   0  0  0  0  0  0  0  0  0  0  0  0
  -17.4990   13.5301  -23.7426 H   0  0  0  0  0  0  0  0  0  0  0  0
  -15.5686   14.4057  -25.1026 C   0  0  0  0  0  0  0  0  0  0  0  0
  -16.6004   14.0615  -25.9354 C   0  0  0  0  0  0  0  0  0  0  0  0
  -16.6558   14.6055  -27.2096 C   0  0  0  0  0  0  0  0  0  0  0  0
  -15.6879   15.4810  -27.6348 C   0  0  0  0  0  0  0  0  0  0  0  0
  -15.7647   16.0331  -28.9593 N   0  0  0  0  0  0  0  0  0  0  0  0
  -14.6869   15.8017  -26.7967 N   0  0  0  0  0  0  0  0  0  0  0  0
  -14.6092   15.2890  -25.5576 C   0  0  0  0  0  0  0  0  0  0  0  0
  -15.4020   15.4829  -29.7640 H   0  0  0  0  0  0  0  0  0  0  0  0
  -16.1699   16.9602  -29.1339 H   0  0  0  0  0  0  0  0  0  0  0  0
  -19.0210   12.4739  -18.3799 N   0  0  0  0  0  0  0  0  0  0  0  0
  -19.0700   11.5343  -17.8902 H   0  0  0  0  0  0  0  0  0  0  0  0
  -19.7101   13.5459  -17.8208 C   0  0  0  0  0  0  0  0  0  0  0  0
  -21.0661   13.6280  -17.6041 C   0  0  0  0  0  0  0  0  0  0  0  0
  -21.6836   14.7201  -17.0458 C   0  0  0  0  0  0  0  0  0  0  0  0
  -20.9394   15.8061  -16.6719 C   0  0  0  0  0  0  0  0  0  0  0  0
  -21.5132   16.9297  -16.1056 C   0  0  0  0  0  0  0  0  0  0  0  0
  -20.7396   17.9923  -15.7457 C   0  0  0  0  0  0  0  0  0  0  0  0
  -19.3738   17.9989  -15.9249 C   0  0  0  0  0  0  0  0  0  0  0  0
  -18.8219   16.8806  -16.4859 C   0  0  0  0  0  0  0  0  0  0  0  0
  -19.5770   15.7719  -16.8684 C   0  0  0  0  0  0  0  0  0  0  0  0
  -18.9769   14.6770  -17.4256 C   0  0  0  0  0  0  0  0  0  0  0  0
  6  7  1  0  0  0
  7  8  2  0  0  0
  7  1  1  0  0  0
  1  2  1  0  0  0
  2  3  2  0  0  0
  3 24  1  0  0  0
 24 26  1  0  0  0
 26 27  2  0  0  0
 27 28  1  0  0  0
 28 29  2  0  0  0
 29 30  1  0  0  0
 30 31  2  0  0  0
 31 32  1  0  0  0
 32 33  2  0  0  0
 33 34  1  0  0  0
 34 35  2  0  0  0
  3  4  1  0  0  0
  4  5  1  0  0  0
  5 11  1  0  0  0
 11 12  1  0  0  0
 12 13  2  0  0  0
 12 15  1  0  0  0
 15 16  2  0  0  0
 16 17  1  0  0  0
 17 18  2  0  0  0
 18 19  1  0  0  0
 18 20  1  0  0  0
 20 21  2  0  0  0
  5  1  2  0  0  0
 21 15  1  0  0  0
 35 26  1  0  0  0
 34 29  1  0  0  0
  6  9  1  0  0  0
  6 10  1  0  0  0
 24 25  1  0  0  0
 11 14  1  0  0  0
 19 22  1  0  0  0
 19 23  1  0  0  0
M  END
> <minimizedAffinity>
-8.57503

> <CNNscore>
0.8944674730

> <CNNaffinity>
7.2011690140

> <CNN_VS>
6.4412112236

> <CNNaffinity_variance>
0.0944778770

$$$$
[H]c1nc(N([H])[H])c([H])c([H])c1C(=O)N([H])c1sc(N([H])c2c([H])c([H])c3c([H])c([H])c([H])c([H])c3c2[H])nc1C(=O)N([H])[H]


 35 38  0  0  0  0  0  0  0  0999 V2000
  -16.7945   11.7455  -20.9951 C   0  0  0  0  0  0  0  0  0  0  0  0
  -16.6055   12.7459  -21.8190 N   0  0  0  0  0  0  0  0  0  0  0  0
  -17.4635   13.7108  -21.9531 C   0  0  0  0  0  0  0  0  0  0  0  0
  -18.6779   13.2362  -20.8457 S   0  0  0  0  0  0  0  0  0  0  0  0
  -17.9296   11.7385  -20.2575 C   0  0  0  0  0  0  0  0  0  0  0  0
  -14.8268   10.5731  -22.0650 N   0  0  0  0  0  0  0  0  0  0  0  0
  -15.8584   10.5822  -21.1009 C   0  0  0  0  0  0  0  0  0  0  0  0
  -15.9684    9.6173  -20.3529 O   0  0  0  0  0  0  0  0  0  0  0  0
  -14.5474    9.6771  -22.4929 H   0  0  0  0  0  0  0  0  0  0  0  0
  -14.3516   11.4436  -22.3457 H   0  0  0  0  0  0  0  0  0  0  0  0
  -18.4495   11.0248  -19.1519 N   0  0  0  0  0  0  0  0  0  0  0  0
  -18.9103   11.3747  -17.9082 C   0  0  0  0  0  0  0  0  0  0  0  0
  -19.0454   12.5012  -17.3666 O   0  0  0  0  0  0  0  0  0  0  0  0
  -18.4848    9.9446  -19.3486 H   0  0  0  0  0  0  0  0  0  0  0  0
  -19.3402   10.2514  -16.9998 C   0  0  0  0  0  0  0  0  0  0  0  0
  -20.4743   10.3359  -16.2361 C   0  0  0  0  0  0  0  0  0  0  0  0
  -20.8165    9.2777  -15.4081 C   0  0  0  0  0  0  0  0  0  0  0  0
  -20.0286    8.1551  -15.3525 C   0  0  0  0  0  0  0  0  0  0  0  0
  -20.4020    7.0700  -14.4875 N   0  0  0  0  0  0  0  0  0  0  0  0
  -18.9216    8.0986  -16.1130 N   0  0  0  0  0  0  0  0  0  0  0  0
  -18.5670    9.1096  -16.9233 C   0  0  0  0  0  0  0  0  0  0  0  0
  -20.1482    7.1094  -13.4796 H   0  0  0  0  0  0  0  0  0  0  0  0
  -20.9149    6.2529  -14.8389 H   0  0  0  0  0  0  0  0  0  0  0  0
  -17.4488   14.8805  -22.7867 N   0  0  0  0  0  0  0  0  0  0  0  0
  -17.2436   14.6711  -23.8060 H   0  0  0  0  0  0  0  0  0  0  0  0
  -17.6656   16.2041  -22.4159 C   0  0  0  0  0  0  0  0  0  0  0  0
  -17.0029   16.9012  -21.4325 C   0  0  0  0  0  0  0  0  0  0  0  0
  -17.2679   18.2111  -21.1167 C   0  0  0  0  0  0  0  0  0  0  0  0
  -18.2395   18.8927  -21.7980 C   0  0  0  0  0  0  0  0  0  0  0  0
  -18.5443   20.2123  -21.5182 C   0  0  0  0  0  0  0  0  0  0  0  0
  -19.5187   20.8585  -22.2183 C   0  0  0  0  0  0  0  0  0  0  0  0
  -20.2343   20.2405  -23.2200 C   0  0  0  0  0  0  0  0  0  0  0  0
  -19.9210   18.9360  -23.4844 C   0  0  0  0  0  0  0  0  0  0  0  0
  -18.9314   18.2379  -22.7922 C   0  0  0  0  0  0  0  0  0  0  0  0
  -18.6558   16.9333  -23.0949 C   0  0  0  0  0  0  0  0  0  0  0  0
  6  7  1  0  0  0
  7  8  2  0  0  0
  7  1  1  0  0  0
  1  2  1  0  0  0
  2  3  2  0  0  0
  3 24  1  0  0  0
 24 26  1  0  0  0
 26 27  2  0  0  0
 27 28  1  0  0  0
 28 29  2  0  0  0
 29 30  1  0  0  0
 30 31  2  0  0  0
 31 32  1  0  0  0
 32 33  2  0  0  0
 33 34  1  0  0  0
 34 35  2  0  0  0
  3  4  1  0  0  0
  4  5  1  0  0  0
  5 11  1  0  0  0
 11 12  1  0  0  0
 12 13  2  0  0  0
 12 15  1  0  0  0
 15 16  2  0  0  0
 16 17  1  0  0  0
 17 18  2  0  0  0
 18 19  1  0  0  0
 18 20  1  0  0  0
 20 21  2  0  0  0
  5  1  2  0  0  0
 21 15  1  0  0  0
 35 26  1  0  0  0
 34 29  1  0  0  0
  6  9  1  0  0  0
  6 10  1  0  0  0
 24 25  1  0  0  0
 11 14  1  0  0  0
 19 22  1  0  0  0
 19 23  1  0  0  0
M  END
> <minimizedAffinity>
-7.85664

> <CNNscore>
0.8533397913

> <CNNaffinity>
6.8277139664

> <CNN_VS>
5.8263602257

> <CNNaffinity_variance>
0.0613381639

$$$$
[H]c1nc(N([H])[H])c([H])c([H])c1C(=O)N([H])c1sc(N([H])c2c([H])c([H])c3c([H])c([H])c([H])c([H])c3c2[H])nc1C(=O)N([H])[H]


 35 38  0  0  0  0  0  0  0  0999 V2000
  -17.6147   13.2239  -20.2201 C   0  0  0  0  0  0  0  0  0  0  0  0
  -17.6668   12.3996  -19.2036 N   0  0  0  0  0  0  0  0  0  0  0  0
  -17.4225   11.1301  -19.3218 C   0  0  0  0  0  0  0  0  0  0  0  0
  -17.0774   11.0090  -20.9929 S   0  0  0  0  0  0  0  0  0  0  0  0
  -17.2837   12.7163  -21.4306 C   0  0  0  0  0  0  0  0  0  0  0  0
  -18.6075   15.0170  -18.7401 N   0  0  0  0  0  0  0  0  0  0  0  0
  -18.1442   14.6081  -20.0097 C   0  0  0  0  0  0  0  0  0  0  0  0
  -18.1844   15.4125  -20.9338 O   0  0  0  0  0  0  0  0  0  0  0  0
  -19.3938   15.6821  -18.6828 H   0  0  0  0  0  0  0  0  0  0  0  0
  -18.1739   14.6625  -17.8748 H   0  0  0  0  0  0  0  0  0  0  0  0
  -16.9197   13.2129  -22.7046 N   0  0  0  0  0  0  0  0  0  0  0  0
  -15.8498   13.0273  -23.5425 C   0  0  0  0  0  0  0  0  0  0  0  0
  -14.8354   12.2925  -23.4332 O   0  0  0  0  0  0  0  0  0  0  0  0
  -17.6757   13.9051  -23.0996 H   0  0  0  0  0  0  0  0  0  0  0  0
  -15.8445   13.8169  -24.8264 C   0  0  0  0  0  0  0  0  0  0  0  0
  -16.8016   13.6336  -25.7892 C   0  0  0  0  0  0  0  0  0  0  0  0
  -16.7419   14.3783  -26.9573 C   0  0  0  0  0  0  0  0  0  0  0  0
  -15.7351   15.2912  -27.1494 C   0  0  0  0  0  0  0  0  0  0  0  0
  -15.6923   16.0525  -28.3675 N   0  0  0  0  0  0  0  0  0  0  0  0
  -14.8093   15.4511  -26.1879 N   0  0  0  0  0  0  0  0  0  0  0  0
  -14.8435   14.7425  -25.0473 C   0  0  0  0  0  0  0  0  0  0  0  0
  -15.2639   15.6331  -29.2174 H   0  0  0  0  0  0  0  0  0  0  0  0
  -16.0749   17.0038  -28.4220 H   0  0  0  0  0  0  0  0  0  0  0  0
  -17.4261   10.0719  -18.3506 N   0  0  0  0  0  0  0  0  0  0  0  0
  -16.5389    9.4906  -18.3549 H   0  0  0  0  0  0  0  0  0  0  0  0
  -18.4271    9.7410  -17.4423 C   0  0  0  0  0  0  0  0  0  0  0  0
  -18.5587    8.5532  -16.7610 C   0  0  0  0  0  0  0  0  0  0  0  0
  -19.5749    8.2915  -15.8753 C   0  0  0  0  0  0  0  0  0  0  0  0
  -20.5283    9.2428  -15.6323 C   0  0  0  0  0  0  0  0  0  0  0  0
  -21.5714    9.0284  -14.7499 C   0  0  0  0  0  0  0  0  0  0  0  0
  -22.5023    9.9998  -14.5333 C   0  0  0  0  0  0  0  0  0  0  0  0
  -22.4508   11.2199  -15.1708 C   0  0  0  0  0  0  0  0  0  0  0  0
  -21.4135   11.4161  -16.0399 C   0  0  0  0  0  0  0  0  0  0  0  0
  -20.4399   10.4490  -16.2903 C   0  0  0  0  0  0  0  0  0  0  0  0
  -19.4219   10.6944  -17.1694 C   0  0  0  0  0  0  0  0  0  0  0  0
  6  7  1  0  0  0
  7  8  2  0  0  0
  7  1  1  0  0  0
  1  2  1  0  0  0
  2  3  2  0  0  0
  3 24  1  0  0  0
 24 26  1  0  0  0
 26 27  2  0  0  0
 27 28  1  0  0  0
 28 29  2  0  0  0
 29 30  1  0  0  0
 30 31  2  0  0  0
 31 32  1  0  0  0
 32 33  2  0  0  0
 33 34  1  0  0  0
 34 35  2  0  0  0
  3  4  1  0  0  0
  4  5  1  0  0  0
  5 11  1  0  0  0
 11 12  1  0  0  0
 12 13  2  0  0  0
 12 15  1  0  0  0
 15 16  2  0  0  0
 16 17  1  0  0  0
 17 18  2  0  0  0
 18 19  1  0  0  0
 18 20  1  0  0  0
 20 21  2  0  0  0
  5  1  2  0  0  0
 21 15  1  0  0  0
 35 26  1  0  0  0
 34 29  1  0  0  0
  6  9  1  0  0  0
  6 10  1  0  0  0
 24 25  1  0  0  0
 11 14  1  0  0  0
 19 22  1  0  0  0
 19 23  1  0  0  0
M  END
> <minimizedAffinity>
-9.51161

> <CNNscore>
0.7242193818

> <CNNaffinity>
6.8272619247

> <CNN_VS>
4.9444355965

> <CNNaffinity_variance>
0.0540002696

$$$$
[H]c1nc(N([H])[H])c([H])c([H])c1C(=O)N([H])c1sc(N([H])c2c([H])c([H])c3c([H])c([H])c([H])c([H])c3c2[H])nc1C(=O)N([H])[H]


 35 38  0  0  0  0  0  0  0  0999 V2000
  -17.9020   11.8517  -19.2877 C   0  0  0  0  0  0  0  0  0  0  0  0
  -18.7766   11.6376  -18.3365 N   0  0  0  0  0  0  0  0  0  0  0  0
  -19.6344   12.5372  -17.9623 C   0  0  0  0  0  0  0  0  0  0  0  0
  -19.2352   13.8349  -19.0029 S   0  0  0  0  0  0  0  0  0  0  0  0
  -17.9132   13.0600  -19.8978 C   0  0  0  0  0  0  0  0  0  0  0  0
  -15.7056   10.8068  -18.5979 N   0  0  0  0  0  0  0  0  0  0  0  0
  -16.8187   10.8342  -19.4663 C   0  0  0  0  0  0  0  0  0  0  0  0
  -16.8776   10.0056  -20.3678 O   0  0  0  0  0  0  0  0  0  0  0  0
  -14.7854   10.5259  -18.9698 H   0  0  0  0  0  0  0  0  0  0  0  0
  -15.7988   11.0619  -17.6036 H   0  0  0  0  0  0  0  0  0  0  0  0
  -17.3363   13.6531  -21.0457 N   0  0  0  0  0  0  0  0  0  0  0  0
  -17.0897   13.2329  -22.3279 C   0  0  0  0  0  0  0  0  0  0  0  0
  -17.3496   12.1454  -22.9029 O   0  0  0  0  0  0  0  0  0  0  0  0
  -17.0163   14.6854  -20.8495 H   0  0  0  0  0  0  0  0  0  0  0  0
  -16.3899   14.2064  -23.2414 C   0  0  0  0  0  0  0  0  0  0  0  0
  -16.2535   15.5299  -22.9157 C   0  0  0  0  0  0  0  0  0  0  0  0
  -15.6116   16.3846  -23.7989 C   0  0  0  0  0  0  0  0  0  0  0  0
  -15.1162   15.9116  -24.9884 C   0  0  0  0  0  0  0  0  0  0  0  0
  -14.4543   16.8147  -25.8890 N   0  0  0  0  0  0  0  0  0  0  0  0
  -15.2636   14.6082  -25.2825 N   0  0  0  0  0  0  0  0  0  0  0  0
  -15.8815   13.7589  -24.4451 C   0  0  0  0  0  0  0  0  0  0  0  0
  -15.0220   17.3990  -26.5357 H   0  0  0  0  0  0  0  0  0  0  0  0
  -13.4312   16.8995  -25.9118 H   0  0  0  0  0  0  0  0  0  0  0  0
  -20.6596   12.5061  -16.9567 N   0  0  0  0  0  0  0  0  0  0  0  0
  -21.3960   13.2595  -17.0798 H   0  0  0  0  0  0  0  0  0  0  0  0
  -20.7853   11.6300  -15.8828 C   0  0  0  0  0  0  0  0  0  0  0  0
  -20.1977   11.7572  -14.6455 C   0  0  0  0  0  0  0  0  0  0  0  0
  -20.3645   10.8521  -13.6264 C   0  0  0  0  0  0  0  0  0  0  0  0
  -21.1526    9.7495  -13.8168 C   0  0  0  0  0  0  0  0  0  0  0  0
  -21.3524    8.8091  -12.8228 C   0  0  0  0  0  0  0  0  0  0  0  0
  -22.1444    7.7236  -13.0494 C   0  0  0  0  0  0  0  0  0  0  0  0
  -22.7730    7.5139  -14.2571 C   0  0  0  0  0  0  0  0  0  0  0  0
  -22.5654    8.4527  -15.2293 C   0  0  0  0  0  0  0  0  0  0  0  0
  -21.7629    9.5777  -15.0391 C   0  0  0  0  0  0  0  0  0  0  0  0
  -21.5870   10.4879  -16.0440 C   0  0  0  0  0  0  0  0  0  0  0  0
  6  7  1  0  0  0
  7  8  2  0  0  0
  7  1  1  0  0  0
  1  2  1  0  0  0
  2  3  2  0  0  0
  3 24  1  0  0  0
 24 26  1  0  0  0
 26 27  2  0  0  0
 27 28  1  0  0  0
 28 29  2  0  0  0
 29 30  1  0  0  0
 30 31  2  0  0  0
 31 32  1  0  0  0
 32 33  2  0  0  0
 33 34  1  0  0  0
 34 35  2  0  0  0
  3  4  1  0  0  0
  4  5  1  0  0  0
  5 11  1  0  0  0
 11 12  1  0  0  0
 12 13  2  0  0  0
 12 15  1  0  0  0
 15 16  2  0  0  0
 16 17  1  0  0  0
 17 18  2  0  0  0
 18 19  1  0  0  0
 18 20  1  0  0  0
 20 21  2  0  0  0
  5  1  2  0  0  0
 21 15  1  0  0  0
 35 26  1  0  0  0
 34 29  1  0  0  0
  6  9  1  0  0  0
  6 10  1  0  0  0
 24 25  1  0  0  0
 11 14  1  0  0  0
 19 22  1  0  0  0
 19 23  1  0  0  0
M  END
> <minimizedAffinity>
-8.06635

> <CNNscore>
0.4376287162

> <CNNaffinity>
6.3076982498

> <CNN_VS>
2.7604298592

> <CNNaffinity_variance>
0.1863026321

$$$$
[H]c1nc(N([H])[H])c([H])c([H])c1C(=O)N([H])c1sc(N([H])c2c([H])c([H])c3c([H])c([H])c([H])c([H])c3c2[H])nc1C(=O)N([H])[H]


 35 38  0  0  0  0  0  0  0  0999 V2000
  -17.6559   12.0829  -19.7709 C   0  0  0  0  0  0  0  0  0  0  0  0
  -17.5220   12.9831  -20.7128 N   0  0  0  0  0  0  0  0  0  0  0  0
  -18.4596   13.8323  -21.0046 C   0  0  0  0  0  0  0  0  0  0  0  0
  -19.6766   13.3848  -19.8887 S   0  0  0  0  0  0  0  0  0  0  0  0
  -18.8200   12.0573  -19.0805 C   0  0  0  0  0  0  0  0  0  0  0  0
  -15.8791   10.8141  -18.4964 N   0  0  0  0  0  0  0  0  0  0  0  0
  -16.6102   11.0152  -19.6876 C   0  0  0  0  0  0  0  0  0  0  0  0
  -16.3697   10.2950  -20.6500 O   0  0  0  0  0  0  0  0  0  0  0  0
  -14.8954   10.5093  -18.5565 H   0  0  0  0  0  0  0  0  0  0  0  0
  -16.3115   10.9666  -17.5733 H   0  0  0  0  0  0  0  0  0  0  0  0
  -19.3238   11.4431  -17.9095 N   0  0  0  0  0  0  0  0  0  0  0  0
  -19.1988   10.2007  -17.3418 C   0  0  0  0  0  0  0  0  0  0  0  0
  -18.5338    9.1951  -17.6985 O   0  0  0  0  0  0  0  0  0  0  0  0
  -19.9599   12.1299  -17.3347 H   0  0  0  0  0  0  0  0  0  0  0  0
  -19.9713    9.9508  -16.0720 C   0  0  0  0  0  0  0  0  0  0  0  0
  -21.2622   10.3821  -15.9169 C   0  0  0  0  0  0  0  0  0  0  0  0
  -21.9221   10.1361  -14.7225 C   0  0  0  0  0  0  0  0  0  0  0  0
  -21.2907    9.4667  -13.7041 C   0  0  0  0  0  0  0  0  0  0  0  0
  -21.9933    9.2223  -12.4746 N   0  0  0  0  0  0  0  0  0  0  0  0
  -20.0238    9.0543  -13.8834 N   0  0  0  0  0  0  0  0  0  0  0  0
  -19.3615    9.2799  -15.0300 C   0  0  0  0  0  0  0  0  0  0  0  0
  -22.0329    9.9689  -11.7515 H   0  0  0  0  0  0  0  0  0  0  0  0
  -22.4596    8.3264  -12.2895 H   0  0  0  0  0  0  0  0  0  0  0  0
  -18.5145   14.8807  -21.9848 N   0  0  0  0  0  0  0  0  0  0  0  0
  -19.4016   15.4600  -21.9355 H   0  0  0  0  0  0  0  0  0  0  0  0
  -17.5680   15.2047  -22.9521 C   0  0  0  0  0  0  0  0  0  0  0  0
  -16.4459   15.9809  -22.7765 C   0  0  0  0  0  0  0  0  0  0  0  0
  -15.5497   16.2621  -23.7782 C   0  0  0  0  0  0  0  0  0  0  0  0
  -15.7525   15.7588  -25.0346 C   0  0  0  0  0  0  0  0  0  0  0  0
  -14.8800   16.0127  -26.0771 C   0  0  0  0  0  0  0  0  0  0  0  0
  -15.1150   15.4939  -27.3150 C   0  0  0  0  0  0  0  0  0  0  0  0
  -16.2125   14.7059  -27.5836 C   0  0  0  0  0  0  0  0  0  0  0  0
  -17.0654   14.4643  -26.5424 C   0  0  0  0  0  0  0  0  0  0  0  0
  -16.8622   14.9755  -25.2606 C   0  0  0  0  0  0  0  0  0  0  0  0
  -17.7454   14.7045  -24.2527 C   0  0  0  0  0  0  0  0  0  0  0  0
  6  7  1  0  0  0
  7  8  2  0  0  0
  7  1  1  0  0  0
  1  2  1  0  0  0
  2  3  2  0  0  0
  3 24  1  0  0  0
 24 26  1  0  0  0
 26 27  2  0  0  0
 27 28  1  0  0  0
 28 29  2  0  0  0
 29 30  1  0  0  0
 30 31  2  0  0  0
 31 32  1  0  0  0
 32 33  2  0  0  0
 33 34  1  0  0  0
 34 35  2  0  0  0
  3  4  1  0  0  0
  4  5  1  0  0  0
  5 11  1  0  0  0
 11 12  1  0  0  0
 12 13  2  0  0  0
 12 15  1  0  0  0
 15 16  2  0  0  0
 16 17  1  0  0  0
 17 18  2  0  0  0
 18 19  1  0  0  0
 18 20  1  0  0  0
 20 21  2  0  0  0
  5  1  2  0  0  0
 21 15  1  0  0  0
 35 26  1  0  0  0
 34 29  1  0  0  0
  6  9  1  0  0  0
  6 10  1  0  0  0
 24 25  1  0  0  0
 11 14  1  0  0  0
 19 22  1  0  0  0
 19 23  1  0  0  0
M  END
> <minimizedAffinity>
-9.02370

> <CNNscore>
0.3858872056

> <CNNaffinity>
6.3414831161

> <CNN_VS>
2.4470973015

> <CNNaffinity_variance>
0.2202998698

$$$$
[H]c1nc(N([H])[H])c([H])c([H])c1C(=O)N([H])c1sc(N([H])c2c([H])c([H])c3c([H])c([H])c([H])c([H])c3c2[H])nc1C(=O)N([H])[H]


 35 38  0  0  0  0  0  0  0  0999 V2000
  -19.1631   13.1092  -19.9811 C   0  0  0  0  0  0  0  0  0  0  0  0
  -18.4097   13.1637  -21.0510 N   0  0  0  0  0  0  0  0  0  0  0  0
  -17.3763   12.3955  -21.2164 C   0  0  0  0  0  0  0  0  0  0  0  0
  -17.4036   11.4807  -19.7711 S   0  0  0  0  0  0  0  0  0  0  0  0
  -18.8416   12.2057  -19.0256 C   0  0  0  0  0  0  0  0  0  0  0  0
  -19.7672   15.5355  -19.6076 N   0  0  0  0  0  0  0  0  0  0  0  0
  -20.1749   14.1969  -19.7974 C   0  0  0  0  0  0  0  0  0  0  0  0
  -21.3749   13.9472  -19.8094 O   0  0  0  0  0  0  0  0  0  0  0  0
  -20.3293   16.1501  -18.9991 H   0  0  0  0  0  0  0  0  0  0  0  0
  -18.9211   15.9050  -20.0657 H   0  0  0  0  0  0  0  0  0  0  0  0
  -19.4355   11.6648  -17.8608 N   0  0  0  0  0  0  0  0  0  0  0  0
  -19.4035   10.4417  -17.2408 C   0  0  0  0  0  0  0  0  0  0  0  0
  -18.7735    9.3911  -17.5233 O   0  0  0  0  0  0  0  0  0  0  0  0
  -20.0642   12.4046  -17.3470 H   0  0  0  0  0  0  0  0  0  0  0  0
  -20.2519   10.2816  -16.0053 C   0  0  0  0  0  0  0  0  0  0  0  0
  -21.5687   10.6585  -15.9813 C   0  0  0  0  0  0  0  0  0  0  0  0
  -22.2997   10.5004  -14.8138 C   0  0  0  0  0  0  0  0  0  0  0  0
  -21.7124    9.9713  -13.6917 C   0  0  0  0  0  0  0  0  0  0  0  0
  -22.4886    9.8161  -12.4923 N   0  0  0  0  0  0  0  0  0  0  0  0
  -20.4187    9.6095  -13.7433 N   0  0  0  0  0  0  0  0  0  0  0  0
  -19.6877    9.7522  -14.8612 C   0  0  0  0  0  0  0  0  0  0  0  0
  -22.6128   10.6289  -11.8553 H   0  0  0  0  0  0  0  0  0  0  0  0
  -22.9259    8.9205  -12.2457 H   0  0  0  0  0  0  0  0  0  0  0  0
  -16.4338   12.2974  -22.2958 N   0  0  0  0  0  0  0  0  0  0  0  0
  -15.5815   11.7112  -22.0615 H   0  0  0  0  0  0  0  0  0  0  0  0
  -16.5153   12.8655  -23.5635 C   0  0  0  0  0  0  0  0  0  0  0  0
  -17.4989   12.6474  -24.5002 C   0  0  0  0  0  0  0  0  0  0  0  0
  -17.5186   13.2432  -25.7372 C   0  0  0  0  0  0  0  0  0  0  0  0
  -16.5194   14.1083  -26.0924 C   0  0  0  0  0  0  0  0  0  0  0  0
  -16.4934   14.7337  -27.3256 C   0  0  0  0  0  0  0  0  0  0  0  0
  -15.4817   15.5894  -27.6438 C   0  0  0  0  0  0  0  0  0  0  0  0
  -14.4546   15.8681  -26.7691 C   0  0  0  0  0  0  0  0  0  0  0  0
  -14.4949   15.2418  -25.5542 C   0  0  0  0  0  0  0  0  0  0  0  0
  -15.5115   14.3594  -25.1885 C   0  0  0  0  0  0  0  0  0  0  0  0
  -15.5060   13.7583  -23.9605 C   0  0  0  0  0  0  0  0  0  0  0  0
  6  7  1  0  0  0
  7  8  2  0  0  0
  7  1  1  0  0  0
  1  2  1  0  0  0
  2  3  2  0  0  0
  3 24  1  0  0  0
 24 26  1  0  0  0
 26 27  2  0  0  0
 27 28  1  0  0  0
 28 29  2  0  0  0
 29 30  1  0  0  0
 30 31  2  0  0  0
 31 32  1  0  0  0
 32 33  2  0  0  0
 33 34  1  0  0  0
 34 35  2  0  0  0
  3  4  1  0  0  0
  4  5  1  0  0  0
  5 11  1  0  0  0
 11 12  1  0  0  0
 12 13  2  0  0  0
 12 15  1  0  0  0
 15 16  2  0  0  0
 16 17  1  0  0  0
 17 18  2  0  0  0
 18 19  1  0  0  0
 18 20  1  0  0  0
 20 21  2  0  0  0
  5  1  2  0  0  0
 21 15  1  0  0  0
 35 26  1  0  0  0
 34 29  1  0  0  0
  6  9  1  0  0  0
  6 10  1  0  0  0
 24 25  1  0  0  0
 11 14  1  0  0  0
 19 22  1  0  0  0
 19 23  1  0  0  0
M  END
> <minimizedAffinity>
-9.28225

> <CNNscore>
0.3236149251

> <CNNaffinity>
6.2609906197

> <CNN_VS>
2.0261499882

> <CNNaffinity_variance>
0.2226807177

$$$$
[H]c1nc(N([H])[H])c([H])c([H])c1C(=O)N([H])c1sc(N([H])c2c([H])c([H])c3c([H])c([H])c([H])c([H])c3c2[H])nc1C(=O)N([H])[H]


 35 38  0  0  0  0  0  0  0  0999 V2000
  -18.0820   12.3156  -19.5102 C   0  0  0  0  0  0  0  0  0  0  0  0
  -19.0342   12.2169  -18.6163 N   0  0  0  0  0  0  0  0  0  0  0  0
  -19.9040   13.1597  -18.4167 C   0  0  0  0  0  0  0  0  0  0  0  0
  -19.3998   14.3287  -19.5593 S   0  0  0  0  0  0  0  0  0  0  0  0
  -18.0232   13.4475  -20.2503 C   0  0  0  0  0  0  0  0  0  0  0  0
  -16.8927   10.3295  -20.5263 N   0  0  0  0  0  0  0  0  0  0  0  0
  -17.0054   11.2759  -19.4844 C   0  0  0  0  0  0  0  0  0  0  0  0
  -16.2013   11.2271  -18.5604 O   0  0  0  0  0  0  0  0  0  0  0  0
  -16.5651    9.3766  -20.3057 H   0  0  0  0  0  0  0  0  0  0  0  0
  -17.1316   10.5756  -21.4982 H   0  0  0  0  0  0  0  0  0  0  0  0
  -17.3453   13.9029  -21.4058 N   0  0  0  0  0  0  0  0  0  0  0  0
  -16.9883   13.3340  -22.6018 C   0  0  0  0  0  0  0  0  0  0  0  0
  -17.2007   12.1838  -23.0629 O   0  0  0  0  0  0  0  0  0  0  0  0
  -17.0400   14.9535  -21.3074 H   0  0  0  0  0  0  0  0  0  0  0  0
  -16.2073   14.1960  -23.5603 C   0  0  0  0  0  0  0  0  0  0  0  0
  -14.8482   14.0824  -23.6884 C   0  0  0  0  0  0  0  0  0  0  0  0
  -14.1777   14.9094  -24.5767 C   0  0  0  0  0  0  0  0  0  0  0  0
  -14.8667   15.8336  -25.3219 C   0  0  0  0  0  0  0  0  0  0  0  0
  -14.1520   16.6807  -26.2366 N   0  0  0  0  0  0  0  0  0  0  0  0
  -16.2001   15.9234  -25.1765 N   0  0  0  0  0  0  0  0  0  0  0  0
  -16.8739   15.1348  -24.3231 C   0  0  0  0  0  0  0  0  0  0  0  0
  -13.6894   17.5416  -25.8807 H   0  0  0  0  0  0  0  0  0  0  0  0
  -14.0852   16.4582  -27.2368 H   0  0  0  0  0  0  0  0  0  0  0  0
  -21.0075   13.2502  -17.5017 N   0  0  0  0  0  0  0  0  0  0  0  0
  -21.4601   12.3144  -17.2907 H   0  0  0  0  0  0  0  0  0  0  0  0
  -21.5254   14.3866  -16.8879 C   0  0  0  0  0  0  0  0  0  0  0  0
  -21.6308   14.6144  -15.5353 C   0  0  0  0  0  0  0  0  0  0  0  0
  -22.1540   15.7631  -14.9947 C   0  0  0  0  0  0  0  0  0  0  0  0
  -22.6060   16.7587  -15.8177 C   0  0  0  0  0  0  0  0  0  0  0  0
  -23.1413   17.9340  -15.3231 C   0  0  0  0  0  0  0  0  0  0  0  0
  -23.5811   18.9033  -16.1740 C   0  0  0  0  0  0  0  0  0  0  0  0
  -23.5153   18.7626  -17.5427 C   0  0  0  0  0  0  0  0  0  0  0  0
  -22.9835   17.5949  -18.0157 C   0  0  0  0  0  0  0  0  0  0  0  0
  -22.5218   16.5779  -17.1801 C   0  0  0  0  0  0  0  0  0  0  0  0
  -21.9982   15.4283  -17.7032 C   0  0  0  0  0  0  0  0  0  0  0  0
  6  7  1  0  0  0
  7  8  2  0  0  0
  7  1  1  0  0  0
  1  2  1  0  0  0
  2  3  2  0  0  0
  3 24  1  0  0  0
 24 26  1  0  0  0
 26 27  2  0  0  0
 27 28  1  0  0  0
 28 29  2  0  0  0
 29 30  1  0  0  0
 30 31  2  0  0  0
 31 32  1  0  0  0
 32 33  2  0  0  0
 33 34  1  0  0  0
 34 35  2  0  0  0
  3  4  1  0  0  0
  4  5  1  0  0  0
  5 11  1  0  0  0
 11 12  1  0  0  0
 12 13  2  0  0  0
 12 15  1  0  0  0
 15 16  2  0  0  0
 16 17  1  0  0  0
 17 18  2  0  0  0
 18 19  1  0  0  0
 18 20  1  0  0  0
 20 21  2  0  0  0
  5  1  2  0  0  0
 21 15  1  0  0  0
 35 26  1  0  0  0
 34 29  1  0  0  0
  6  9  1  0  0  0
  6 10  1  0  0  0
 24 25  1  0  0  0
 11 14  1  0  0  0
 19 22  1  0  0  0
 19 23  1  0  0  0
M  END
> <minimizedAffinity>
-7.35801

> <CNNscore>
0.3236073256

> <CNNaffinity>
6.4200601578

> <CNN_VS>
2.0775785446

> <CNNaffinity_variance>
0.2049521953

$$$$
[H]c1nc(N([H])c2c([H])c([H])c(N3C([H])([H])C([H])([H])N(C([H])([H])[H])C([H])([H])C3([H])[H])c([H])c2OC([H])([H])[H])nc2c1C([H])([H])C([H])([H])c1c(C(=O)N([H])[H])nn(C([H])([H])[H])c1-2


 36 40  0  0  0  0  0  0  0  0999 V2000
  -18.1302   12.2342  -19.3230 C   0  0  0  0  0  0  0  0  0  0  0  0
  -17.6521   11.2037  -20.0061 N   0  0  0  0  0  0  0  0  0  0  0  0
  -17.0830   11.2688  -21.2167 C   0  0  0  0  0  0  0  0  0  0  0  0
  -16.9983   12.5307  -21.7823 C   0  0  0  0  0  0  0  0  0  0  0  0
  -16.3817   12.6290  -23.1068 C   0  0  0  0  0  0  0  0  0  0  0  0
  -16.2984   13.9892  -23.6795 C   0  0  0  0  0  0  0  0  0  0  0  0
  -16.8384   15.0920  -22.8965 C   0  0  0  0  0  0  0  0  0  0  0  0
  -16.9041   16.4610  -23.1813 C   0  0  0  0  0  0  0  0  0  0  0  0
  -17.4861   17.0384  -22.1457 N   0  0  0  0  0  0  0  0  0  0  0  0
  -17.8016   16.1760  -21.2225 N   0  0  0  0  0  0  0  0  0  0  0  0
  -18.4471   16.3991  -19.9455 C   0  0  0  0  0  0  0  0  0  0  0  0
  -17.4012   14.9572  -21.6819 C   0  0  0  0  0  0  0  0  0  0  0  0
  -17.4856   13.6128  -21.0955 C   0  0  0  0  0  0  0  0  0  0  0  0
  -18.0497   13.5049  -19.8822 N   0  0  0  0  0  0  0  0  0  0  0  0
  -16.4131   17.0826  -24.3965 C   0  0  0  0  0  0  0  0  0  0  0  0
  -15.1227   16.7368  -24.8811 N   0  0  0  0  0  0  0  0  0  0  0  0
  -17.0836   17.9182  -25.0423 O   0  0  0  0  0  0  0  0  0  0  0  0
  -14.9304   15.7347  -25.0938 H   0  0  0  0  0  0  0  0  0  0  0  0
  -14.3733   17.4462  -25.0282 H   0  0  0  0  0  0  0  0  0  0  0  0
  -18.7254   12.1416  -18.0495 N   0  0  0  0  0  0  0  0  0  0  0  0
  -18.8862   13.0675  -17.5092 H   0  0  0  0  0  0  0  0  0  0  0  0
  -20.3324   11.0484  -16.6273 C   0  0  0  0  0  0  0  0  0  0  0  0
  -20.7702    9.9498  -15.9602 C   0  0  0  0  0  0  0  0  0  0  0  0
  -20.0955    8.7512  -15.9787 C   0  0  0  0  0  0  0  0  0  0  0  0
  -18.9346    8.6753  -16.7039 C   0  0  0  0  0  0  0  0  0  0  0  0
  -18.4694    9.7882  -17.3937 C   0  0  0  0  0  0  0  0  0  0  0  0
  -19.1463   10.9877  -17.3741 C   0  0  0  0  0  0  0  0  0  0  0  0
  -20.6078    7.6439  -15.2575 N   0  0  0  0  0  0  0  0  0  0  0  0
  -22.0155    7.2953  -15.3766 C   0  0  0  0  0  0  0  0  0  0  0  0
  -22.4418    6.4361  -14.1790 C   0  0  0  0  0  0  0  0  0  0  0  0
  -21.6906    5.2231  -14.1467 N   0  0  0  0  0  0  0  0  0  0  0  0
  -22.2256    4.3586  -15.2106 C   0  0  0  0  0  0  0  0  0  0  0  0
  -20.2960    5.3754  -14.3939 C   0  0  0  0  0  0  0  0  0  0  0  0
  -19.8124    6.8119  -14.3910 C   0  0  0  0  0  0  0  0  0  0  0  0
  -21.4667   12.7347  -15.3584 C   0  0  0  0  0  0  0  0  0  0  0  0
  -21.0221   12.2319  -16.5939 O   0  0  0  0  0  0  0  0  0  0  0  0
 35 36  1  0  0  0
 36 22  1  0  0  0
 22 23  2  0  0  0
 23 24  1  0  0  0
 24 25  2  0  0  0
 25 26  1  0  0  0
 26 27  2  0  0  0
 27 20  1  0  0  0
 20  1  1  0  0  0
  1  2  2  0  0  0
  2  3  1  0  0  0
  3  4  2  0  0  0
  4  5  1  0  0  0
  5  6  1  0  0  0
  6  7  1  0  0  0
  7  8  1  0  0  0
  8  9  2  0  0  0
  9 10  1  0  0  0
 10 11  1  0  0  0
 10 12  1  0  0  0
 12 13  1  0  0  0
 13 14  2  0  0  0
  8 15  1  0  0  0
 15 16  1  0  0  0
 15 17  2  0  0  0
 24 28  1  0  0  0
 28 29  1  0  0  0
 29 30  1  0  0  0
 30 31  1  0  0  0
 31 32  1  0  0  0
 31 33  1  0  0  0
 33 34  1  0  0  0
 27 22  1  0  0  0
 14  1  1  0  0  0
 34 28  1  0  0  0
 13  4  1  0  0  0
 12  7  2  0  0  0
 20 21  1  0  0  0
 16 18  1  0  0  0
 16 19  1  0  0  0
M  END
> <minimizedAffinity>
-8.82711

> <CNNscore>
0.5339813232

> <CNNaffinity>
7.2072091103

> <CNN_VS>
3.8485150337

> <CNNaffinity_variance>
0.3249381483

$$$$
[H]c1nc(N([H])c2c([H])c([H])c(N3C([H])([H])C([H])([H])N(C([H])([H])[H])C([H])([H])C3([H])[H])c([H])c2OC([H])([H])[H])nc2c1C([H])([H])C([H])([H])c1c(C(=O)N([H])[H])nn(C([H])([H])[H])c1-2


 36 40  0  0  0  0  0  0  0  0999 V2000
  -17.7539   10.5666  -18.6523 C   0  0  0  0  0  0  0  0  0  0  0  0
  -17.1786    9.8130  -19.5788 N   0  0  0  0  0  0  0  0  0  0  0  0
  -16.7495   10.2399  -20.7734 C   0  0  0  0  0  0  0  0  0  0  0  0
  -16.9334   11.5869  -21.0405 C   0  0  0  0  0  0  0  0  0  0  0  0
  -16.4745   12.0788  -22.3410 C   0  0  0  0  0  0  0  0  0  0  0  0
  -16.6769   13.5213  -22.5924 C   0  0  0  0  0  0  0  0  0  0  0  0
  -17.3153   14.3114  -21.5489 C   0  0  0  0  0  0  0  0  0  0  0  0
  -17.6373   15.6731  -21.5098 C   0  0  0  0  0  0  0  0  0  0  0  0
  -18.2041   15.8975  -20.3380 N   0  0  0  0  0  0  0  0  0  0  0  0
  -18.2786   14.8144  -19.6191 N   0  0  0  0  0  0  0  0  0  0  0  0
  -18.8247   14.6355  -18.2898 C   0  0  0  0  0  0  0  0  0  0  0  0
  -17.7262   13.8180  -20.3665 C   0  0  0  0  0  0  0  0  0  0  0  0
  -17.5261   12.3874  -20.0982 C   0  0  0  0  0  0  0  0  0  0  0  0
  -17.9428   11.9199  -18.9109 N   0  0  0  0  0  0  0  0  0  0  0  0
  -17.3787   16.6202  -22.5776 C   0  0  0  0  0  0  0  0  0  0  0  0
  -18.4217   16.9438  -23.4869 N   0  0  0  0  0  0  0  0  0  0  0  0
  -16.2657   17.1697  -22.7337 O   0  0  0  0  0  0  0  0  0  0  0  0
  -19.3062   17.3366  -23.0999 H   0  0  0  0  0  0  0  0  0  0  0  0
  -18.3294   16.8018  -24.5154 H   0  0  0  0  0  0  0  0  0  0  0  0
  -18.1979   10.0951  -17.4012 N   0  0  0  0  0  0  0  0  0  0  0  0
  -17.5027    9.4991  -16.8212 H   0  0  0  0  0  0  0  0  0  0  0  0
  -20.0233    9.2330  -16.0878 C   0  0  0  0  0  0  0  0  0  0  0  0
  -21.2302    9.3941  -15.4870 C   0  0  0  0  0  0  0  0  0  0  0  0
  -21.9327   10.5758  -15.5356 C   0  0  0  0  0  0  0  0  0  0  0  0
  -21.3811   11.6266  -16.2218 C   0  0  0  0  0  0  0  0  0  0  0  0
  -20.1470   11.4824  -16.8437 C   0  0  0  0  0  0  0  0  0  0  0  0
  -19.4449   10.2983  -16.7940 C   0  0  0  0  0  0  0  0  0  0  0  0
  -23.1894   10.6747  -14.8877 N   0  0  0  0  0  0  0  0  0  0  0  0
  -23.4423   11.7753  -13.9700 C   0  0  0  0  0  0  0  0  0  0  0  0
  -24.6085   11.4187  -13.0389 C   0  0  0  0  0  0  0  0  0  0  0  0
  -25.7975   11.1967  -13.7962 N   0  0  0  0  0  0  0  0  0  0  0  0
  -26.2849   12.5169  -14.2266 C   0  0  0  0  0  0  0  0  0  0  0  0
  -25.6210   10.4127  -14.9724 C   0  0  0  0  0  0  0  0  0  0  0  0
  -24.2677    9.7386  -15.0788 C   0  0  0  0  0  0  0  0  0  0  0  0
  -19.7302    7.0783  -15.0818 C   0  0  0  0  0  0  0  0  0  0  0  0
  -19.3421    8.0458  -16.0255 O   0  0  0  0  0  0  0  0  0  0  0  0
 35 36  1  0  0  0
 36 22  1  0  0  0
 22 23  2  0  0  0
 23 24  1  0  0  0
 24 25  2  0  0  0
 25 26  1  0  0  0
 26 27  2  0  0  0
 27 20  1  0  0  0
 20  1  1  0  0  0
  1  2  2  0  0  0
  2  3  1  0  0  0
  3  4  2  0  0  0
  4  5  1  0  0  0
  5  6  1  0  0  0
  6  7  1  0  0  0
  7  8  1  0  0  0
  8  9  2  0  0  0
  9 10  1  0  0  0
 10 11  1  0  0  0
 10 12  1  0  0  0
 12 13  1  0  0  0
 13 14  2  0  0  0
  8 15  1  0  0  0
 15 16  1  0  0  0
 15 17  2  0  0  0
 24 28  1  0  0  0
 28 29  1  0  0  0
 29 30  1  0  0  0
 30 31  1  0  0  0
 31 32  1  0  0  0
 31 33  1  0  0  0
 33 34  1  0  0  0
 27 22  1  0  0  0
 14  1  1  0  0  0
 34 28  1  0  0  0
 13  4  1  0  0  0
 12  7  2  0  0  0
 20 21  1  0  0  0
 16 18  1  0  0  0
 16 19  1  0  0  0
M  END
> <minimizedAffinity>
-7.86551

> <CNNscore>
0.4593648016

> <CNNaffinity>
6.8829421997

> <CNN_VS>
3.1617813110

> <CNNaffinity_variance>
0.1033890024

$$$$
[H]c1nc(N([H])c2c([H])c([H])c(N3C([H])([H])C([H])([H])N(C([H])([H])[H])C([H])([H])C3([H])[H])c([H])c2OC([H])([H])[H])nc2c1C([H])([H])C([H])([H])c1c(C(=O)N([H])[H])nn(C([H])([H])[H])c1-2


 36 40  0  0  0  0  0  0  0  0999 V2000
  -18.4667   12.5547  -19.9887 C   0  0  0  0  0  0  0  0  0  0  0  0
  -17.6577   11.5150  -20.1358 N   0  0  0  0  0  0  0  0  0  0  0  0
  -16.7493   11.3669  -21.1087 C   0  0  0  0  0  0  0  0  0  0  0  0
  -16.6670   12.4010  -22.0270 C   0  0  0  0  0  0  0  0  0  0  0  0
  -15.6828   12.2629  -23.1022 C   0  0  0  0  0  0  0  0  0  0  0  0
  -15.6133   13.3861  -24.0607 C   0  0  0  0  0  0  0  0  0  0  0  0
  -16.5221   14.5067  -23.8634 C   0  0  0  0  0  0  0  0  0  0  0  0
  -16.6849   15.6846  -24.6021 C   0  0  0  0  0  0  0  0  0  0  0  0
  -17.6397   16.3780  -24.0087 N   0  0  0  0  0  0  0  0  0  0  0  0
  -18.1076   15.7625  -22.9610 N   0  0  0  0  0  0  0  0  0  0  0  0
  -19.1490   16.1795  -22.0452 C   0  0  0  0  0  0  0  0  0  0  0  0
  -17.4161   14.5926  -22.8616 C   0  0  0  0  0  0  0  0  0  0  0  0
  -17.4931   13.4876  -21.8964 C   0  0  0  0  0  0  0  0  0  0  0  0
  -18.3916   13.5978  -20.9052 N   0  0  0  0  0  0  0  0  0  0  0  0
  -15.9261   16.0347  -25.7878 C   0  0  0  0  0  0  0  0  0  0  0  0
  -14.6828   16.7076  -25.6433 N   0  0  0  0  0  0  0  0  0  0  0  0
  -16.3235   15.7670  -26.9434 O   0  0  0  0  0  0  0  0  0  0  0  0
  -13.9392   16.2485  -25.0752 H   0  0  0  0  0  0  0  0  0  0  0  0
  -14.4953   17.6340  -26.0828 H   0  0  0  0  0  0  0  0  0  0  0  0
  -19.4156   12.6889  -18.9561 N   0  0  0  0  0  0  0  0  0  0  0  0
  -20.1648   13.4641  -19.0692 H   0  0  0  0  0  0  0  0  0  0  0  0
  -19.9454   12.5885  -16.6089 C   0  0  0  0  0  0  0  0  0  0  0  0
  -20.0601   11.8921  -15.4489 C   0  0  0  0  0  0  0  0  0  0  0  0
  -19.7764   10.5492  -15.3572 C   0  0  0  0  0  0  0  0  0  0  0  0
  -19.3617    9.8984  -16.4903 C   0  0  0  0  0  0  0  0  0  0  0  0
  -19.2378   10.5929  -17.6874 C   0  0  0  0  0  0  0  0  0  0  0  0
  -19.5223   11.9376  -17.7774 C   0  0  0  0  0  0  0  0  0  0  0  0
  -19.9154    9.8838  -14.1135 N   0  0  0  0  0  0  0  0  0  0  0  0
  -19.1249    8.6928  -13.8413 C   0  0  0  0  0  0  0  0  0  0  0  0
  -19.7759    7.8834  -12.7120 C   0  0  0  0  0  0  0  0  0  0  0  0
  -19.8297    8.6576  -11.5144 N   0  0  0  0  0  0  0  0  0  0  0  0
  -18.4641    8.6973  -10.9673 C   0  0  0  0  0  0  0  0  0  0  0  0
  -20.2478   10.0078  -11.6922 C   0  0  0  0  0  0  0  0  0  0  0  0
  -20.8071   10.3145  -13.0671 C   0  0  0  0  0  0  0  0  0  0  0  0
  -21.5339   14.3662  -16.3698 C   0  0  0  0  0  0  0  0  0  0  0  0
  -20.2338   13.9263  -16.6756 O   0  0  0  0  0  0  0  0  0  0  0  0
 35 36  1  0  0  0
 36 22  1  0  0  0
 22 23  2  0  0  0
 23 24  1  0  0  0
 24 25  2  0  0  0
 25 26  1  0  0  0
 26 27  2  0  0  0
 27 20  1  0  0  0
 20  1  1  0  0  0
  1  2  2  0  0  0
  2  3  1  0  0  0
  3  4  2  0  0  0
  4  5  1  0  0  0
  5  6  1  0  0  0
  6  7  1  0  0  0
  7  8  1  0  0  0
  8  9  2  0  0  0
  9 10  1  0  0  0
 10 11  1  0  0  0
 10 12  1  0  0  0
 12 13  1  0  0  0
 13 14  2  0  0  0
  8 15  1  0  0  0
 15 16  1  0  0  0
 15 17  2  0  0  0
 24 28  1  0  0  0
 28 29  1  0  0  0
 29 30  1  0  0  0
 30 31  1  0  0  0
 31 32  1  0  0  0
 31 33  1  0  0  0
 33 34  1  0  0  0
 27 22  1  0  0  0
 14  1  1  0  0  0
 34 28  1  0  0  0
 13  4  1  0  0  0
 12  7  2  0  0  0
 20 21  1  0  0  0
 16 18  1  0  0  0
 16 19  1  0  0  0
M  END
> <minimizedAffinity>
-8.55788

> <CNNscore>
0.3637654781

> <CNNaffinity>
7.0709829330

> <CNN_VS>
2.5721795559

> <CNNaffinity_variance>
0.1434067488

$$$$
[H]c1nc(N([H])c2c([H])c([H])c(N3C([H])([H])C([H])([H])N(C([H])([H])[H])C([H])([H])C3([H])[H])c([H])c2OC([H])([H])[H])nc2c1C([H])([H])C([H])([H])c1c(C(=O)N([H])[H])nn(C([H])([H])[H])c1-2


 36 40  0  0  0  0  0  0  0  0999 V2000
  -18.1427   11.7696  -19.3648 C   0  0  0  0  0  0  0  0  0  0  0  0
  -17.3096   10.7732  -19.6300 N   0  0  0  0  0  0  0  0  0  0  0  0
  -16.4776   10.7120  -20.6777 C   0  0  0  0  0  0  0  0  0  0  0  0
  -16.5084   11.7934  -21.5433 C   0  0  0  0  0  0  0  0  0  0  0  0
  -15.6093   11.7504  -22.6982 C   0  0  0  0  0  0  0  0  0  0  0  0
  -15.6594   12.9222  -23.5979 C   0  0  0  0  0  0  0  0  0  0  0  0
  -16.5909   13.9927  -23.2705 C   0  0  0  0  0  0  0  0  0  0  0  0
  -16.8567   15.1983  -23.9304 C   0  0  0  0  0  0  0  0  0  0  0  0
  -17.7861   15.8207  -23.2279 N   0  0  0  0  0  0  0  0  0  0  0  0
  -18.1447   15.1345  -22.1809 N   0  0  0  0  0  0  0  0  0  0  0  0
  -19.1239   15.4613  -21.1654 C   0  0  0  0  0  0  0  0  0  0  0  0
  -17.4039   13.9910  -22.1985 C   0  0  0  0  0  0  0  0  0  0  0  0
  -17.3615   12.8367  -21.2906 C   0  0  0  0  0  0  0  0  0  0  0  0
  -18.1808   12.8595  -20.2275 N   0  0  0  0  0  0  0  0  0  0  0  0
  -16.2095   15.6387  -25.1516 C   0  0  0  0  0  0  0  0  0  0  0  0
  -16.6101   15.0741  -26.3927 N   0  0  0  0  0  0  0  0  0  0  0  0
  -15.3049   16.5028  -25.1590 O   0  0  0  0  0  0  0  0  0  0  0  0
  -17.6110   15.1600  -26.6709 H   0  0  0  0  0  0  0  0  0  0  0  0
  -15.9416   14.5833  -27.0241 H   0  0  0  0  0  0  0  0  0  0  0  0
  -19.0098   11.8122  -18.2552 N   0  0  0  0  0  0  0  0  0  0  0  0
  -19.4606   12.7683  -18.0151 H   0  0  0  0  0  0  0  0  0  0  0  0
  -20.4685   10.9487  -16.5444 C   0  0  0  0  0  0  0  0  0  0  0  0
  -20.8502    9.9519  -15.7052 C   0  0  0  0  0  0  0  0  0  0  0  0
  -20.2054    8.7381  -15.6513 C   0  0  0  0  0  0  0  0  0  0  0  0
  -19.1348    8.5386  -16.4839 C   0  0  0  0  0  0  0  0  0  0  0  0
  -18.7280    9.5459  -17.3502 C   0  0  0  0  0  0  0  0  0  0  0  0
  -19.3749   10.7609  -17.4029 C   0  0  0  0  0  0  0  0  0  0  0  0
  -20.6553    7.7415  -14.7494 N   0  0  0  0  0  0  0  0  0  0  0  0
  -20.9085    8.0890  -13.3593 C   0  0  0  0  0  0  0  0  0  0  0  0
  -20.8879    6.8219  -12.4943 C   0  0  0  0  0  0  0  0  0  0  0  0
  -21.9099    5.9185  -12.9140 N   0  0  0  0  0  0  0  0  0  0  0  0
  -23.1892    6.4647  -12.4339 C   0  0  0  0  0  0  0  0  0  0  0  0
  -22.0266    5.7596  -14.3248 C   0  0  0  0  0  0  0  0  0  0  0  0
  -20.8895    6.3691  -15.1202 C   0  0  0  0  0  0  0  0  0  0  0  0
  -21.4980   12.7675  -15.3727 C   0  0  0  0  0  0  0  0  0  0  0  0
  -21.1267   12.1498  -16.5802 O   0  0  0  0  0  0  0  0  0  0  0  0
 35 36  1  0  0  0
 36 22  1  0  0  0
 22 23  2  0  0  0
 23 24  1  0  0  0
 24 25  2  0  0  0
 25 26  1  0  0  0
 26 27  2  0  0  0
 27 20  1  0  0  0
 20  1  1  0  0  0
  1  2  2  0  0  0
  2  3  1  0  0  0
  3  4  2  0  0  0
  4  5  1  0  0  0
  5  6  1  0  0  0
  6  7  1  0  0  0
  7  8  1  0  0  0
  8  9  2  0  0  0
  9 10  1  0  0  0
 10 11  1  0  0  0
 10 12  1  0  0  0
 12 13  1  0  0  0
 13 14  2  0  0  0
  8 15  1  0  0  0
 15 16  1  0  0  0
 15 17  2  0  0  0
 24 28  1  0  0  0
 28 29  1  0  0  0
 29 30  1  0  0  0
 30 31  1  0  0  0
 31 32  1  0  0  0
 31 33  1  0  0  0
 33 34  1  0  0  0
 27 22  1  0  0  0
 14  1  1  0  0  0
 34 28  1  0  0  0
 13  4  1  0  0  0
 12  7  2  0  0  0
 20 21  1  0  0  0
 16 18  1  0  0  0
 16 19  1  0  0  0
M  END
> <minimizedAffinity>
-8.26029

> <CNNscore>
0.3583723903

> <CNNaffinity>
7.0118088722

> <CNN_VS>
2.5128386021

> <CNNaffinity_variance>
0.1519525498

$$$$
[H]c1nc(N([H])c2c([H])c([H])c(N3C([H])([H])C([H])([H])N(C([H])([H])[H])C([H])([H])C3([H])[H])c([H])c2OC([H])([H])[H])nc2c1C([H])([H])C([H])([H])c1c(C(=O)N([H])[H])nn(C([H])([H])[H])c1-2


 36 40  0  0  0  0  0  0  0  0999 V2000
  -18.7249   13.4908  -20.3567 C   0  0  0  0  0  0  0  0  0  0  0  0
  -19.5055   14.5620  -20.3374 N   0  0  0  0  0  0  0  0  0  0  0  0
  -19.4811   15.5593  -21.2309 C   0  0  0  0  0  0  0  0  0  0  0  0
  -18.5530   15.4386  -22.2524 C   0  0  0  0  0  0  0  0  0  0  0  0
  -18.5046   16.5169  -23.2418 C   0  0  0  0  0  0  0  0  0  0  0  0
  -17.5102   16.3549  -24.3235 C   0  0  0  0  0  0  0  0  0  0  0  0
  -16.6714   15.1647  -24.3047 C   0  0  0  0  0  0  0  0  0  0  0  0
  -15.6577   14.7544  -25.1786 C   0  0  0  0  0  0  0  0  0  0  0  0
  -15.2060   13.5997  -24.7233 N   0  0  0  0  0  0  0  0  0  0  0  0
  -15.8289   13.2264  -23.6425 N   0  0  0  0  0  0  0  0  0  0  0  0
  -15.6359   12.0356  -22.8415 C   0  0  0  0  0  0  0  0  0  0  0  0
  -16.7462   14.1972  -23.3727 C   0  0  0  0  0  0  0  0  0  0  0  0
  -17.7340   14.3397  -22.2945 C   0  0  0  0  0  0  0  0  0  0  0  0
  -17.7903   13.3605  -21.3781 N   0  0  0  0  0  0  0  0  0  0  0  0
  -15.2202   15.4904  -26.3495 C   0  0  0  0  0  0  0  0  0  0  0  0
  -14.2361   16.5053  -26.2044 N   0  0  0  0  0  0  0  0  0  0  0  0
  -15.6768   15.2678  -27.4927 O   0  0  0  0  0  0  0  0  0  0  0  0
  -13.3145   16.2407  -25.7957 H   0  0  0  0  0  0  0  0  0  0  0  0
  -14.4066   17.4929  -26.4907 H   0  0  0  0  0  0  0  0  0  0  0  0
  -18.7685   12.4531  -19.4049 N   0  0  0  0  0  0  0  0  0  0  0  0
  -18.1766   11.5683  -19.6090 H   0  0  0  0  0  0  0  0  0  0  0  0
  -19.4236   11.2458  -17.4266 C   0  0  0  0  0  0  0  0  0  0  0  0
  -20.1100   11.1705  -16.2575 C   0  0  0  0  0  0  0  0  0  0  0  0
  -20.8863   12.2025  -15.7838 C   0  0  0  0  0  0  0  0  0  0  0  0
  -20.9621   13.3489  -16.5316 C   0  0  0  0  0  0  0  0  0  0  0  0
  -20.2674   13.4462  -17.7310 C   0  0  0  0  0  0  0  0  0  0  0  0
  -19.4904   12.4117  -18.2040 C   0  0  0  0  0  0  0  0  0  0  0  0
  -21.5787   12.0561  -14.5557 N   0  0  0  0  0  0  0  0  0  0  0  0
  -21.1339   11.0608  -13.5920 C   0  0  0  0  0  0  0  0  0  0  0  0
  -22.2731   10.7352  -12.6171 C   0  0  0  0  0  0  0  0  0  0  0  0
  -22.6570   11.9046  -11.8948 N   0  0  0  0  0  0  0  0  0  0  0  0
  -21.6068   12.1554  -10.8948 C   0  0  0  0  0  0  0  0  0  0  0  0
  -22.7730   13.0849  -12.6838 C   0  0  0  0  0  0  0  0  0  0  0  0
  -22.7235   12.8459  -14.1797 C   0  0  0  0  0  0  0  0  0  0  0  0
  -18.5807    9.0245  -17.1166 C   0  0  0  0  0  0  0  0  0  0  0  0
  -18.6565   10.2041  -17.8781 O   0  0  0  0  0  0  0  0  0  0  0  0
 35 36  1  0  0  0
 36 22  1  0  0  0
 22 23  2  0  0  0
 23 24  1  0  0  0
 24 25  2  0  0  0
 25 26  1  0  0  0
 26 27  2  0  0  0
 27 20  1  0  0  0
 20  1  1  0  0  0
  1  2  2  0  0  0
  2  3  1  0  0  0
  3  4  2  0  0  0
  4  5  1  0  0  0
  5  6  1  0  0  0
  6  7  1  0  0  0
  7  8  1  0  0  0
  8  9  2  0  0  0
  9 10  1  0  0  0
 10 11  1  0  0  0
 10 12  1  0  0  0
 12 13  1  0  0  0
 13 14  2  0  0  0
  8 15  1  0  0  0
 15 16  1  0  0  0
 15 17  2  0  0  0
 24 28  1  0  0  0
 28 29  1  0  0  0
 29 30  1  0  0  0
 30 31  1  0  0  0
 31 32  1  0  0  0
 31 33  1  0  0  0
 33 34  1  0  0  0
 27 22  1  0  0  0
 14  1  1  0  0  0
 34 28  1  0  0  0
 13  4  1  0  0  0
 12  7  2  0  0  0
 20 21  1  0  0  0
 16 18  1  0  0  0
 16 19  1  0  0  0
M  END
> <minimizedAffinity>
-8.80190

> <CNNscore>
0.3219337165

> <CNNaffinity>
6.9994521141

> <CNN_VS>
2.2533595562

> <CNNaffinity_variance>
0.0583634153

$$$$
[H]c1nc(N([H])c2c([H])c([H])c(N3C([H])([H])C([H])([H])N(C([H])([H])[H])C([H])([H])C3([H])[H])c([H])c2OC([H])([H])[H])nc2c1C([H])([H])C([H])([H])c1c(C(=O)N([H])[H])nn(C([H])([H])[H])c1-2


 36 40  0  0  0  0  0  0  0  0999 V2000
  -19.1280   13.6611  -20.8229 C   0  0  0  0  0  0  0  0  0  0  0  0
  -18.4194   12.5538  -20.6529 N   0  0  0  0  0  0  0  0  0  0  0  0
  -17.3692   12.1799  -21.3951 C   0  0  0  0  0  0  0  0  0  0  0  0
  -17.0125   13.0395  -22.4215 C   0  0  0  0  0  0  0  0  0  0  0  0
  -15.8684   12.6528  -23.2494 C   0  0  0  0  0  0  0  0  0  0  0  0
  -15.5075   13.5944  -24.3303 C   0  0  0  0  0  0  0  0  0  0  0  0
  -16.3143   14.7970  -24.4833 C   0  0  0  0  0  0  0  0  0  0  0  0
  -16.2149   15.8459  -25.4050 C   0  0  0  0  0  0  0  0  0  0  0  0
  -17.1840   16.6970  -25.1200 N   0  0  0  0  0  0  0  0  0  0  0  0
  -17.8973   16.2994  -24.1059 N   0  0  0  0  0  0  0  0  0  0  0  0
  -19.0389   16.9383  -23.4848 C   0  0  0  0  0  0  0  0  0  0  0  0
  -17.3623   15.1135  -23.7009 C   0  0  0  0  0  0  0  0  0  0  0  0
  -17.7299   14.1914  -22.6178 C   0  0  0  0  0  0  0  0  0  0  0  0
  -18.7777   14.5304  -21.8502 N   0  0  0  0  0  0  0  0  0  0  0  0
  -15.2199   15.9381  -26.4564 C   0  0  0  0  0  0  0  0  0  0  0  0
  -13.9911   16.6020  -26.1937 N   0  0  0  0  0  0  0  0  0  0  0  0
  -15.3990   15.4535  -27.5957 O   0  0  0  0  0  0  0  0  0  0  0  0
  -13.4013   16.2508  -25.4094 H   0  0  0  0  0  0  0  0  0  0  0  0
  -13.6670   17.4185  -26.7546 H   0  0  0  0  0  0  0  0  0  0  0  0
  -20.2302   14.0342  -20.0287 N   0  0  0  0  0  0  0  0  0  0  0  0
  -21.2057   13.6734  -20.3340 H   0  0  0  0  0  0  0  0  0  0  0  0
  -21.1217   15.9101  -18.8096 C   0  0  0  0  0  0  0  0  0  0  0  0
  -21.1520   16.6987  -17.7047 C   0  0  0  0  0  0  0  0  0  0  0  0
  -20.3376   16.4854  -16.6168 C   0  0  0  0  0  0  0  0  0  0  0  0
  -19.4638   15.4300  -16.6621 C   0  0  0  0  0  0  0  0  0  0  0  0
  -19.4171   14.6110  -17.7835 C   0  0  0  0  0  0  0  0  0  0  0  0
  -20.2334   14.8261  -18.8720 C   0  0  0  0  0  0  0  0  0  0  0  0
  -20.4195   17.3491  -15.4961 N   0  0  0  0  0  0  0  0  0  0  0  0
  -19.3669   18.3257  -15.2606 C   0  0  0  0  0  0  0  0  0  0  0  0
  -19.3918   18.7740  -13.7934 C   0  0  0  0  0  0  0  0  0  0  0  0
  -20.6407   19.3919  -13.4850 N   0  0  0  0  0  0  0  0  0  0  0  0
  -20.6215   20.7288  -14.0998 C   0  0  0  0  0  0  0  0  0  0  0  0
  -21.7860   18.7146  -13.9938 C   0  0  0  0  0  0  0  0  0  0  0  0
  -21.5023   17.3318  -14.5459 C   0  0  0  0  0  0  0  0  0  0  0  0
  -21.6811   17.2370  -20.7246 C   0  0  0  0  0  0  0  0  0  0  0  0
  -21.9431   16.1426  -19.8813 O   0  0  0  0  0  0  0  0  0  0  0  0
 35 36  1  0  0  0
 36 22  1  0  0  0
 22 23  2  0  0  0
 23 24  1  0  0  0
 24 25  2  0  0  0
 25 26  1  0  0  0
 26 27  2  0  0  0
 27 20  1  0  0  0
 20  1  1  0  0  0
  1  2  2  0  0  0
  2  3  1  0  0  0
  3  4  2  0  0  0
  4  5  1  0  0  0
  5  6  1  0  0  0
  6  7  1  0  0  0
  7  8  1  0  0  0
  8  9  2  0  0  0
  9 10  1  0  0  0
 10 11  1  0  0  0
 10 12  1  0  0  0
 12 13  1  0  0  0
 13 14  2  0  0  0
  8 15  1  0  0  0
 15 16  1  0  0  0
 15 17  2  0  0  0
 24 28  1  0  0  0
 28 29  1  0  0  0
 29 30  1  0  0  0
 30 31  1  0  0  0
 31 32  1  0  0  0
 31 33  1  0  0  0
 33 34  1  0  0  0
 27 22  1  0  0  0
 14  1  1  0  0  0
 34 28  1  0  0  0
 13  4  1  0  0  0
 12  7  2  0  0  0
 20 21  1  0  0  0
 16 18  1  0  0  0
 16 19  1  0  0  0
M  END
> <minimizedAffinity>
-8.38849

> <CNNscore>
0.2762562633

> <CNNaffinity>
6.6807303429

> <CNN_VS>
1.8455935717

> <CNNaffinity_variance>
0.0792971477

$$$$
[H]c1nc(N([H])c2c([H])c([H])c(N3C([H])([H])C([H])([H])N(C([H])([H])[H])C([H])([H])C3([H])[H])c([H])c2OC([H])([H])[H])nc2c1C([H])([H])C([H])([H])c1c(C(=O)N([H])[H])nn(C([H])([H])[H])c1-2


 36 40  0  0  0  0  0  0  0  0999 V2000
  -19.4300   11.2074  -17.4852 C   0  0  0  0  0  0  0  0  0  0  0  0
  -18.7103   10.1002  -17.3694 N   0  0  0  0  0  0  0  0  0  0  0  0
  -17.7600    9.6967  -18.2223 C   0  0  0  0  0  0  0  0  0  0  0  0
  -17.5277   10.5229  -19.3100 C   0  0  0  0  0  0  0  0  0  0  0  0
  -16.4946   10.1034  -20.2590 C   0  0  0  0  0  0  0  0  0  0  0  0
  -16.2644   11.0099  -21.4036 C   0  0  0  0  0  0  0  0  0  0  0  0
  -17.0791   12.2136  -21.4934 C   0  0  0  0  0  0  0  0  0  0  0  0
  -17.0886   13.2341  -22.4516 C   0  0  0  0  0  0  0  0  0  0  0  0
  -18.0124   14.1006  -22.0766 N   0  0  0  0  0  0  0  0  0  0  0  0
  -18.5984   13.7384  -20.9717 N   0  0  0  0  0  0  0  0  0  0  0  0
  -19.6531   14.4040  -20.2358 C   0  0  0  0  0  0  0  0  0  0  0  0
  -18.0226   12.5609  -20.5993 C   0  0  0  0  0  0  0  0  0  0  0  0
  -18.2590   11.6740  -19.4521 C   0  0  0  0  0  0  0  0  0  0  0  0
  -19.2041   12.0433  -18.5733 N   0  0  0  0  0  0  0  0  0  0  0  0
  -16.2288   13.2878  -23.6186 C   0  0  0  0  0  0  0  0  0  0  0  0
  -14.9419   13.8801  -23.5067 N   0  0  0  0  0  0  0  0  0  0  0  0
  -16.5752   12.8304  -24.7303 O   0  0  0  0  0  0  0  0  0  0  0  0
  -14.2793   13.4860  -22.8052 H   0  0  0  0  0  0  0  0  0  0  0  0
  -14.6453   14.6861  -24.0974 H   0  0  0  0  0  0  0  0  0  0  0  0
  -20.4257   11.6120  -16.5743 N   0  0  0  0  0  0  0  0  0  0  0  0
  -21.1533   12.3353  -16.9245 H   0  0  0  0  0  0  0  0  0  0  0  0
  -21.7469   10.4434  -14.9345 C   0  0  0  0  0  0  0  0  0  0  0  0
  -21.9526   10.0228  -13.6600 C   0  0  0  0  0  0  0  0  0  0  0  0
  -21.0786   10.3018  -12.6351 C   0  0  0  0  0  0  0  0  0  0  0  0
  -19.9574   11.0354  -12.9250 C   0  0  0  0  0  0  0  0  0  0  0  0
  -19.7283   11.4754  -14.2229 C   0  0  0  0  0  0  0  0  0  0  0  0
  -20.6046   11.1951  -15.2480 C   0  0  0  0  0  0  0  0  0  0  0  0
  -21.3558    9.8334  -11.3265 N   0  0  0  0  0  0  0  0  0  0  0  0
  -22.4724    8.9265  -11.1072 C   0  0  0  0  0  0  0  0  0  0  0  0
  -22.8851    8.9572   -9.6297 C   0  0  0  0  0  0  0  0  0  0  0  0
  -21.8031    8.5288   -8.8037 N   0  0  0  0  0  0  0  0  0  0  0  0
  -21.7032    7.0679   -8.9507 C   0  0  0  0  0  0  0  0  0  0  0  0
  -20.5327    9.0714   -9.1515 C   0  0  0  0  0  0  0  0  0  0  0  0
  -20.5886   10.1988  -10.1630 C   0  0  0  0  0  0  0  0  0  0  0  0
  -23.5295    9.0823  -15.7775 C   0  0  0  0  0  0  0  0  0  0  0  0
  -22.6323   10.1530  -15.9390 O   0  0  0  0  0  0  0  0  0  0  0  0
 35 36  1  0  0  0
 36 22  1  0  0  0
 22 23  2  0  0  0
 23 24  1  0  0  0
 24 25  2  0  0  0
 25 26  1  0  0  0
 26 27  2  0  0  0
 27 20  1  0  0  0
 20  1  1  0  0  0
  1  2  2  0  0  0
  2  3  1  0  0  0
  3  4  2  0  0  0
  4  5  1  0  0  0
  5  6  1  0  0  0
  6  7  1  0  0  0
  7  8  1  0  0  0
  8  9  2  0  0  0
  9 10  1  0  0  0
 10 11  1  0  0  0
 10 12  1  0  0  0
 12 13  1  0  0  0
 13 14  2  0  0  0
  8 15  1  0  0  0
 15 16  1  0  0  0
 15 17  2  0  0  0
 24 28  1  0  0  0
 28 29  1  0  0  0
 29 30  1  0  0  0
 30 31  1  0  0  0
 31 32  1  0  0  0
 31 33  1  0  0  0
 33 34  1  0  0  0
 27 22  1  0  0  0
 14  1  1  0  0  0
 34 28  1  0  0  0
 13  4  1  0  0  0
 12  7  2  0  0  0
 20 21  1  0  0  0
 16 18  1  0  0  0
 16 19  1  0  0  0
M  END
> <minimizedAffinity>
-7.71503

> <CNNscore>
0.2571223974

> <CNNaffinity>
6.4415831566

> <CNN_VS>
1.6562752724

> <CNNaffinity_variance>
0.0107522570

$$$$
[H]c1nc(N([H])c2c([H])c([H])c(N3C([H])([H])C([H])([H])N(C([H])([H])[H])C([H])([H])C3([H])[H])c([H])c2OC([H])([H])[H])nc2c1C([H])([H])C([H])([H])c1c(C(=O)N([H])[H])nn(C([H])([H])[H])c1-2


 36 40  0  0  0  0  0  0  0  0999 V2000
  -18.7337   11.0583  -18.5613 C   0  0  0  0  0  0  0  0  0  0  0  0
  -17.8098   10.1173  -18.6961 N   0  0  0  0  0  0  0  0  0  0  0  0
  -16.8806   10.0709  -19.6594 C   0  0  0  0  0  0  0  0  0  0  0  0
  -16.9075   11.1049  -20.5812 C   0  0  0  0  0  0  0  0  0  0  0  0
  -15.9029   11.0768  -21.6461 C   0  0  0  0  0  0  0  0  0  0  0  0
  -15.9523   12.1977  -22.6085 C   0  0  0  0  0  0  0  0  0  0  0  0
  -16.9850   13.2078  -22.4249 C   0  0  0  0  0  0  0  0  0  0  0  0
  -17.2736   14.3572  -23.1701 C   0  0  0  0  0  0  0  0  0  0  0  0
  -18.3074   14.9388  -22.5890 N   0  0  0  0  0  0  0  0  0  0  0  0
  -18.7127   14.2771  -21.5433 N   0  0  0  0  0  0  0  0  0  0  0  0
  -19.8042   14.5752  -20.6396 C   0  0  0  0  0  0  0  0  0  0  0  0
  -17.8932   13.1941  -21.4322 C   0  0  0  0  0  0  0  0  0  0  0  0
  -17.8535   12.0904  -20.4633 C   0  0  0  0  0  0  0  0  0  0  0  0
  -18.7688   12.1004  -19.4814 N   0  0  0  0  0  0  0  0  0  0  0  0
  -16.5477   14.7880  -24.3497 C   0  0  0  0  0  0  0  0  0  0  0  0
  -17.0186   14.4034  -25.6342 N   0  0  0  0  0  0  0  0  0  0  0  0
  -15.5147   15.4905  -24.2839 O   0  0  0  0  0  0  0  0  0  0  0  0
  -17.9885   14.6746  -25.9030 H   0  0  0  0  0  0  0  0  0  0  0  0
  -16.4306   13.8655  -26.3060 H   0  0  0  0  0  0  0  0  0  0  0  0
  -19.7023   11.0863  -17.5387 N   0  0  0  0  0  0  0  0  0  0  0  0
  -20.6168   11.6333  -17.7373 H   0  0  0  0  0  0  0  0  0  0  0  0
  -20.1700   11.1886  -15.1784 C   0  0  0  0  0  0  0  0  0  0  0  0
  -20.1264   10.6401  -13.9371 C   0  0  0  0  0  0  0  0  0  0  0  0
  -19.5761    9.4039  -13.6898 C   0  0  0  0  0  0  0  0  0  0  0  0
  -19.0535    8.7068  -14.7483 C   0  0  0  0  0  0  0  0  0  0  0  0
  -19.0881    9.2505  -16.0265 C   0  0  0  0  0  0  0  0  0  0  0  0
  -19.6395   10.4886  -16.2723 C   0  0  0  0  0  0  0  0  0  0  0  0
  -19.5616    8.8914  -12.3684 N   0  0  0  0  0  0  0  0  0  0  0  0
  -19.9708    7.5166  -12.1242 C   0  0  0  0  0  0  0  0  0  0  0  0
  -20.3536    7.3421  -10.6487 C   0  0  0  0  0  0  0  0  0  0  0  0
  -19.2339    7.6223   -9.8095 N   0  0  0  0  0  0  0  0  0  0  0  0
  -18.3209    6.4728   -9.9141 C   0  0  0  0  0  0  0  0  0  0  0  0
  -18.4892    8.7815  -10.1715 C   0  0  0  0  0  0  0  0  0  0  0  0
  -19.1568    9.6544  -11.2153 C   0  0  0  0  0  0  0  0  0  0  0  0
  -21.8277   12.8295  -14.6305 C   0  0  0  0  0  0  0  0  0  0  0  0
  -20.7236   12.4222  -15.4001 O   0  0  0  0  0  0  0  0  0  0  0  0
 35 36  1  0  0  0
 36 22  1  0  0  0
 22 23  2  0  0  0
 23 24  1  0  0  0
 24 25  2  0  0  0
 25 26  1  0  0  0
 26 27  2  0  0  0
 27 20  1  0  0  0
 20  1  1  0  0  0
  1  2  2  0  0  0
  2  3  1  0  0  0
  3  4  2  0  0  0
  4  5  1  0  0  0
  5  6  1  0  0  0
  6  7  1  0  0  0
  7  8  1  0  0  0
  8  9  2  0  0  0
  9 10  1  0  0  0
 10 11  1  0  0  0
 10 12  1  0  0  0
 12 13  1  0  0  0
 13 14  2  0  0  0
  8 15  1  0  0  0
 15 16  1  0  0  0
 15 17  2  0  0  0
 24 28  1  0  0  0
 28 29  1  0  0  0
 29 30  1  0  0  0
 30 31  1  0  0  0
 31 32  1  0  0  0
 31 33  1  0  0  0
 33 34  1  0  0  0
 27 22  1  0  0  0
 14  1  1  0  0  0
 34 28  1  0  0  0
 13  4  1  0  0  0
 12  7  2  0  0  0
 20 21  1  0  0  0
 16 18  1  0  0  0
 16 19  1  0  0  0
M  END
> <minimizedAffinity>
-7.83095

> <CNNscore>
0.2493450493

> <CNNaffinity>
6.7519454956

> <CNN_VS>
1.6835641861

> <CNNaffinity_variance>
0.0657196045

$$$$
[H]c1nc(N([H])c2c([H])c([H])c(N3C([H])([H])C([H])([H])N(C([H])([H])[H])C([H])([H])C3([H])[H])c([H])c2OC([H])([H])[H])nc2c1C([H])([H])C([H])([H])c1c(C(=O)N([H])[H])nn(C([H])([H])[H])c1-2


 36 40  0  0  0  0  0  0  0  0999 V2000
  -18.4847   12.7132  -20.0163 C   0  0  0  0  0  0  0  0  0  0  0  0
  -17.7306   11.6332  -20.1656 N   0  0  0  0  0  0  0  0  0  0  0  0
  -16.8437   11.4329  -21.1489 C   0  0  0  0  0  0  0  0  0  0  0  0
  -16.7220   12.4550  -22.0763 C   0  0  0  0  0  0  0  0  0  0  0  0
  -15.7602   12.2600  -23.1629 C   0  0  0  0  0  0  0  0  0  0  0  0
  -15.6473   13.3715  -24.1309 C   0  0  0  0  0  0  0  0  0  0  0  0
  -16.4963   14.5376  -23.9308 C   0  0  0  0  0  0  0  0  0  0  0  0
  -16.6098   15.7167  -24.6766 C   0  0  0  0  0  0  0  0  0  0  0  0
  -17.5210   16.4613  -24.0764 N   0  0  0  0  0  0  0  0  0  0  0  0
  -18.0051   15.8775  -23.0180 N   0  0  0  0  0  0  0  0  0  0  0  0
  -19.0122   16.3527  -22.0922 C   0  0  0  0  0  0  0  0  0  0  0  0
  -17.3716   14.6753  -22.9183 C   0  0  0  0  0  0  0  0  0  0  0  0
  -17.4910   13.5824  -21.9436 C   0  0  0  0  0  0  0  0  0  0  0  0
  -18.3697   13.7446  -20.9419 N   0  0  0  0  0  0  0  0  0  0  0  0
  -15.8503   16.0199  -25.8746 C   0  0  0  0  0  0  0  0  0  0  0  0
  -14.6264   16.7329  -25.7593 N   0  0  0  0  0  0  0  0  0  0  0  0
  -16.2303   15.6772  -27.0161 O   0  0  0  0  0  0  0  0  0  0  0  0
  -13.8759   16.3265  -25.1609 H   0  0  0  0  0  0  0  0  0  0  0  0
  -14.4595   17.6379  -26.2488 H   0  0  0  0  0  0  0  0  0  0  0  0
  -19.4121   12.9020  -18.9727 N   0  0  0  0  0  0  0  0  0  0  0  0
  -20.0783   12.0774  -18.7466 H   0  0  0  0  0  0  0  0  0  0  0  0
  -20.5110   13.9683  -17.1138 C   0  0  0  0  0  0  0  0  0  0  0  0
  -20.7105   15.0494  -16.3169 C   0  0  0  0  0  0  0  0  0  0  0  0
  -20.0421   16.2382  -16.4962 C   0  0  0  0  0  0  0  0  0  0  0  0
  -19.1401   16.3225  -17.5250 C   0  0  0  0  0  0  0  0  0  0  0  0
  -18.9214   15.2276  -18.3521 C   0  0  0  0  0  0  0  0  0  0  0  0
  -19.5916   14.0379  -18.1711 C   0  0  0  0  0  0  0  0  0  0  0  0
  -20.3003   17.3287  -15.6284 N   0  0  0  0  0  0  0  0  0  0  0  0
  -21.5888   17.4280  -14.9597 C   0  0  0  0  0  0  0  0  0  0  0  0
  -21.8282   18.8734  -14.5037 C   0  0  0  0  0  0  0  0  0  0  0  0
  -20.8204   19.2739  -13.5762 N   0  0  0  0  0  0  0  0  0  0  0  0
  -21.1251   18.6106  -12.2983 C   0  0  0  0  0  0  0  0  0  0  0  0
  -19.4934   18.9001  -13.9348 C   0  0  0  0  0  0  0  0  0  0  0  0
  -19.3510   18.3760  -15.3498 C   0  0  0  0  0  0  0  0  0  0  0  0
  -21.3776   12.3213  -15.6048 C   0  0  0  0  0  0  0  0  0  0  0  0
  -21.1891   12.7943  -16.9155 O   0  0  0  0  0  0  0  0  0  0  0  0
 35 36  1  0  0  0
 36 22  1  0  0  0
 22 23  2  0  0  0
 23 24  1  0  0  0
 24 25  2  0  0  0
 25 26  1  0  0  0
 26 27  2  0  0  0
 27 20  1  0  0  0
 20  1  1  0  0  0
  1  2  2  0  0  0
  2  3  1  0  0  0
  3  4  2  0  0  0
  4  5  1  0  0  0
  5  6  1  0  0  0
  6  7  1  0  0  0
  7  8  1  0  0  0
  8  9  2  0  0  0
  9 10  1  0  0  0
 10 11  1  0  0  0
 10 12  1  0  0  0
 12 13  1  0  0  0
 13 14  2  0  0  0
  8 15  1  0  0  0
 15 16  1  0  0  0
 15 17  2  0  0  0
 24 28  1  0  0  0
 28 29  1  0  0  0
 29 30  1  0  0  0
 30 31  1  0  0  0
 31 32  1  0  0  0
 31 33  1  0  0  0
 33 34  1  0  0  0
 27 22  1  0  0  0
 14  1  1  0  0  0
 34 28  1  0  0  0
 13  4  1  0  0  0
 12  7  2  0  0  0
 20 21  1  0  0  0
 16 18  1  0  0  0
 16 19  1  0  0  0
M  END
> <minimizedAffinity>
-8.06921

> <CNNscore>
0.2417105287

> <CNNaffinity>
6.9867696762

> <CNN_VS>
1.6887757778

> <CNNaffinity_variance>
0.0659305826

$$$$
[H]O[C@@]1([H])C([H])([H])C([H])([H])[C@]2([H])[C@]1(C([H])([H])[H])C([H])([H])C([H])([H])[C@]1([H])[C@]3(C([H])([H])[H])C(=C([H])C(=O)C([H])([H])C3([H])[H])C([H])([H])C([H])([H])[C@@]21[H]


 22 25  0  0  0  0  0  0  0  0999 V2000
  -20.1915   17.6058  -20.5682 C   0  0  0  0  0  0  0  0  0  0  0  0
  -18.7653   17.5801  -20.0873 C   0  0  0  0  0  0  0  0  0  0  0  0
  -17.8285   16.9996  -21.0905 C   0  0  0  0  0  0  0  0  0  0  0  0
  -18.1921   15.5497  -21.2939 C   0  0  0  0  0  0  0  0  0  0  0  0
  -18.0007   14.7936  -19.9961 C   0  0  0  0  0  0  0  0  0  0  0  0
  -18.8670   15.3708  -18.8786 C   0  0  0  0  0  0  0  0  0  0  0  0
  -18.3727   14.7692  -17.5703 C   0  0  0  0  0  0  0  0  0  0  0  0
  -18.3565   13.2825  -17.5772 C   0  0  0  0  0  0  0  0  0  0  0  0
  -17.9082   12.6806  -18.8418 C   0  0  0  0  0  0  0  0  0  0  0  0
  -17.2017   11.5641  -18.7787 C   0  0  0  0  0  0  0  0  0  0  0  0
  -16.7097   10.8867  -19.9607 C   0  0  0  0  0  0  0  0  0  0  0  0
  -15.7860   10.0475  -19.9305 O   0  0  0  0  0  0  0  0  0  0  0  0
  -17.3838   11.2543  -21.2571 C   0  0  0  0  0  0  0  0  0  0  0  0
  -17.4487   12.7681  -21.2740 C   0  0  0  0  0  0  0  0  0  0  0  0
  -18.2537   13.3303  -20.1427 C   0  0  0  0  0  0  0  0  0  0  0  0
  -19.7156   13.0427  -20.4185 C   0  0  0  0  0  0  0  0  0  0  0  0
  -18.6040   16.8175  -18.7910 C   0  0  0  0  0  0  0  0  0  0  0  0
  -19.4730   17.5994  -17.8776 C   0  0  0  0  0  0  0  0  0  0  0  0
  -19.1632   19.0391  -18.2951 C   0  0  0  0  0  0  0  0  0  0  0  0
  -18.3299   18.9301  -19.5572 C   0  0  0  0  0  0  0  0  0  0  0  0
  -18.4923   19.9581  -20.4220 O   0  0  0  0  0  0  0  0  0  0  0  0
  -19.2850   19.9476  -20.9836 H   0  0  0  0  0  0  0  0  0  0  0  0
  2  1  1  0  0  0
  2  3  1  0  0  0
  3  4  1  0  0  0
  4  5  1  0  0  0
  5  6  1  0  0  0
  6  7  1  0  0  0
  7  8  1  0  0  0
  8  9  1  0  0  0
  9 10  2  0  0  0
 10 11  1  0  0  0
 11 12  2  0  0  0
 11 13  1  0  0  0
 13 14  1  0  0  0
 14 15  1  0  0  0
 15 16  1  0  0  0
  6 17  1  0  0  0
 17 18  1  0  0  0
 18 19  1  0  0  0
 19 20  1  0  0  0
 20 21  1  0  0  0
 17  2  1  0  0  0
 20  2  1  0  0  0
 15  5  1  0  0  0
 15  9  1  0  0  0
 21 22  1  0  0  0
M  END
> <minimizedAffinity>
-8.34773

> <CNNscore>
0.4877457619

> <CNNaffinity>
6.0703735352

> <CNN_VS>
2.9607989788

> <CNNaffinity_variance>
0.2347445786

$$$$
[H]O[C@@]1([H])C([H])([H])C([H])([H])[C@]2([H])[C@]1(C([H])([H])[H])C([H])([H])C([H])([H])[C@]1([H])[C@]3(C([H])([H])[H])C(=C([H])C(=O)C([H])([H])C3([H])[H])C([H])([H])C([H])([H])[C@@]21[H]


 22 25  0  0  0  0  0  0  0  0999 V2000
  -18.5647   17.8419  -23.0168 C   0  0  0  0  0  0  0  0  0  0  0  0
  -17.9562   17.5836  -21.6644 C   0  0  0  0  0  0  0  0  0  0  0  0
  -16.5216   17.1877  -21.7432 C   0  0  0  0  0  0  0  0  0  0  0  0
  -16.4347   15.8649  -22.4631 C   0  0  0  0  0  0  0  0  0  0  0  0
  -17.1599   14.8046  -21.6617 C   0  0  0  0  0  0  0  0  0  0  0  0
  -18.6303   15.1638  -21.4587 C   0  0  0  0  0  0  0  0  0  0  0  0
  -19.1794   14.2254  -20.3929 C   0  0  0  0  0  0  0  0  0  0  0  0
  -18.9769   12.7883  -20.7157 C   0  0  0  0  0  0  0  0  0  0  0  0
  -17.6762   12.4750  -21.3261 C   0  0  0  0  0  0  0  0  0  0  0  0
  -17.1081   11.3222  -21.0132 C   0  0  0  0  0  0  0  0  0  0  0  0
  -15.8290   10.9124  -21.5555 C   0  0  0  0  0  0  0  0  0  0  0  0
  -15.1261   10.0177  -21.0418 O   0  0  0  0  0  0  0  0  0  0  0  0
  -15.3799   11.6364  -22.7981 C   0  0  0  0  0  0  0  0  0  0  0  0
  -15.6013   13.1095  -22.5204 C   0  0  0  0  0  0  0  0  0  0  0  0
  -17.0387   13.4459  -22.2668 C   0  0  0  0  0  0  0  0  0  0  0  0
  -17.7817   13.3546  -23.5842 C   0  0  0  0  0  0  0  0  0  0  0  0
  -18.6997   16.5198  -20.8875 C   0  0  0  0  0  0  0  0  0  0  0  0
  -20.0485   17.1265  -20.7714 C   0  0  0  0  0  0  0  0  0  0  0  0
  -19.7164   18.5940  -20.4897 C   0  0  0  0  0  0  0  0  0  0  0  0
  -18.2212   18.7250  -20.7052 C   0  0  0  0  0  0  0  0  0  0  0  0
  -17.8272   19.9413  -21.1486 O   0  0  0  0  0  0  0  0  0  0  0  0
  -17.9471   20.1320  -22.0936 H   0  0  0  0  0  0  0  0  0  0  0  0
  2  1  1  0  0  0
  2  3  1  0  0  0
  3  4  1  0  0  0
  4  5  1  0  0  0
  5  6  1  0  0  0
  6  7  1  0  0  0
  7  8  1  0  0  0
  8  9  1  0  0  0
  9 10  2  0  0  0
 10 11  1  0  0  0
 11 12  2  0  0  0
 11 13  1  0  0  0
 13 14  1  0  0  0
 14 15  1  0  0  0
 15 16  1  0  0  0
  6 17  1  0  0  0
 17 18  1  0  0  0
 18 19  1  0  0  0
 19 20  1  0  0  0
 20 21  1  0  0  0
 17  2  1  0  0  0
 20  2  1  0  0  0
 15  5  1  0  0  0
 15  9  1  0  0  0
 21 22  1  0  0  0
M  END
> <minimizedAffinity>
-7.85392

> <CNNscore>
0.4783730507

> <CNNaffinity>
6.1479692459

> <CNN_VS>
2.9410228729

> <CNNaffinity_variance>
0.3401414752

$$$$
[H]O[C@@]1([H])C([H])([H])C([H])([H])[C@]2([H])[C@]1(C([H])([H])[H])C([H])([H])C([H])([H])[C@]1([H])[C@]3(C([H])([H])[H])C(=C([H])C(=O)C([H])([H])C3([H])[H])C([H])([H])C([H])([H])[C@@]21[H]


 22 25  0  0  0  0  0  0  0  0999 V2000
  -18.0660   10.8046  -21.5839 C   0  0  0  0  0  0  0  0  0  0  0  0
  -16.9606   11.5236  -20.8578 C   0  0  0  0  0  0  0  0  0  0  0  0
  -17.0526   11.3782  -19.3775 C   0  0  0  0  0  0  0  0  0  0  0  0
  -18.3198   12.0525  -18.9136 C   0  0  0  0  0  0  0  0  0  0  0  0
  -18.2482   13.5324  -19.2257 C   0  0  0  0  0  0  0  0  0  0  0  0
  -18.0722   13.7815  -20.7221 C   0  0  0  0  0  0  0  0  0  0  0  0
  -17.6918   15.2458  -20.8925 C   0  0  0  0  0  0  0  0  0  0  0  0
  -18.6611   16.1810  -20.2631 C   0  0  0  0  0  0  0  0  0  0  0  0
  -19.1844   15.7370  -18.9625 C   0  0  0  0  0  0  0  0  0  0  0  0
  -19.4222   16.6592  -18.0445 C   0  0  0  0  0  0  0  0  0  0  0  0
  -19.9377   16.3344  -16.7304 C   0  0  0  0  0  0  0  0  0  0  0  0
  -19.8582   17.1107  -15.7560 O   0  0  0  0  0  0  0  0  0  0  0  0
  -20.5889   14.9824  -16.5959 C   0  0  0  0  0  0  0  0  0  0  0  0
  -19.6426   14.0007  -17.2568 C   0  0  0  0  0  0  0  0  0  0  0  0
  -19.4306   14.2842  -18.7123 C   0  0  0  0  0  0  0  0  0  0  0  0
  -20.6965   13.9051  -19.4537 C   0  0  0  0  0  0  0  0  0  0  0  0
  -16.9141   12.9991  -21.1873 C   0  0  0  0  0  0  0  0  0  0  0  0
  -16.6745   12.9680  -22.6510 C   0  0  0  0  0  0  0  0  0  0  0  0
  -15.6608   11.8290  -22.7856 C   0  0  0  0  0  0  0  0  0  0  0  0
  -15.6000   11.1705  -21.4211 C   0  0  0  0  0  0  0  0  0  0  0  0
  -15.3264    9.8456  -21.4540 O   0  0  0  0  0  0  0  0  0  0  0  0
  -16.0569    9.2447  -21.6754 H   0  0  0  0  0  0  0  0  0  0  0  0
  2  1  1  0  0  0
  2  3  1  0  0  0
  3  4  1  0  0  0
  4  5  1  0  0  0
  5  6  1  0  0  0
  6  7  1  0  0  0
  7  8  1  0  0  0
  8  9  1  0  0  0
  9 10  2  0  0  0
 10 11  1  0  0  0
 11 12  2  0  0  0
 11 13  1  0  0  0
 13 14  1  0  0  0
 14 15  1  0  0  0
 15 16  1  0  0  0
  6 17  1  0  0  0
 17 18  1  0  0  0
 18 19  1  0  0  0
 19 20  1  0  0  0
 20 21  1  0  0  0
 17  2  1  0  0  0
 20  2  1  0  0  0
 15  5  1  0  0  0
 15  9  1  0  0  0
 21 22  1  0  0  0
M  END
> <minimizedAffinity>
-7.20768

> <CNNscore>
0.4293759167

> <CNNaffinity>
5.9884395599

> <CNN_VS>
2.5712916851

> <CNNaffinity_variance>
0.3197428584

$$$$
[H]O[C@@]1([H])C([H])([H])C([H])([H])[C@]2([H])[C@]1(C([H])([H])[H])C([H])([H])C([H])([H])[C@]1([H])[C@]3(C([H])([H])[H])C(=C([H])C(=O)C([H])([H])C3([H])[H])C([H])([H])C([H])([H])[C@@]21[H]


 22 25  0  0  0  0  0  0  0  0999 V2000
  -19.0734    9.5269  -14.8164 C   0  0  0  0  0  0  0  0  0  0  0  0
  -20.1041    9.5154  -15.9134 C   0  0  0  0  0  0  0  0  0  0  0  0
  -19.7203    8.6398  -17.0566 C   0  0  0  0  0  0  0  0  0  0  0  0
  -18.4821    9.2148  -17.6981 C   0  0  0  0  0  0  0  0  0  0  0  0
  -18.7929   10.5877  -18.2560 C   0  0  0  0  0  0  0  0  0  0  0  0
  -19.2744   11.5403  -17.1637 C   0  0  0  0  0  0  0  0  0  0  0  0
  -19.8579   12.7629  -17.8586 C   0  0  0  0  0  0  0  0  0  0  0  0
  -18.9113   13.4061  -18.8076 C   0  0  0  0  0  0  0  0  0  0  0  0
  -18.1037   12.4659  -19.5990 C   0  0  0  0  0  0  0  0  0  0  0  0
  -17.8146   12.7974  -20.8465 C   0  0  0  0  0  0  0  0  0  0  0  0
  -17.0268   11.9471  -21.7151 C   0  0  0  0  0  0  0  0  0  0  0  0
  -17.0185   12.0635  -22.9580 O   0  0  0  0  0  0  0  0  0  0  0  0
  -16.2000   10.8917  -21.0276 C   0  0  0  0  0  0  0  0  0  0  0  0
  -17.1243   10.2312  -20.0249 C   0  0  0  0  0  0  0  0  0  0  0  0
  -17.6376   11.1835  -18.9889 C   0  0  0  0  0  0  0  0  0  0  0  0
  -16.4952   11.5172  -18.0509 C   0  0  0  0  0  0  0  0  0  0  0  0
  -20.3933   10.8989  -16.4521 C   0  0  0  0  0  0  0  0  0  0  0  0
  -20.8960   11.5896  -15.2392 C   0  0  0  0  0  0  0  0  0  0  0  0
  -21.7684   10.5099  -14.5942 C   0  0  0  0  0  0  0  0  0  0  0  0
  -21.4917    9.2390  -15.3735 C   0  0  0  0  0  0  0  0  0  0  0  0
  -21.6008    8.1041  -14.6446 O   0  0  0  0  0  0  0  0  0  0  0  0
  -20.8559    7.8724  -14.0657 H   0  0  0  0  0  0  0  0  0  0  0  0
  2  1  1  0  0  0
  2  3  1  0  0  0
  3  4  1  0  0  0
  4  5  1  0  0  0
  5  6  1  0  0  0
  6  7  1  0  0  0
  7  8  1  0  0  0
  8  9  1  0  0  0
  9 10  2  0  0  0
 10 11  1  0  0  0
 11 12  2  0  0  0
 11 13  1  0  0  0
 13 14  1  0  0  0
 14 15  1  0  0  0
 15 16  1  0  0  0
  6 17  1  0  0  0
 17 18  1  0  0  0
 18 19  1  0  0  0
 19 20  1  0  0  0
 20 21  1  0  0  0
 17  2  1  0  0  0
 20  2  1  0  0  0
 15  5  1  0  0  0
 15  9  1  0  0  0
 21 22  1  0  0  0
M  END
> <minimizedAffinity>
-7.15505

> <CNNscore>
0.4232400060

> <CNNaffinity>
5.4678277969

> <CNN_VS>
2.3142035007

> <CNNaffinity_variance>
0.1815956831

$$$$
[H]O[C@@]1([H])C([H])([H])C([H])([H])[C@]2([H])[C@]1(C([H])([H])[H])C([H])([H])C([H])([H])[C@]1([H])[C@]3(C([H])([H])[H])C(=C([H])C(=O)C([H])([H])C3([H])[H])C([H])([H])C([H])([H])[C@@]21[H]


 22 25  0  0  0  0  0  0  0  0999 V2000
  -16.5879   14.4522  -25.5942 C   0  0  0  0  0  0  0  0  0  0  0  0
  -15.9627   15.0546  -24.3645 C   0  0  0  0  0  0  0  0  0  0  0  0
  -14.9493   14.1610  -23.7356 C   0  0  0  0  0  0  0  0  0  0  0  0
  -15.6530   12.9215  -23.2416 C   0  0  0  0  0  0  0  0  0  0  0  0
  -16.6558   13.3016  -22.1728 C   0  0  0  0  0  0  0  0  0  0  0  0
  -17.6964   14.2846  -22.7051 C   0  0  0  0  0  0  0  0  0  0  0  0
  -18.4432   14.8440  -21.5020 C   0  0  0  0  0  0  0  0  0  0  0  0
  -19.0360   13.7899  -20.6372 C   0  0  0  0  0  0  0  0  0  0  0  0
  -18.1880   12.6033  -20.4491 C   0  0  0  0  0  0  0  0  0  0  0  0
  -18.2189   12.0019  -19.2714 C   0  0  0  0  0  0  0  0  0  0  0  0
  -17.4251   10.8267  -18.9767 C   0  0  0  0  0  0  0  0  0  0  0  0
  -17.1789   10.4445  -17.8140 O   0  0  0  0  0  0  0  0  0  0  0  0
  -16.9000   10.0723  -20.1705 C   0  0  0  0  0  0  0  0  0  0  0  0
  -16.3132   11.1194  -21.0952 C   0  0  0  0  0  0  0  0  0  0  0  0
  -17.3281   12.1138  -21.5693 C   0  0  0  0  0  0  0  0  0  0  0  0
  -18.2345   11.4206  -22.5663 C   0  0  0  0  0  0  0  0  0  0  0  0
  -16.9871   15.4228  -23.3142 C   0  0  0  0  0  0  0  0  0  0  0  0
  -17.8168   16.4124  -24.0442 C   0  0  0  0  0  0  0  0  0  0  0  0
  -16.7605   17.2147  -24.8082 C   0  0  0  0  0  0  0  0  0  0  0  0
  -15.4589   16.4588  -24.6244 C   0  0  0  0  0  0  0  0  0  0  0  0
  -14.5993   16.5695  -25.6637 O   0  0  0  0  0  0  0  0  0  0  0  0
  -14.7710   16.0185  -26.4452 H   0  0  0  0  0  0  0  0  0  0  0  0
  2  1  1  0  0  0
  2  3  1  0  0  0
  3  4  1  0  0  0
  4  5  1  0  0  0
  5  6  1  0  0  0
  6  7  1  0  0  0
  7  8  1  0  0  0
  8  9  1  0  0  0
  9 10  2  0  0  0
 10 11  1  0  0  0
 11 12  2  0  0  0
 11 13  1  0  0  0
 13 14  1  0  0  0
 14 15  1  0  0  0
 15 16  1  0  0  0
  6 17  1  0  0  0
 17 18  1  0  0  0
 18 19  1  0  0  0
 19 20  1  0  0  0
 20 21  1  0  0  0
 17  2  1  0  0  0
 20  2  1  0  0  0
 15  5  1  0  0  0
 15  9  1  0  0  0
 21 22  1  0  0  0
M  END
> <minimizedAffinity>
-8.98972

> <CNNscore>
0.3863183558

> <CNNaffinity>
6.2370476723

> <CNN_VS>
2.4094860554

> <CNNaffinity_variance>
0.1656328887

$$$$
[H]O[C@@]1([H])C([H])([H])C([H])([H])[C@]2([H])[C@]1(C([H])([H])[H])C([H])([H])C([H])([H])[C@]1([H])[C@]3(C([H])([H])[H])C(=C([H])C(=O)C([H])([H])C3([H])[H])C([H])([H])C([H])([H])[C@@]21[H]


 22 25  0  0  0  0  0  0  0  0999 V2000
  -17.5465   14.2299  -24.2423 C   0  0  0  0  0  0  0  0  0  0  0  0
  -16.4045   14.0680  -23.2751 C   0  0  0  0  0  0  0  0  0  0  0  0
  -16.4325   12.7591  -22.5631 C   0  0  0  0  0  0  0  0  0  0  0  0
  -17.6725   12.7135  -21.7053 C   0  0  0  0  0  0  0  0  0  0  0  0
  -17.6029   13.8043  -20.6575 C   0  0  0  0  0  0  0  0  0  0  0  0
  -17.4909   15.1874  -21.2954 C   0  0  0  0  0  0  0  0  0  0  0  0
  -17.1065   16.1622  -20.1908 C   0  0  0  0  0  0  0  0  0  0  0  0
  -18.0396   16.1354  -19.0337 C   0  0  0  0  0  0  0  0  0  0  0  0
  -18.5088   14.7938  -18.6560 C   0  0  0  0  0  0  0  0  0  0  0  0
  -18.6985   14.5444  -17.3709 C   0  0  0  0  0  0  0  0  0  0  0  0
  -19.1584   13.2588  -16.8873 C   0  0  0  0  0  0  0  0  0  0  0  0
  -19.0298   12.8912  -15.7012 O   0  0  0  0  0  0  0  0  0  0  0  0
  -19.8139   12.3682  -17.9106 C   0  0  0  0  0  0  0  0  0  0  0  0
  -18.9055   12.3941  -19.1231 C   0  0  0  0  0  0  0  0  0  0  0  0
  -18.7554   13.7638  -19.7106 C   0  0  0  0  0  0  0  0  0  0  0  0
  -20.0558   14.1240  -20.4001 C   0  0  0  0  0  0  0  0  0  0  0  0
  -16.3606   15.1700  -22.2399 C   0  0  0  0  0  0  0  0  0  0  0  0
  -16.1859   16.3709  -23.0933 C   0  0  0  0  0  0  0  0  0  0  0  0
  -15.1883   15.8754  -24.1432 C   0  0  0  0  0  0  0  0  0  0  0  0
  -15.0729   14.3792  -23.9256 C   0  0  0  0  0  0  0  0  0  0  0  0
  -14.8117   13.6717  -25.0492 O   0  0  0  0  0  0  0  0  0  0  0  0
  -15.5560   13.4943  -25.6477 H   0  0  0  0  0  0  0  0  0  0  0  0
  2  1  1  0  0  0
  2  3  1  0  0  0
  3  4  1  0  0  0
  4  5  1  0  0  0
  5  6  1  0  0  0
  6  7  1  0  0  0
  7  8  1  0  0  0
  8  9  1  0  0  0
  9 10  2  0  0  0
 10 11  1  0  0  0
 11 12  2  0  0  0
 11 13  1  0  0  0
 13 14  1  0  0  0
 14 15  1  0  0  0
 15 16  1  0  0  0
  6 17  1  0  0  0
 17 18  1  0  0  0
 18 19  1  0  0  0
 19 20  1  0  0  0
 20 21  1  0  0  0
 17  2  1  0  0  0
 20  2  1  0  0  0
 15  5  1  0  0  0
 15  9  1  0  0  0
 21 22  1  0  0  0
M  END
> <minimizedAffinity>
-8.81301

> <CNNscore>
0.3321838081

> <CNNaffinity>
5.9916830063

> <CNN_VS>
1.9903401136

> <CNNaffinity_variance>
0.1793217659

$$$$
[H]O[C@@]1([H])C([H])([H])C([H])([H])[C@]2([H])[C@]1(C([H])([H])[H])C([H])([H])C([H])([H])[C@]1([H])[C@]3(C([H])([H])[H])C(=C([H])C(=O)C([H])([H])C3([H])[H])C([H])([H])C([H])([H])[C@@]21[H]


 22 25  0  0  0  0  0  0  0  0999 V2000
  -16.4282   12.0364  -18.4420 C   0  0  0  0  0  0  0  0  0  0  0  0
  -17.4841   11.5801  -19.4130 C   0  0  0  0  0  0  0  0  0  0  0  0
  -17.3328   12.1959  -20.7616 C   0  0  0  0  0  0  0  0  0  0  0  0
  -17.5485   13.6831  -20.6295 C   0  0  0  0  0  0  0  0  0  0  0  0
  -18.9632   13.9489  -20.1599 C   0  0  0  0  0  0  0  0  0  0  0  0
  -19.2402   13.2853  -18.8126 C   0  0  0  0  0  0  0  0  0  0  0  0
  -20.7453   13.3338  -18.5885 C   0  0  0  0  0  0  0  0  0  0  0  0
  -21.3084   14.7066  -18.6810 C   0  0  0  0  0  0  0  0  0  0  0  0
  -20.7293   15.5357  -19.7486 C   0  0  0  0  0  0  0  0  0  0  0  0
  -21.5285   16.3825  -20.3760 C   0  0  0  0  0  0  0  0  0  0  0  0
  -21.0643   17.2464  -21.4420 C   0  0  0  0  0  0  0  0  0  0  0  0
  -21.8333   17.7955  -22.2579 O   0  0  0  0  0  0  0  0  0  0  0  0
  -19.5739   17.4531  -21.5181 C   0  0  0  0  0  0  0  0  0  0  0  0
  -18.9589   16.0738  -21.3949 C   0  0  0  0  0  0  0  0  0  0  0  0
  -19.2808   15.4054  -20.0936 C   0  0  0  0  0  0  0  0  0  0  0  0
  -18.4912   16.0986  -19.0018 C   0  0  0  0  0  0  0  0  0  0  0  0
  -18.8862   11.8595  -18.9188 C   0  0  0  0  0  0  0  0  0  0  0  0
  -18.9208   11.0683  -17.6643 C   0  0  0  0  0  0  0  0  0  0  0  0
  -18.1861    9.7888  -18.0721 C   0  0  0  0  0  0  0  0  0  0  0  0
  -17.6012   10.0706  -19.4424 C   0  0  0  0  0  0  0  0  0  0  0  0
  -16.4444    9.4170  -19.6991 O   0  0  0  0  0  0  0  0  0  0  0  0
  -15.6310    9.7816  -19.3129 H   0  0  0  0  0  0  0  0  0  0  0  0
  2  1  1  0  0  0
  2  3  1  0  0  0
  3  4  1  0  0  0
  4  5  1  0  0  0
  5  6  1  0  0  0
  6  7  1  0  0  0
  7  8  1  0  0  0
  8  9  1  0  0  0
  9 10  2  0  0  0
 10 11  1  0  0  0
 11 12  2  0  0  0
 11 13  1  0  0  0
 13 14  1  0  0  0
 14 15  1  0  0  0
 15 16  1  0  0  0
  6 17  1  0  0  0
 17 18  1  0  0  0
 18 19  1  0  0  0
 19 20  1  0  0  0
 20 21  1  0  0  0
 17  2  1  0  0  0
 20  2  1  0  0  0
 15  5  1  0  0  0
 15  9  1  0  0  0
 21 22  1  0  0  0
M  END
> <minimizedAffinity>
-7.34249

> <CNNscore>
0.3284042478

> <CNNaffinity>
5.6895956993

> <CNN_VS>
1.8684873581

> <CNNaffinity_variance>
0.2418067455

$$$$
[H]O[C@@]1([H])C([H])([H])C([H])([H])[C@]2([H])[C@]1(C([H])([H])[H])C([H])([H])C([H])([H])[C@]1([H])[C@]3(C([H])([H])[H])C(=C([H])C(=O)C([H])([H])C3([H])[H])C([H])([H])C([H])([H])[C@@]21[H]


 22 25  0  0  0  0  0  0  0  0999 V2000
  -18.3077   13.8306  -17.5093 C   0  0  0  0  0  0  0  0  0  0  0  0
  -19.1841   13.0035  -18.4114 C   0  0  0  0  0  0  0  0  0  0  0  0
  -20.6337   13.1456  -18.0963 C   0  0  0  0  0  0  0  0  0  0  0  0
  -20.8738   12.5922  -16.7137 C   0  0  0  0  0  0  0  0  0  0  0  0
  -20.5432   11.1147  -16.6961 C   0  0  0  0  0  0  0  0  0  0  0  0
  -19.0887   10.8615  -17.0868 C   0  0  0  0  0  0  0  0  0  0  0  0
  -18.9475    9.3688  -17.3514 C   0  0  0  0  0  0  0  0  0  0  0  0
  -19.3926    8.5259  -16.2105 C   0  0  0  0  0  0  0  0  0  0  0  0
  -20.6030    9.0079  -15.5283 C   0  0  0  0  0  0  0  0  0  0  0  0
  -21.4498    8.1057  -15.0608 C   0  0  0  0  0  0  0  0  0  0  0  0
  -22.6720    8.4683  -14.3730 C   0  0  0  0  0  0  0  0  0  0  0  0
  -23.6284    7.6803  -14.2219 O   0  0  0  0  0  0  0  0  0  0  0  0
  -22.7318    9.8753  -13.8377 C   0  0  0  0  0  0  0  0  0  0  0  0
  -22.2532   10.7669  -14.9654 C   0  0  0  0  0  0  0  0  0  0  0  0
  -20.8440   10.4756  -15.3816 C   0  0  0  0  0  0  0  0  0  0  0  0
  -19.9190   10.9799  -14.2925 C   0  0  0  0  0  0  0  0  0  0  0  0
  -18.8324   11.5328  -18.3726 C   0  0  0  0  0  0  0  0  0  0  0  0
  -17.4267   11.5522  -18.8465 C   0  0  0  0  0  0  0  0  0  0  0  0
  -17.4819   12.5898  -19.9704 C   0  0  0  0  0  0  0  0  0  0  0  0
  -18.8533   13.2290  -19.8719 C   0  0  0  0  0  0  0  0  0  0  0  0
  -18.8949   14.5218  -20.2696 O   0  0  0  0  0  0  0  0  0  0  0  0
  -18.5737   15.1916  -19.6436 H   0  0  0  0  0  0  0  0  0  0  0  0
  2  1  1  0  0  0
  2  3  1  0  0  0
  3  4  1  0  0  0
  4  5  1  0  0  0
  5  6  1  0  0  0
  6  7  1  0  0  0
  7  8  1  0  0  0
  8  9  1  0  0  0
  9 10  2  0  0  0
 10 11  1  0  0  0
 11 12  2  0  0  0
 11 13  1  0  0  0
 13 14  1  0  0  0
 14 15  1  0  0  0
 15 16  1  0  0  0
  6 17  1  0  0  0
 17 18  1  0  0  0
 18 19  1  0  0  0
 19 20  1  0  0  0
 20 21  1  0  0  0
 17  2  1  0  0  0
 20  2  1  0  0  0
 15  5  1  0  0  0
 15  9  1  0  0  0
 21 22  1  0  0  0
M  END
> <minimizedAffinity>
-7.47580

> <CNNscore>
0.3249873817

> <CNNaffinity>
5.0357131958

> <CNN_VS>
1.6365432739

> <CNNaffinity_variance>
0.1458127201

$$$$
[H]O[C@@]1([H])C([H])([H])C([H])([H])[C@]2([H])[C@]1(C([H])([H])[H])C([H])([H])C([H])([H])[C@]1([H])[C@]3(C([H])([H])[H])C(=C([H])C(=O)C([H])([H])C3([H])[H])C([H])([H])C([H])([H])[C@@]21[H]


 22 25  0  0  0  0  0  0  0  0999 V2000
  -15.5832   16.6668  -23.9918 C   0  0  0  0  0  0  0  0  0  0  0  0
  -16.7005   15.7539  -24.4211 C   0  0  0  0  0  0  0  0  0  0  0  0
  -18.0477   16.3619  -24.2307 C   0  0  0  0  0  0  0  0  0  0  0  0
  -18.2680   16.5709  -22.7531 C   0  0  0  0  0  0  0  0  0  0  0  0
  -18.2652   15.2315  -22.0471 C   0  0  0  0  0  0  0  0  0  0  0  0
  -16.9445   14.4927  -22.2527 C   0  0  0  0  0  0  0  0  0  0  0  0
  -17.1561   13.0569  -21.7926 C   0  0  0  0  0  0  0  0  0  0  0  0
  -17.6614   12.9561  -20.3980 C   0  0  0  0  0  0  0  0  0  0  0  0
  -18.6674   13.9660  -20.0364 C   0  0  0  0  0  0  0  0  0  0  0  0
  -19.6406   13.6034  -19.2173 C   0  0  0  0  0  0  0  0  0  0  0  0
  -20.6832   14.5162  -18.7954 C   0  0  0  0  0  0  0  0  0  0  0  0
  -21.7686   14.1341  -18.3112 O   0  0  0  0  0  0  0  0  0  0  0  0
  -20.3852   15.9821  -18.9748 C   0  0  0  0  0  0  0  0  0  0  0  0
  -19.8354   16.1229  -20.3797 C   0  0  0  0  0  0  0  0  0  0  0  0
  -18.5695   15.3505  -20.5911 C   0  0  0  0  0  0  0  0  0  0  0  0
  -17.4570   16.0594  -19.8456 C   0  0  0  0  0  0  0  0  0  0  0  0
  -16.6736   14.4251  -23.6990 C   0  0  0  0  0  0  0  0  0  0  0  0
  -15.3494   13.8941  -24.1056 C   0  0  0  0  0  0  0  0  0  0  0  0
  -15.2862   14.2882  -25.5833 C   0  0  0  0  0  0  0  0  0  0  0  0
  -16.4707   15.2064  -25.8141 C   0  0  0  0  0  0  0  0  0  0  0  0
  -16.2693   16.1462  -26.7667 O   0  0  0  0  0  0  0  0  0  0  0  0
  -15.7520   16.9299  -26.5178 H   0  0  0  0  0  0  0  0  0  0  0  0
  2  1  1  0  0  0
  2  3  1  0  0  0
  3  4  1  0  0  0
  4  5  1  0  0  0
  5  6  1  0  0  0
  6  7  1  0  0  0
  7  8  1  0  0  0
  8  9  1  0  0  0
  9 10  2  0  0  0
 10 11  1  0  0  0
 11 12  2  0  0  0
 11 13  1  0  0  0
 13 14  1  0  0  0
 14 15  1  0  0  0
 15 16  1  0  0  0
  6 17  1  0  0  0
 17 18  1  0  0  0
 18 19  1  0  0  0
 19 20  1  0  0  0
 20 21  1  0  0  0
 17  2  1  0  0  0
 20  2  1  0  0  0
 15  5  1  0  0  0
 15  9  1  0  0  0
 21 22  1  0  0  0
M  END
> <minimizedAffinity>
-8.21227

> <CNNscore>
0.3069331944

> <CNNaffinity>
6.0217351913

> <CNN_VS>
1.8482704163

> <CNNaffinity_variance>
0.0622668378

$$$$
[H]c1c([H])c(N2C([H])([H])N([H])C(=O)C23C([H])([H])C([H])([H])N(C(=O)c2c([H])c([H])c(C(F)(F)F)c([H])c2[H])C([H])([H])C3([H])[H])c([H])c([H])c1Cl


 31 34  0  0  0  0  0  0  0  0999 V2000
  -16.8344   11.6960  -20.4084 C   0  0  0  0  0  0  0  0  0  0  0  0
  -15.8040   10.8907  -20.5641 O   0  0  0  0  0  0  0  0  0  0  0  0
  -16.8378   12.7384  -21.3499 N   0  0  0  0  0  0  0  0  0  0  0  0
  -17.6727   13.8698  -21.2815 C   0  0  0  0  0  0  0  0  0  0  0  0
  -18.0744   14.3564  -22.6533 C   0  0  0  0  0  0  0  0  0  0  0  0
  -16.8156   14.7955  -23.3835 C   0  0  0  0  0  0  0  0  0  0  0  0
  -15.7657   13.7625  -23.3623 C   0  0  0  0  0  0  0  0  0  0  0  0
  -15.9993   12.5466  -22.5706 C   0  0  0  0  0  0  0  0  0  0  0  0
  -17.0592   15.4587  -24.6372 N   0  0  0  0  0  0  0  0  0  0  0  0
  -18.0713   16.4821  -24.2497 C   0  0  0  0  0  0  0  0  0  0  0  0
  -17.4337   16.9919  -23.0222 N   0  0  0  0  0  0  0  0  0  0  0  0
  -16.3985   16.0653  -22.6217 C   0  0  0  0  0  0  0  0  0  0  0  0
  -15.4336   16.2283  -21.8837 O   0  0  0  0  0  0  0  0  0  0  0  0
  -17.6753   17.8772  -22.5329 H   0  0  0  0  0  0  0  0  0  0  0  0
  -16.5661   15.3991  -25.9199 C   0  0  0  0  0  0  0  0  0  0  0  0
  -15.4825   14.5919  -26.1915 C   0  0  0  0  0  0  0  0  0  0  0  0
  -14.8959   14.5221  -27.4291 C   0  0  0  0  0  0  0  0  0  0  0  0
  -15.3788   15.2757  -28.4863 C   0  0  0  0  0  0  0  0  0  0  0  0
  -14.5938   15.1869  -30.0590 Cl  0  0  0  0  0  0  0  0  0  0  0  0
  -16.4569   16.0806  -28.2375 C   0  0  0  0  0  0  0  0  0  0  0  0
  -17.0401   16.1467  -26.9870 C   0  0  0  0  0  0  0  0  0  0  0  0
  -19.4205   10.4071  -17.2853 C   0  0  0  0  0  0  0  0  0  0  0  0
  -19.2264   11.7364  -17.5226 C   0  0  0  0  0  0  0  0  0  0  0  0
  -18.4042   12.2134  -18.5128 C   0  0  0  0  0  0  0  0  0  0  0  0
  -17.7130   11.3416  -19.3458 C   0  0  0  0  0  0  0  0  0  0  0  0
  -17.9078    9.9686  -19.1014 C   0  0  0  0  0  0  0  0  0  0  0  0
  -18.7299    9.5312  -18.1111 C   0  0  0  0  0  0  0  0  0  0  0  0
  -19.8239   10.0675  -15.0152 F   0  0  0  0  0  0  0  0  0  0  0  0
  -20.3883    9.9247  -16.2420 C   0  0  0  0  0  0  0  0  0  0  0  0
  -21.5751   10.5914  -16.3992 F   0  0  0  0  0  0  0  0  0  0  0  0
  -20.5492    8.5561  -16.5456 F   0  0  0  0  0  0  0  0  0  0  0  0
 28 29  1  0  0  0
 29 30  1  0  0  0
 29 31  1  0  0  0
 29 22  1  0  0  0
 22 23  2  0  0  0
 23 24  1  0  0  0
 24 25  2  0  0  0
 25 26  1  0  0  0
 26 27  2  0  0  0
 25  1  1  0  0  0
  1  2  2  0  0  0
  1  3  1  0  0  0
  3  4  1  0  0  0
  4  5  1  0  0  0
  5  6  1  0  0  0
  6  7  1  0  0  0
  7  8  1  0  0  0
  6  9  1  0  0  0
  9 10  1  0  0  0
 10 11  1  0  0  0
 11 12  1  0  0  0
 12 13  2  0  0  0
  9 15  1  0  0  0
 15 16  2  0  0  0
 16 17  1  0  0  0
 17 18  2  0  0  0
 18 19  1  0  0  0
 18 20  1  0  0  0
 20 21  2  0  0  0
 27 22  1  0  0  0
  8  3  1  0  0  0
 21 15  1  0  0  0
 12  6  1  0  0  0
 11 14  1  0  0  0
M  END
> <minimizedAffinity>
-4.70034

> <CNNscore>
0.4311052561

> <CNNaffinity>
6.6080880165

> <CNN_VS>
2.8487815857

> <CNNaffinity_variance>
0.5175077319

$$$$
[H]c1c([H])c(N2C([H])([H])N([H])C(=O)C23C([H])([H])C([H])([H])N(C(=O)c2c([H])c([H])c(C(F)(F)F)c([H])c2[H])C([H])([H])C3([H])[H])c([H])c([H])c1Cl


 31 34  0  0  0  0  0  0  0  0999 V2000
  -17.8940   11.2733  -18.7730 C   0  0  0  0  0  0  0  0  0  0  0  0
  -16.7792   10.5864  -18.9142 O   0  0  0  0  0  0  0  0  0  0  0  0
  -17.9440   12.3828  -19.6328 N   0  0  0  0  0  0  0  0  0  0  0  0
  -18.8924   13.4191  -19.5406 C   0  0  0  0  0  0  0  0  0  0  0  0
  -19.2541   13.9733  -20.8978 C   0  0  0  0  0  0  0  0  0  0  0  0
  -18.0029   14.5893  -21.5025 C   0  0  0  0  0  0  0  0  0  0  0  0
  -16.8567   13.6643  -21.4832 C   0  0  0  0  0  0  0  0  0  0  0  0
  -17.0148   12.3717  -20.8019 C   0  0  0  0  0  0  0  0  0  0  0  0
  -18.2330   15.3245  -22.7180 N   0  0  0  0  0  0  0  0  0  0  0  0
  -19.3666   16.2108  -22.3288 C   0  0  0  0  0  0  0  0  0  0  0  0
  -18.8630   16.6795  -21.0250 N   0  0  0  0  0  0  0  0  0  0  0  0
  -17.7663   15.8281  -20.6215 C   0  0  0  0  0  0  0  0  0  0  0  0
  -16.8716   16.0237  -19.8070 O   0  0  0  0  0  0  0  0  0  0  0  0
  -19.2240   17.4950  -20.4901 H   0  0  0  0  0  0  0  0  0  0  0  0
  -17.6563   15.4162  -23.9634 C   0  0  0  0  0  0  0  0  0  0  0  0
  -17.7142   14.3358  -24.8172 C   0  0  0  0  0  0  0  0  0  0  0  0
  -17.1144   14.3265  -26.0503 C   0  0  0  0  0  0  0  0  0  0  0  0
  -16.4088   15.4289  -26.5041 C   0  0  0  0  0  0  0  0  0  0  0  0
  -15.6275   15.3837  -28.0804 Cl  0  0  0  0  0  0  0  0  0  0  0  0
  -16.3432   16.5132  -25.6722 C   0  0  0  0  0  0  0  0  0  0  0  0
  -16.9484   16.5131  -24.4304 C   0  0  0  0  0  0  0  0  0  0  0  0
  -20.4805    9.5035  -15.8954 C   0  0  0  0  0  0  0  0  0  0  0  0
  -20.6452   10.8047  -16.2705 C   0  0  0  0  0  0  0  0  0  0  0  0
  -19.8429   11.4313  -17.1911 C   0  0  0  0  0  0  0  0  0  0  0  0
  -18.7974   10.7513  -17.8043 C   0  0  0  0  0  0  0  0  0  0  0  0
  -18.6218    9.4090  -17.4168 C   0  0  0  0  0  0  0  0  0  0  0  0
  -19.4356    8.8200  -16.5010 C   0  0  0  0  0  0  0  0  0  0  0  0
  -21.1831    7.4953  -14.9440 F   0  0  0  0  0  0  0  0  0  0  0  0
  -21.4273    8.8312  -14.9417 C   0  0  0  0  0  0  0  0  0  0  0  0
  -21.3107    9.4249  -13.7122 F   0  0  0  0  0  0  0  0  0  0  0  0
  -22.6984    9.0929  -15.4956 F   0  0  0  0  0  0  0  0  0  0  0  0
 28 29  1  0  0  0
 29 30  1  0  0  0
 29 31  1  0  0  0
 29 22  1  0  0  0
 22 23  2  0  0  0
 23 24  1  0  0  0
 24 25  2  0  0  0
 25 26  1  0  0  0
 26 27  2  0  0  0
 25  1  1  0  0  0
  1  2  2  0  0  0
  1  3  1  0  0  0
  3  4  1  0  0  0
  4  5  1  0  0  0
  5  6  1  0  0  0
  6  7  1  0  0  0
  7  8  1  0  0  0
  6  9  1  0  0  0
  9 10  1  0  0  0
 10 11  1  0  0  0
 11 12  1  0  0  0
 12 13  2  0  0  0
  9 15  1  0  0  0
 15 16  2  0  0  0
 16 17  1  0  0  0
 17 18  2  0  0  0
 18 19  1  0  0  0
 18 20  1  0  0  0
 20 21  2  0  0  0
 27 22  1  0  0  0
  8  3  1  0  0  0
 21 15  1  0  0  0
 12  6  1  0  0  0
 11 14  1  0  0  0
M  END
> <minimizedAffinity>
-9.37569

> <CNNscore>
0.2712736130

> <CNNaffinity>
6.3716950417

> <CNN_VS>
1.7284727097

> <CNNaffinity_variance>
0.4424871504

$$$$
[H]c1c([H])c(N2C([H])([H])N([H])C(=O)C23C([H])([H])C([H])([H])N(C(=O)c2c([H])c([H])c(C(F)(F)F)c([H])c2[H])C([H])([H])C3([H])[H])c([H])c([H])c1Cl


 31 34  0  0  0  0  0  0  0  0999 V2000
  -22.1418   17.0546  -19.4872 C   0  0  0  0  0  0  0  0  0  0  0  0
  -22.8648   16.1516  -20.1168 O   0  0  0  0  0  0  0  0  0  0  0  0
  -20.7910   17.0108  -19.8696 N   0  0  0  0  0  0  0  0  0  0  0  0
  -19.7525   17.6874  -19.2021 C   0  0  0  0  0  0  0  0  0  0  0  0
  -18.6751   18.1454  -20.1557 C   0  0  0  0  0  0  0  0  0  0  0  0
  -18.0486   16.9115  -20.7845 C   0  0  0  0  0  0  0  0  0  0  0  0
  -19.0550   16.0020  -21.3587 C   0  0  0  0  0  0  0  0  0  0  0  0
  -20.4762   16.3151  -21.1530 C   0  0  0  0  0  0  0  0  0  0  0  0
  -16.8782   17.1805  -21.5776 N   0  0  0  0  0  0  0  0  0  0  0  0
  -16.0660   18.0174  -20.6491 C   0  0  0  0  0  0  0  0  0  0  0  0
  -16.2082   17.2140  -19.4213 N   0  0  0  0  0  0  0  0  0  0  0  0
  -17.2888   16.2719  -19.6096 C   0  0  0  0  0  0  0  0  0  0  0  0
  -17.5445   15.2324  -19.0130 O   0  0  0  0  0  0  0  0  0  0  0  0
  -15.6209   17.2978  -18.5672 H   0  0  0  0  0  0  0  0  0  0  0  0
  -16.3927   16.8150  -22.8116 C   0  0  0  0  0  0  0  0  0  0  0  0
  -16.8439   17.4697  -23.9372 C   0  0  0  0  0  0  0  0  0  0  0  0
  -16.4541   17.1265  -25.2064 C   0  0  0  0  0  0  0  0  0  0  0  0
  -15.5673   16.0836  -25.4183 C   0  0  0  0  0  0  0  0  0  0  0  0
  -15.1008   15.6466  -27.0580 Cl  0  0  0  0  0  0  0  0  0  0  0  0
  -15.1047   15.4237  -24.3125 C   0  0  0  0  0  0  0  0  0  0  0  0
  -15.5047   15.7745  -23.0377 C   0  0  0  0  0  0  0  0  0  0  0  0
  -24.1622   19.6759  -16.8134 C   0  0  0  0  0  0  0  0  0  0  0  0
  -24.5966   18.3950  -16.9915 C   0  0  0  0  0  0  0  0  0  0  0  0
  -23.9887   17.5039  -17.8403 C   0  0  0  0  0  0  0  0  0  0  0  0
  -22.8695   17.8725  -18.5772 C   0  0  0  0  0  0  0  0  0  0  0  0
  -22.4204   19.1952  -18.3988 C   0  0  0  0  0  0  0  0  0  0  0  0
  -23.0473   20.0516  -17.5495 C   0  0  0  0  0  0  0  0  0  0  0  0
  -25.7146   21.3779  -16.4598 F   0  0  0  0  0  0  0  0  0  0  0  0
  -24.8082   20.5970  -15.8173 C   0  0  0  0  0  0  0  0  0  0  0  0
  -25.3312   19.8466  -14.7970 F   0  0  0  0  0  0  0  0  0  0  0  0
  -23.7353   21.3845  -15.3486 F   0  0  0  0  0  0  0  0  0  0  0  0
 28 29  1  0  0  0
 29 30  1  0  0  0
 29 31  1  0  0  0
 29 22  1  0  0  0
 22 23  2  0  0  0
 23 24  1  0  0  0
 24 25  2  0  0  0
 25 26  1  0  0  0
 26 27  2  0  0  0
 25  1  1  0  0  0
  1  2  2  0  0  0
  1  3  1  0  0  0
  3  4  1  0  0  0
  4  5  1  0  0  0
  5  6  1  0  0  0
  6  7  1  0  0  0
  7  8  1  0  0  0
  6  9  1  0  0  0
  9 10  1  0  0  0
 10 11  1  0  0  0
 11 12  1  0  0  0
 12 13  2  0  0  0
  9 15  1  0  0  0
 15 16  2  0  0  0
 16 17  1  0  0  0
 17 18  2  0  0  0
 18 19  1  0  0  0
 18 20  1  0  0  0
 20 21  2  0  0  0
 27 22  1  0  0  0
  8  3  1  0  0  0
 21 15  1  0  0  0
 12  6  1  0  0  0
 11 14  1  0  0  0
M  END
> <minimizedAffinity>
-5.44946

> <CNNscore>
0.2687201202

> <CNNaffinity>
5.8063249588

> <CNN_VS>
1.5602763891

> <CNNaffinity_variance>
0.5385878682

$$$$
[H]c1c([H])c(N2C([H])([H])N([H])C(=O)C23C([H])([H])C([H])([H])N(C(=O)c2c([H])c([H])c(C(F)(F)F)c([H])c2[H])C([H])([H])C3([H])[H])c([H])c([H])c1Cl


 31 34  0  0  0  0  0  0  0  0999 V2000
  -22.2638   16.7699  -20.1293 C   0  0  0  0  0  0  0  0  0  0  0  0
  -23.0241   17.1830  -19.1364 O   0  0  0  0  0  0  0  0  0  0  0  0
  -21.3877   15.7458  -19.7337 N   0  0  0  0  0  0  0  0  0  0  0  0
  -20.3090   15.2780  -20.5079 C   0  0  0  0  0  0  0  0  0  0  0  0
  -20.0721   13.8002  -20.3081 C   0  0  0  0  0  0  0  0  0  0  0  0
  -19.6852   13.5785  -18.8549 C   0  0  0  0  0  0  0  0  0  0  0  0
  -20.6403   14.1970  -17.9195 C   0  0  0  0  0  0  0  0  0  0  0  0
  -21.7249   15.0202  -18.4728 C   0  0  0  0  0  0  0  0  0  0  0  0
  -19.2464   12.2409  -18.5564 N   0  0  0  0  0  0  0  0  0  0  0  0
  -18.2330   12.0066  -19.6242 C   0  0  0  0  0  0  0  0  0  0  0  0
  -17.4978   13.2813  -19.5358 N   0  0  0  0  0  0  0  0  0  0  0  0
  -18.2881   14.2168  -18.7672 C   0  0  0  0  0  0  0  0  0  0  0  0
  -17.9547   15.2426  -18.1853 O   0  0  0  0  0  0  0  0  0  0  0  0
  -16.5607   13.4734  -19.9437 H   0  0  0  0  0  0  0  0  0  0  0  0
  -19.4828   11.2975  -17.5837 C   0  0  0  0  0  0  0  0  0  0  0  0
  -18.7626   10.1225  -17.5913 C   0  0  0  0  0  0  0  0  0  0  0  0
  -18.9791    9.1090  -16.6932 C   0  0  0  0  0  0  0  0  0  0  0  0
  -19.9526    9.2246  -15.7146 C   0  0  0  0  0  0  0  0  0  0  0  0
  -20.2279    7.9003  -14.5886 Cl  0  0  0  0  0  0  0  0  0  0  0  0
  -20.6759   10.3858  -15.6882 C   0  0  0  0  0  0  0  0  0  0  0  0
  -20.4528   11.4007  -16.5983 C   0  0  0  0  0  0  0  0  0  0  0  0
  -23.1488   18.6156  -23.8593 C   0  0  0  0  0  0  0  0  0  0  0  0
  -22.0115   18.9366  -23.1777 C   0  0  0  0  0  0  0  0  0  0  0  0
  -21.6726   18.3775  -21.9709 C   0  0  0  0  0  0  0  0  0  0  0  0
  -22.4924   17.4297  -21.3699 C   0  0  0  0  0  0  0  0  0  0  0  0
  -23.6693   17.0986  -22.0687 C   0  0  0  0  0  0  0  0  0  0  0  0
  -23.9739   17.6727  -23.2626 C   0  0  0  0  0  0  0  0  0  0  0  0
  -23.2084   18.2472  -26.1598 F   0  0  0  0  0  0  0  0  0  0  0  0
  -23.4462   19.1926  -25.2145 C   0  0  0  0  0  0  0  0  0  0  0  0
  -24.7260   19.6823  -25.2143 F   0  0  0  0  0  0  0  0  0  0  0  0
  -22.5164   20.2468  -25.3381 F   0  0  0  0  0  0  0  0  0  0  0  0
 28 29  1  0  0  0
 29 30  1  0  0  0
 29 31  1  0  0  0
 29 22  1  0  0  0
 22 23  2  0  0  0
 23 24  1  0  0  0
 24 25  2  0  0  0
 25 26  1  0  0  0
 26 27  2  0  0  0
 25  1  1  0  0  0
  1  2  2  0  0  0
  1  3  1  0  0  0
  3  4  1  0  0  0
  4  5  1  0  0  0
  5  6  1  0  0  0
  6  7  1  0  0  0
  7  8  1  0  0  0
  6  9  1  0  0  0
  9 10  1  0  0  0
 10 11  1  0  0  0
 11 12  1  0  0  0
 12 13  2  0  0  0
  9 15  1  0  0  0
 15 16  2  0  0  0
 16 17  1  0  0  0
 17 18  2  0  0  0
 18 19  1  0  0  0
 18 20  1  0  0  0
 20 21  2  0  0  0
 27 22  1  0  0  0
  8  3  1  0  0  0
 21 15  1  0  0  0
 12  6  1  0  0  0
 11 14  1  0  0  0
M  END
> <minimizedAffinity>
-8.24965

> <CNNscore>
0.2577231824

> <CNNaffinity>
5.8991508484

> <CNN_VS>
1.5203479528

> <CNNaffinity_variance>
0.0675073490

$$$$
[H]c1c([H])c(N2C([H])([H])N([H])C(=O)C23C([H])([H])C([H])([H])N(C(=O)c2c([H])c([H])c(C(F)(F)F)c([H])c2[H])C([H])([H])C3([H])[H])c([H])c([H])c1Cl


 31 34  0  0  0  0  0  0  0  0999 V2000
  -19.2638   15.7629  -18.5466 C   0  0  0  0  0  0  0  0  0  0  0  0
  -18.2239   16.4060  -18.0574 O   0  0  0  0  0  0  0  0  0  0  0  0
  -19.5680   14.6087  -17.8063 N   0  0  0  0  0  0  0  0  0  0  0  0
  -20.4668   13.6090  -18.2242 C   0  0  0  0  0  0  0  0  0  0  0  0
  -21.2017   12.9903  -17.0593 C   0  0  0  0  0  0  0  0  0  0  0  0
  -20.1786   12.3029  -16.1698 C   0  0  0  0  0  0  0  0  0  0  0  0
  -19.0602   13.1917  -15.8106 C   0  0  0  0  0  0  0  0  0  0  0  0
  -19.0033   14.5250  -16.4263 C   0  0  0  0  0  0  0  0  0  0  0  0
  -20.7499   11.5075  -15.1153 N   0  0  0  0  0  0  0  0  0  0  0  0
  -21.7412   10.6800  -15.8600 C   0  0  0  0  0  0  0  0  0  0  0  0
  -20.8992   10.2705  -16.9986 N   0  0  0  0  0  0  0  0  0  0  0  0
  -19.7217   11.1091  -17.0261 C   0  0  0  0  0  0  0  0  0  0  0  0
  -18.6375   10.9324  -17.5696 O   0  0  0  0  0  0  0  0  0  0  0  0
  -21.1070    9.4980  -17.6631 H   0  0  0  0  0  0  0  0  0  0  0  0
  -20.5465   11.3279  -13.7669 C   0  0  0  0  0  0  0  0  0  0  0  0
  -21.4410   11.8699  -12.8694 C   0  0  0  0  0  0  0  0  0  0  0  0
  -21.2777   11.7859  -11.5104 C   0  0  0  0  0  0  0  0  0  0  0  0
  -20.1821   11.1358  -10.9666 C   0  0  0  0  0  0  0  0  0  0  0  0
  -19.9823   11.0622   -9.2196 Cl  0  0  0  0  0  0  0  0  0  0  0  0
  -19.2845   10.5874  -11.8416 C   0  0  0  0  0  0  0  0  0  0  0  0
  -19.4555   10.6789  -13.2093 C   0  0  0  0  0  0  0  0  0  0  0  0
  -21.2257   17.5899  -21.8506 C   0  0  0  0  0  0  0  0  0  0  0  0
  -19.9303   17.1751  -21.9544 C   0  0  0  0  0  0  0  0  0  0  0  0
  -19.2438   16.5818  -20.9246 C   0  0  0  0  0  0  0  0  0  0  0  0
  -19.8525   16.3664  -19.6939 C   0  0  0  0  0  0  0  0  0  0  0  0
  -21.1886   16.7966  -19.5817 C   0  0  0  0  0  0  0  0  0  0  0  0
  -21.8381   17.3814  -20.6228 C   0  0  0  0  0  0  0  0  0  0  0  0
  -23.2558   17.7398  -22.9854 F   0  0  0  0  0  0  0  0  0  0  0  0
  -21.9667   18.1651  -23.0244 C   0  0  0  0  0  0  0  0  0  0  0  0
  -21.8205   19.5275  -23.0139 F   0  0  0  0  0  0  0  0  0  0  0  0
  -21.3058   17.6082  -24.1398 F   0  0  0  0  0  0  0  0  0  0  0  0
 28 29  1  0  0  0
 29 30  1  0  0  0
 29 31  1  0  0  0
 29 22  1  0  0  0
 22 23  2  0  0  0
 23 24  1  0  0  0
 24 25  2  0  0  0
 25 26  1  0  0  0
 26 27  2  0  0  0
 25  1  1  0  0  0
  1  2  2  0  0  0
  1  3  1  0  0  0
  3  4  1  0  0  0
  4  5  1  0  0  0
  5  6  1  0  0  0
  6  7  1  0  0  0
  7  8  1  0  0  0
  6  9  1  0  0  0
  9 10  1  0  0  0
 10 11  1  0  0  0
 11 12  1  0  0  0
 12 13  2  0  0  0
  9 15  1  0  0  0
 15 16  2  0  0  0
 16 17  1  0  0  0
 17 18  2  0  0  0
 18 19  1  0  0  0
 18 20  1  0  0  0
 20 21  2  0  0  0
 27 22  1  0  0  0
  8  3  1  0  0  0
 21 15  1  0  0  0
 12  6  1  0  0  0
 11 14  1  0  0  0
M  END
> <minimizedAffinity>
-5.17975

> <CNNscore>
0.2545458972

> <CNNaffinity>
5.5605401993

> <CNN_VS>
1.4154126644

> <CNNaffinity_variance>
0.5228331685

$$$$
[H]c1c([H])c(N2C([H])([H])N([H])C(=O)C23C([H])([H])C([H])([H])N(C(=O)c2c([H])c([H])c(C(F)(F)F)c([H])c2[H])C([H])([H])C3([H])[H])c([H])c([H])c1Cl


 31 34  0  0  0  0  0  0  0  0999 V2000
  -16.7159   15.2488  -23.7558 C   0  0  0  0  0  0  0  0  0  0  0  0
  -16.2939   15.7753  -24.8868 O   0  0  0  0  0  0  0  0  0  0  0  0
  -17.7555   15.9972  -23.1796 N   0  0  0  0  0  0  0  0  0  0  0  0
  -18.2383   15.8124  -21.8702 C   0  0  0  0  0  0  0  0  0  0  0  0
  -19.7204   16.0840  -21.7732 C   0  0  0  0  0  0  0  0  0  0  0  0
  -19.9533   17.5469  -22.1139 C   0  0  0  0  0  0  0  0  0  0  0  0
  -19.3225   17.9337  -23.3876 C   0  0  0  0  0  0  0  0  0  0  0  0
  -18.4799   16.9462  -24.0768 C   0  0  0  0  0  0  0  0  0  0  0  0
  -21.2990   18.0017  -21.8828 N   0  0  0  0  0  0  0  0  0  0  0  0
  -21.5461   17.5294  -20.4908 C   0  0  0  0  0  0  0  0  0  0  0  0
  -20.2839   17.9648  -19.8660 N   0  0  0  0  0  0  0  0  0  0  0  0
  -19.3383   18.2846  -20.9120 C   0  0  0  0  0  0  0  0  0  0  0  0
  -18.3201   18.9658  -20.8763 O   0  0  0  0  0  0  0  0  0  0  0  0
  -20.1057   18.0447  -18.8446 H   0  0  0  0  0  0  0  0  0  0  0  0
  -22.2418   18.7408  -22.5589 C   0  0  0  0  0  0  0  0  0  0  0  0
  -21.9961   19.1234  -23.8599 C   0  0  0  0  0  0  0  0  0  0  0  0
  -22.8576   19.9092  -24.5816 C   0  0  0  0  0  0  0  0  0  0  0  0
  -24.0414   20.3623  -24.0228 C   0  0  0  0  0  0  0  0  0  0  0  0
  -25.1191   21.3896  -24.9612 Cl  0  0  0  0  0  0  0  0  0  0  0  0
  -24.3051   19.9898  -22.7330 C   0  0  0  0  0  0  0  0  0  0  0  0
  -23.4304   19.1999  -22.0123 C   0  0  0  0  0  0  0  0  0  0  0  0
  -14.9022   11.6276  -22.4519 C   0  0  0  0  0  0  0  0  0  0  0  0
  -14.2822   12.4241  -23.3696 C   0  0  0  0  0  0  0  0  0  0  0  0
  -14.8171   13.6013  -23.8300 C   0  0  0  0  0  0  0  0  0  0  0  0
  -16.0481   14.0525  -23.3690 C   0  0  0  0  0  0  0  0  0  0  0  0
  -16.6930   13.2310  -22.4244 C   0  0  0  0  0  0  0  0  0  0  0  0
  -16.1339   12.0704  -21.9906 C   0  0  0  0  0  0  0  0  0  0  0  0
  -14.3597   10.3763  -20.5621 F   0  0  0  0  0  0  0  0  0  0  0  0
  -14.2489   10.3853  -21.9155 C   0  0  0  0  0  0  0  0  0  0  0  0
  -14.8001    9.2943  -22.5349 F   0  0  0  0  0  0  0  0  0  0  0  0
  -12.8966   10.5326  -22.2905 F   0  0  0  0  0  0  0  0  0  0  0  0
 28 29  1  0  0  0
 29 30  1  0  0  0
 29 31  1  0  0  0
 29 22  1  0  0  0
 22 23  2  0  0  0
 23 24  1  0  0  0
 24 25  2  0  0  0
 25 26  1  0  0  0
 26 27  2  0  0  0
 25  1  1  0  0  0
  1  2  2  0  0  0
  1  3  1  0  0  0
  3  4  1  0  0  0
  4  5  1  0  0  0
  5  6  1  0  0  0
  6  7  1  0  0  0
  7  8  1  0  0  0
  6  9  1  0  0  0
  9 10  1  0  0  0
 10 11  1  0  0  0
 11 12  1  0  0  0
 12 13  2  0  0  0
  9 15  1  0  0  0
 15 16  2  0  0  0
 16 17  1  0  0  0
 17 18  2  0  0  0
 18 19  1  0  0  0
 18 20  1  0  0  0
 20 21  2  0  0  0
 27 22  1  0  0  0
  8  3  1  0  0  0
 21 15  1  0  0  0
 12  6  1  0  0  0
 11 14  1  0  0  0
M  END
> <minimizedAffinity>
-1.08335

> <CNNscore>
0.2421011627

> <CNNaffinity>
5.9199962616

> <CNN_VS>
1.4332380295

> <CNNaffinity_variance>
1.0112619400

$$$$
[H]c1c([H])c(N2C([H])([H])N([H])C(=O)C23C([H])([H])C([H])([H])N(C(=O)c2c([H])c([H])c(C(F)(F)F)c([H])c2[H])C([H])([H])C3([H])[H])c([H])c([H])c1Cl


 31 34  0  0  0  0  0  0  0  0999 V2000
  -18.4367   10.6831  -18.5818 C   0  0  0  0  0  0  0  0  0  0  0  0
  -17.6672    9.7605  -19.1216 O   0  0  0  0  0  0  0  0  0  0  0  0
  -18.9718   10.2710  -17.3503 N   0  0  0  0  0  0  0  0  0  0  0  0
  -20.0025   10.9426  -16.6657 C   0  0  0  0  0  0  0  0  0  0  0  0
  -19.8415   10.8422  -15.1678 C   0  0  0  0  0  0  0  0  0  0  0  0
  -19.9530    9.3767  -14.7803 C   0  0  0  0  0  0  0  0  0  0  0  0
  -19.0548    8.5175  -15.5708 C   0  0  0  0  0  0  0  0  0  0  0  0
  -18.2930    9.1285  -16.6691 C   0  0  0  0  0  0  0  0  0  0  0  0
  -20.0059    9.1416  -13.3615 N   0  0  0  0  0  0  0  0  0  0  0  0
  -21.0724   10.0915  -12.9343 C   0  0  0  0  0  0  0  0  0  0  0  0
  -22.0758    9.8038  -13.9752 N   0  0  0  0  0  0  0  0  0  0  0  0
  -21.4365    9.0619  -15.0390 C   0  0  0  0  0  0  0  0  0  0  0  0
  -21.9240    8.3574  -15.9154 O   0  0  0  0  0  0  0  0  0  0  0  0
  -23.0795   10.0742  -13.9450 H   0  0  0  0  0  0  0  0  0  0  0  0
  -19.4116    8.2902  -12.4593 C   0  0  0  0  0  0  0  0  0  0  0  0
  -19.7673    6.9588  -12.4499 C   0  0  0  0  0  0  0  0  0  0  0  0
  -19.2653    6.0590  -11.5449 C   0  0  0  0  0  0  0  0  0  0  0  0
  -18.3558    6.4571  -10.5789 C   0  0  0  0  0  0  0  0  0  0  0  0
  -17.7443    5.2887   -9.4135 Cl  0  0  0  0  0  0  0  0  0  0  0  0
  -17.9871    7.7747  -10.5745 C   0  0  0  0  0  0  0  0  0  0  0  0
  -18.4997    8.6749  -11.4884 C   0  0  0  0  0  0  0  0  0  0  0  0
  -18.5938   14.1963  -20.9767 C   0  0  0  0  0  0  0  0  0  0  0  0
  -19.5055   13.9915  -19.9829 C   0  0  0  0  0  0  0  0  0  0  0  0
  -19.5077   12.8789  -19.1792 C   0  0  0  0  0  0  0  0  0  0  0  0
  -18.5537   11.8813  -19.3416 C   0  0  0  0  0  0  0  0  0  0  0  0
  -17.6131   12.0873  -20.3691 C   0  0  0  0  0  0  0  0  0  0  0  0
  -17.6408   13.2018  -21.1469 C   0  0  0  0  0  0  0  0  0  0  0  0
  -19.7050   16.1721  -21.5180 F   0  0  0  0  0  0  0  0  0  0  0  0
  -18.5777   15.4633  -21.7843 C   0  0  0  0  0  0  0  0  0  0  0  0
  -17.4125   16.1365  -21.5259 F   0  0  0  0  0  0  0  0  0  0  0  0
  -18.5960   15.0067  -23.1193 F   0  0  0  0  0  0  0  0  0  0  0  0
 28 29  1  0  0  0
 29 30  1  0  0  0
 29 31  1  0  0  0
 29 22  1  0  0  0
 22 23  2  0  0  0
 23 24  1  0  0  0
 24 25  2  0  0  0
 25 26  1  0  0  0
 26 27  2  0  0  0
 25  1  1  0  0  0
  1  2  2  0  0  0
  1  3  1  0  0  0
  3  4  1  0  0  0
  4  5  1  0  0  0
  5  6  1  0  0  0
  6  7  1  0  0  0
  7  8  1  0  0  0
  6  9  1  0  0  0
  9 10  1  0  0  0
 10 11  1  0  0  0
 11 12  1  0  0  0
 12 13  2  0  0  0
  9 15  1  0  0  0
 15 16  2  0  0  0
 16 17  1  0  0  0
 17 18  2  0  0  0
 18 19  1  0  0  0
 18 20  1  0  0  0
 20 21  2  0  0  0
 27 22  1  0  0  0
  8  3  1  0  0  0
 21 15  1  0  0  0
 12  6  1  0  0  0
 11 14  1  0  0  0
M  END
> <minimizedAffinity>
-7.35280

> <CNNscore>
0.1819855124

> <CNNaffinity>
5.6267828941

> <CNN_VS>
1.0239930153

> <CNNaffinity_variance>
0.3357338309

$$$$
[H]c1c([H])c(N2C([H])([H])N([H])C(=O)C23C([H])([H])C([H])([H])N(C(=O)c2c([H])c([H])c(C(F)(F)F)c([H])c2[H])C([H])([H])C3([H])[H])c([H])c([H])c1Cl


 31 34  0  0  0  0  0  0  0  0999 V2000
  -18.4488   15.2647  -21.5836 C   0  0  0  0  0  0  0  0  0  0  0  0
  -18.9348   14.0902  -21.2387 O   0  0  0  0  0  0  0  0  0  0  0  0
  -18.8689   16.2862  -20.7161 N   0  0  0  0  0  0  0  0  0  0  0  0
  -18.7039   17.6616  -20.9671 C   0  0  0  0  0  0  0  0  0  0  0  0
  -18.4674   18.4413  -19.6959 C   0  0  0  0  0  0  0  0  0  0  0  0
  -19.7071   18.3096  -18.8263 C   0  0  0  0  0  0  0  0  0  0  0  0
  -20.1151   16.9065  -18.6398 C   0  0  0  0  0  0  0  0  0  0  0  0
  -19.3907   15.8650  -19.3817 C   0  0  0  0  0  0  0  0  0  0  0  0
  -19.7050   19.1533  -17.6604 N   0  0  0  0  0  0  0  0  0  0  0  0
  -19.3626   20.4811  -18.2451 C   0  0  0  0  0  0  0  0  0  0  0  0
  -20.2776   20.4732  -19.4009 N   0  0  0  0  0  0  0  0  0  0  0  0
  -20.7595   19.1243  -19.5979 C   0  0  0  0  0  0  0  0  0  0  0  0
  -21.7440   18.7169  -20.2037 O   0  0  0  0  0  0  0  0  0  0  0  0
  -20.5455   21.3005  -19.9713 H   0  0  0  0  0  0  0  0  0  0  0  0
  -19.9860   19.0195  -16.3206 C   0  0  0  0  0  0  0  0  0  0  0  0
  -21.1224   19.6051  -15.8058 C   0  0  0  0  0  0  0  0  0  0  0  0
  -21.4424   19.5678  -14.4728 C   0  0  0  0  0  0  0  0  0  0  0  0
  -20.6196   18.9233  -13.5637 C   0  0  0  0  0  0  0  0  0  0  0  0
  -21.0395   18.9099  -11.8547 Cl  0  0  0  0  0  0  0  0  0  0  0  0
  -19.4882   18.3322  -14.0563 C   0  0  0  0  0  0  0  0  0  0  0  0
  -19.1722   18.3767  -15.4003 C   0  0  0  0  0  0  0  0  0  0  0  0
  -15.7589   15.2659  -24.8802 C   0  0  0  0  0  0  0  0  0  0  0  0
  -17.0910   15.0412  -25.0704 C   0  0  0  0  0  0  0  0  0  0  0  0
  -18.0066   15.0266  -24.0480 C   0  0  0  0  0  0  0  0  0  0  0  0
  -17.6108   15.2486  -22.7344 C   0  0  0  0  0  0  0  0  0  0  0  0
  -16.2359   15.4772  -22.5336 C   0  0  0  0  0  0  0  0  0  0  0  0
  -15.3564   15.4843  -23.5701 C   0  0  0  0  0  0  0  0  0  0  0  0
  -15.4416   14.9755  -27.1708 F   0  0  0  0  0  0  0  0  0  0  0  0
  -14.8001   15.3505  -26.0341 C   0  0  0  0  0  0  0  0  0  0  0  0
  -14.2692   16.6131  -26.0749 F   0  0  0  0  0  0  0  0  0  0  0  0
  -13.8024   14.4079  -25.7068 F   0  0  0  0  0  0  0  0  0  0  0  0
 28 29  1  0  0  0
 29 30  1  0  0  0
 29 31  1  0  0  0
 29 22  1  0  0  0
 22 23  2  0  0  0
 23 24  1  0  0  0
 24 25  2  0  0  0
 25 26  1  0  0  0
 26 27  2  0  0  0
 25  1  1  0  0  0
  1  2  2  0  0  0
  1  3  1  0  0  0
  3  4  1  0  0  0
  4  5  1  0  0  0
  5  6  1  0  0  0
  6  7  1  0  0  0
  7  8  1  0  0  0
  6  9  1  0  0  0
  9 10  1  0  0  0
 10 11  1  0  0  0
 11 12  1  0  0  0
 12 13  2  0  0  0
  9 15  1  0  0  0
 15 16  2  0  0  0
 16 17  1  0  0  0
 17 18  2  0  0  0
 18 19  1  0  0  0
 18 20  1  0  0  0
 20 21  2  0  0  0
 27 22  1  0  0  0
  8  3  1  0  0  0
 21 15  1  0  0  0
 12  6  1  0  0  0
 11 14  1  0  0  0
M  END
> <minimizedAffinity>
-7.97474

> <CNNscore>
0.1728862077

> <CNNaffinity>
5.5809164047

> <CNN_VS>
0.9648634791

> <CNNaffinity_variance>
0.1962969601

$$$$
[H]c1c([H])c(N2C([H])([H])N([H])C(=O)C23C([H])([H])C([H])([H])N(C(=O)c2c([H])c([H])c(C(F)(F)F)c([H])c2[H])C([H])([H])C3([H])[H])c([H])c([H])c1Cl


 31 34  0  0  0  0  0  0  0  0999 V2000
  -17.9626   14.6097  -20.6637 C   0  0  0  0  0  0  0  0  0  0  0  0
  -17.7782   14.6001  -19.3597 O   0  0  0  0  0  0  0  0  0  0  0  0
  -16.7981   14.2566  -21.3651 N   0  0  0  0  0  0  0  0  0  0  0  0
  -16.6291   14.4077  -22.7545 C   0  0  0  0  0  0  0  0  0  0  0  0
  -15.7667   13.3146  -23.3387 C   0  0  0  0  0  0  0  0  0  0  0  0
  -14.3817   13.4291  -22.7231 C   0  0  0  0  0  0  0  0  0  0  0  0
  -14.4243   13.4813  -21.2516 C   0  0  0  0  0  0  0  0  0  0  0  0
  -15.7371   13.5429  -20.5936 C   0  0  0  0  0  0  0  0  0  0  0  0
  -13.3948   12.5694  -23.3213 N   0  0  0  0  0  0  0  0  0  0  0  0
  -13.5740   12.8620  -24.7719 C   0  0  0  0  0  0  0  0  0  0  0  0
  -13.6289   14.3339  -24.7109 N   0  0  0  0  0  0  0  0  0  0  0  0
  -13.8368   14.7307  -23.3362 C   0  0  0  0  0  0  0  0  0  0  0  0
  -13.6317   15.8053  -22.7837 O   0  0  0  0  0  0  0  0  0  0  0  0
  -13.5208   14.9813  -25.5175 H   0  0  0  0  0  0  0  0  0  0  0  0
  -12.4113   11.7113  -22.8871 C   0  0  0  0  0  0  0  0  0  0  0  0
  -12.2659   10.4843  -23.4977 C   0  0  0  0  0  0  0  0  0  0  0  0
  -11.3502    9.5502  -23.0862 C   0  0  0  0  0  0  0  0  0  0  0  0
  -10.5098    9.8049  -22.0149 C   0  0  0  0  0  0  0  0  0  0  0  0
   -9.3594    8.5806  -21.4905 Cl  0  0  0  0  0  0  0  0  0  0  0  0
  -10.6362   11.0195  -21.3979 C   0  0  0  0  0  0  0  0  0  0  0  0
  -11.5632   11.9538  -21.8175 C   0  0  0  0  0  0  0  0  0  0  0  0
  -21.8027   15.7447  -22.1018 C   0  0  0  0  0  0  0  0  0  0  0  0
  -21.6644   15.1601  -20.8770 C   0  0  0  0  0  0  0  0  0  0  0  0
  -20.4541   14.7706  -20.3599 C   0  0  0  0  0  0  0  0  0  0  0  0
  -19.2789   14.9606  -21.0772 C   0  0  0  0  0  0  0  0  0  0  0  0
  -19.4182   15.5603  -22.3437 C   0  0  0  0  0  0  0  0  0  0  0  0
  -20.6334   15.9335  -22.8250 C   0  0  0  0  0  0  0  0  0  0  0  0
  -23.5811   15.3796  -23.5633 F   0  0  0  0  0  0  0  0  0  0  0  0
  -23.1358   16.2270  -22.6001 C   0  0  0  0  0  0  0  0  0  0  0  0
  -23.9830   16.3636  -21.5318 F   0  0  0  0  0  0  0  0  0  0  0  0
  -22.8442   17.4885  -23.1609 F   0  0  0  0  0  0  0  0  0  0  0  0
 28 29  1  0  0  0
 29 30  1  0  0  0
 29 31  1  0  0  0
 29 22  1  0  0  0
 22 23  2  0  0  0
 23 24  1  0  0  0
 24 25  2  0  0  0
 25 26  1  0  0  0
 26 27  2  0  0  0
 25  1  1  0  0  0
  1  2  2  0  0  0
  1  3  1  0  0  0
  3  4  1  0  0  0
  4  5  1  0  0  0
  5  6  1  0  0  0
  6  7  1  0  0  0
  7  8  1  0  0  0
  6  9  1  0  0  0
  9 10  1  0  0  0
 10 11  1  0  0  0
 11 12  1  0  0  0
 12 13  2  0  0  0
  9 15  1  0  0  0
 15 16  2  0  0  0
 16 17  1  0  0  0
 17 18  2  0  0  0
 18 19  1  0  0  0
 18 20  1  0  0  0
 20 21  2  0  0  0
 27 22  1  0  0  0
  8  3  1  0  0  0
 21 15  1  0  0  0
 12  6  1  0  0  0
 11 14  1  0  0  0
M  END
> <minimizedAffinity>
62.79593

> <CNNscore>
0.1659651250

> <CNNaffinity>
5.4315428734

> <CNN_VS>
0.9014467001

> <CNNaffinity_variance>
0.7217819095

$$$$
[H]O[C@]1([H])[C@@]([H])(C([H])([H])OP(=O)(O[H])OP(=O)(O[H])OP(=O)(O[H])O[H])OC([H])(n2c([H])nc3c(N([H])[H])nc([H])nc32)[C@]1([H])O[H]


 39 41  0  0  0  0  0  0  0  0999 V2000
  -19.5812   13.2696  -19.6720 C   0  0  0  0  0  0  0  0  0  0  0  0
  -19.8975   12.2482  -18.8215 O   0  0  0  0  0  0  0  0  0  0  0  0
  -19.7593   12.6691  -17.5232 C   0  0  0  0  0  0  0  0  0  0  0  0
  -20.1108   14.1274  -17.5772 C   0  0  0  0  0  0  0  0  0  0  0  0
  -19.6985   14.8515  -16.4890 O   0  0  0  0  0  0  0  0  0  0  0  0
  -19.3224   14.5072  -18.8414 C   0  0  0  0  0  0  0  0  0  0  0  0
  -18.0036   14.6145  -18.4594 O   0  0  0  0  0  0  0  0  0  0  0  0
  -19.2778   15.7210  -16.7203 H   0  0  0  0  0  0  0  0  0  0  0  0
  -17.4681   13.8079  -18.5652 H   0  0  0  0  0  0  0  0  0  0  0  0
  -14.8118   11.3264  -22.8705 N   0  0  0  0  0  0  0  0  0  0  0  0
  -15.7105   11.1716  -21.7805 C   0  0  0  0  0  0  0  0  0  0  0  0
  -15.6259   10.1485  -20.9125 N   0  0  0  0  0  0  0  0  0  0  0  0
  -16.4820   10.0120  -19.8842 C   0  0  0  0  0  0  0  0  0  0  0  0
  -17.4845   10.9079  -19.6680 N   0  0  0  0  0  0  0  0  0  0  0  0
  -17.6102   11.9488  -20.5094 C   0  0  0  0  0  0  0  0  0  0  0  0
  -18.4676   12.9675  -20.5606 N   0  0  0  0  0  0  0  0  0  0  0  0
  -18.1360   13.7208  -21.6140 C   0  0  0  0  0  0  0  0  0  0  0  0
  -17.0790   13.1917  -22.2308 N   0  0  0  0  0  0  0  0  0  0  0  0
  -16.7394   12.0889  -21.5564 C   0  0  0  0  0  0  0  0  0  0  0  0
  -15.0233   10.8747  -23.8047 H   0  0  0  0  0  0  0  0  0  0  0  0
  -13.9266   11.8735  -22.8122 H   0  0  0  0  0  0  0  0  0  0  0  0
  -20.5547   11.8898  -16.5342 C   0  0  0  0  0  0  0  0  0  0  0  0
  -19.7926   11.3499  -15.5059 O   0  0  0  0  0  0  0  0  0  0  0  0
  -19.7239    9.6870  -15.5938 P   0  0  0  0  0  0  0  0  0  0  0  0
  -21.2913    9.0323  -15.6079 O   0  0  0  0  0  0  0  0  0  0  0  0
  -19.0899    9.2952  -16.9296 O   0  0  0  0  0  0  0  0  0  0  0  0
  -21.9318    9.7499  -15.9024 H   0  0  0  0  0  0  0  0  0  0  0  0
  -18.8139    8.9785  -14.3827 O   0  0  0  0  0  0  0  0  0  0  0  0
  -19.4131    9.2367  -12.8474 P   0  0  0  0  0  0  0  0  0  0  0  0
  -19.4672   10.9175  -12.5830 O   0  0  0  0  0  0  0  0  0  0  0  0
  -20.8111    8.7187  -12.6605 O   0  0  0  0  0  0  0  0  0  0  0  0
  -18.7568   11.3854  -13.0867 H   0  0  0  0  0  0  0  0  0  0  0  0
  -18.3538    8.6082  -11.6662 O   0  0  0  0  0  0  0  0  0  0  0  0
  -18.6658    9.2952  -10.1580 P   0  0  0  0  0  0  0  0  0  0  0  0
  -20.3330    9.6023  -10.0349 O   0  0  0  0  0  0  0  0  0  0  0  0
  -18.2784    8.2252   -8.8944 O   0  0  0  0  0  0  0  0  0  0  0  0
  -17.9601   10.6225   -9.9947 O   0  0  0  0  0  0  0  0  0  0  0  0
  -20.6711    9.8879  -10.9200 H   0  0  0  0  0  0  0  0  0  0  0  0
  -17.3207    8.2020   -8.7094 H   0  0  0  0  0  0  0  0  0  0  0  0
 10 11  1  0  0  0
 11 12  2  0  0  0
 12 13  1  0  0  0
 13 14  2  0  0  0
 14 15  1  0  0  0
 15 16  1  0  0  0
 16 17  1  0  0  0
 17 18  2  0  0  0
 18 19  1  0  0  0
 16  1  1  0  0  0
  1  2  1  0  0  0
  2  3  1  0  0  0
  3 22  1  0  0  0
 22 23  1  0  0  0
 23 24  1  0  0  0
 24 25  1  0  0  0
 24 26  2  0  0  0
 24 28  1  0  0  0
 28 29  1  0  0  0
 29 30  1  0  0  0
 29 31  2  0  0  0
 29 33  1  0  0  0
 33 34  1  0  0  0
 34 35  1  0  0  0
 34 36  1  0  0  0
 34 37  2  0  0  0
  3  4  1  0  0  0
  4  5  1  0  0  0
  4  6  1  0  0  0
  6  7  1  0  0  0
 19 11  1  0  0  0
  6  1  1  0  0  0
 19 15  2  0  0  0
 10 20  1  0  0  0
 10 21  1  0  0  0
 25 27  1  0  0  0
 30 32  1  0  0  0
 35 38  1  0  0  0
 36 39  1  0  0  0
  5  8  1  0  0  0
  7  9  1  0  0  0
M  END
> <minimizedAffinity>
-6.89119

> <CNNscore>
0.6277713180

> <CNNaffinity>
5.3446989059

> <CNN_VS>
3.3552486897

> <CNNaffinity_variance>
0.1572176516

$$$$
[H]O[C@]1([H])[C@@]([H])(C([H])([H])OP(=O)(O[H])OP(=O)(O[H])OP(=O)(O[H])O[H])OC([H])(n2c([H])nc3c(N([H])[H])nc([H])nc32)[C@]1([H])O[H]


 39 41  0  0  0  0  0  0  0  0999 V2000
  -17.4381   14.1212  -22.7510 C   0  0  0  0  0  0  0  0  0  0  0  0
  -18.5260   14.8922  -23.0485 O   0  0  0  0  0  0  0  0  0  0  0  0
  -18.2004   16.2187  -22.9206 C   0  0  0  0  0  0  0  0  0  0  0  0
  -16.7493   16.2724  -23.3006 C   0  0  0  0  0  0  0  0  0  0  0  0
  -16.1004   17.4128  -22.9043 O   0  0  0  0  0  0  0  0  0  0  0  0
  -16.2610   15.0425  -22.5179 C   0  0  0  0  0  0  0  0  0  0  0  0
  -16.1568   15.4354  -21.2020 O   0  0  0  0  0  0  0  0  0  0  0  0
  -15.2081   17.2482  -22.5004 H   0  0  0  0  0  0  0  0  0  0  0  0
  -16.9427   15.2714  -20.6507 H   0  0  0  0  0  0  0  0  0  0  0  0
  -17.6667    9.9023  -18.4032 N   0  0  0  0  0  0  0  0  0  0  0  0
  -17.0743   10.4229  -19.5856 C   0  0  0  0  0  0  0  0  0  0  0  0
  -16.0360    9.8271  -20.1975 N   0  0  0  0  0  0  0  0  0  0  0  0
  -15.4832   10.3287  -21.3163 C   0  0  0  0  0  0  0  0  0  0  0  0
  -15.9492   11.4723  -21.8903 N   0  0  0  0  0  0  0  0  0  0  0  0
  -16.9867   12.1049  -21.3152 C   0  0  0  0  0  0  0  0  0  0  0  0
  -17.6513   13.2159  -21.6302 N   0  0  0  0  0  0  0  0  0  0  0  0
  -18.6039   13.3907  -20.7087 C   0  0  0  0  0  0  0  0  0  0  0  0
  -18.5507   12.4038  -19.8138 N   0  0  0  0  0  0  0  0  0  0  0  0
  -17.5502   11.5954  -20.1763 C   0  0  0  0  0  0  0  0  0  0  0  0
  -17.2969   10.1854  -17.4521 H   0  0  0  0  0  0  0  0  0  0  0  0
  -18.4690    9.2370  -18.4074 H   0  0  0  0  0  0  0  0  0  0  0  0
  -19.0666   17.1445  -23.7020 C   0  0  0  0  0  0  0  0  0  0  0  0
  -18.8601   18.4859  -23.4060 O   0  0  0  0  0  0  0  0  0  0  0  0
  -19.8479   19.0059  -22.1685 P   0  0  0  0  0  0  0  0  0  0  0  0
  -19.5009   20.6221  -21.7769 O   0  0  0  0  0  0  0  0  0  0  0  0
  -21.2958   18.9919  -22.6619 O   0  0  0  0  0  0  0  0  0  0  0  0
  -19.0347   21.0452  -22.5615 H   0  0  0  0  0  0  0  0  0  0  0  0
  -19.7791   18.0525  -20.7963 O   0  0  0  0  0  0  0  0  0  0  0  0
  -18.4821   18.3897  -19.8028 P   0  0  0  0  0  0  0  0  0  0  0  0
  -17.2093   18.9590  -20.7796 O   0  0  0  0  0  0  0  0  0  0  0  0
  -18.7717   19.4626  -18.7915 O   0  0  0  0  0  0  0  0  0  0  0  0
  -17.2443   18.5637  -21.6850 H   0  0  0  0  0  0  0  0  0  0  0  0
  -17.9024   16.9697  -19.0545 O   0  0  0  0  0  0  0  0  0  0  0  0
  -18.8703   16.5502  -17.7387 P   0  0  0  0  0  0  0  0  0  0  0  0
  -18.5311   17.6107  -16.4544 O   0  0  0  0  0  0  0  0  0  0  0  0
  -20.5221   16.7386  -18.0956 O   0  0  0  0  0  0  0  0  0  0  0  0
  -18.5663   15.1526  -17.2478 O   0  0  0  0  0  0  0  0  0  0  0  0
  -17.5642   17.8214  -16.4614 H   0  0  0  0  0  0  0  0  0  0  0  0
  -20.8749   15.9948  -18.6194 H   0  0  0  0  0  0  0  0  0  0  0  0
 10 11  1  0  0  0
 11 12  2  0  0  0
 12 13  1  0  0  0
 13 14  2  0  0  0
 14 15  1  0  0  0
 15 16  1  0  0  0
 16 17  1  0  0  0
 17 18  2  0  0  0
 18 19  1  0  0  0
 16  1  1  0  0  0
  1  2  1  0  0  0
  2  3  1  0  0  0
  3 22  1  0  0  0
 22 23  1  0  0  0
 23 24  1  0  0  0
 24 25  1  0  0  0
 24 26  2  0  0  0
 24 28  1  0  0  0
 28 29  1  0  0  0
 29 30  1  0  0  0
 29 31  2  0  0  0
 29 33  1  0  0  0
 33 34  1  0  0  0
 34 35  1  0  0  0
 34 36  1  0  0  0
 34 37  2  0  0  0
  3  4  1  0  0  0
  4  5  1  0  0  0
  4  6  1  0  0  0
  6  7  1  0  0  0
 19 11  1  0  0  0
  6  1  1  0  0  0
 19 15  2  0  0  0
 10 20  1  0  0  0
 10 21  1  0  0  0
 25 27  1  0  0  0
 30 32  1  0  0  0
 35 38  1  0  0  0
 36 39  1  0  0  0
  5  8  1  0  0  0
  7  9  1  0  0  0
M  END
> <minimizedAffinity>
-7.06934

> <CNNscore>
0.2701389492

> <CNNaffinity>
5.2188711166

> <CNN_VS>
1.4098203182

> <CNNaffinity_variance>
0.2793119848

$$$$
[H]O[C@]1([H])[C@@]([H])(C([H])([H])OP(=O)(O[H])OP(=O)(O[H])OP(=O)(O[H])O[H])OC([H])(n2c([H])nc3c(N([H])[H])nc([H])nc32)[C@]1([H])O[H]


 39 41  0  0  0  0  0  0  0  0999 V2000
  -20.0577   14.0489  -18.8206 C   0  0  0  0  0  0  0  0  0  0  0  0
  -20.7316   13.2583  -17.9333 O   0  0  0  0  0  0  0  0  0  0  0  0
  -20.5727   13.7510  -16.6629 C   0  0  0  0  0  0  0  0  0  0  0  0
  -20.4624   15.2345  -16.8623 C   0  0  0  0  0  0  0  0  0  0  0  0
  -19.9353   15.9133  -15.7945 O   0  0  0  0  0  0  0  0  0  0  0  0
  -19.5018   15.2344  -18.0627 C   0  0  0  0  0  0  0  0  0  0  0  0
  -18.2454   14.9883  -17.5551 O   0  0  0  0  0  0  0  0  0  0  0  0
  -19.2554   16.5924  -16.0455 H   0  0  0  0  0  0  0  0  0  0  0  0
  -17.9719   14.0537  -17.5440 H   0  0  0  0  0  0  0  0  0  0  0  0
  -15.8066   10.5111  -21.3036 N   0  0  0  0  0  0  0  0  0  0  0  0
  -16.7537   10.7626  -20.2743 C   0  0  0  0  0  0  0  0  0  0  0  0
  -16.9554    9.9121  -19.2529 N   0  0  0  0  0  0  0  0  0  0  0  0
  -17.8546   10.1604  -18.2840 C   0  0  0  0  0  0  0  0  0  0  0  0
  -18.6114   11.2924  -18.2875 N   0  0  0  0  0  0  0  0  0  0  0  0
  -18.4460   12.1743  -19.2886 C   0  0  0  0  0  0  0  0  0  0  0  0
  -19.0225   13.3437  -19.5637 N   0  0  0  0  0  0  0  0  0  0  0  0
  -18.4779   13.8057  -20.6937 C   0  0  0  0  0  0  0  0  0  0  0  0
  -17.5634   12.9431  -21.1379 N   0  0  0  0  0  0  0  0  0  0  0  0
  -17.5311   11.9227  -20.2754 C   0  0  0  0  0  0  0  0  0  0  0  0
  -16.0900    9.9703  -22.1689 H   0  0  0  0  0  0  0  0  0  0  0  0
  -14.8162   10.8336  -21.2645 H   0  0  0  0  0  0  0  0  0  0  0  0
  -21.6395   13.3453  -15.7061 C   0  0  0  0  0  0  0  0  0  0  0  0
  -21.2112   12.4403  -14.7431 O   0  0  0  0  0  0  0  0  0  0  0  0
  -21.9436   10.9539  -14.9214 P   0  0  0  0  0  0  0  0  0  0  0  0
  -23.6329   11.1295  -14.9557 O   0  0  0  0  0  0  0  0  0  0  0  0
  -21.5506   10.3769  -16.2825 O   0  0  0  0  0  0  0  0  0  0  0  0
  -23.8476   12.0801  -15.2048 H   0  0  0  0  0  0  0  0  0  0  0  0
  -21.5036    9.8346  -13.7592 O   0  0  0  0  0  0  0  0  0  0  0  0
  -19.8561    9.7109  -13.5288 P   0  0  0  0  0  0  0  0  0  0  0  0
  -19.0871   10.2685  -14.9415 O   0  0  0  0  0  0  0  0  0  0  0  0
  -19.3502   10.5542  -12.3927 O   0  0  0  0  0  0  0  0  0  0  0  0
  -19.6417   10.1046  -15.7433 H   0  0  0  0  0  0  0  0  0  0  0  0
  -19.3867    8.0799  -13.3498 O   0  0  0  0  0  0  0  0  0  0  0  0
  -20.0445    7.1308  -14.5788 P   0  0  0  0  0  0  0  0  0  0  0  0
  -19.7933    7.9157  -16.0653 O   0  0  0  0  0  0  0  0  0  0  0  0
  -19.2608    5.6258  -14.6903 O   0  0  0  0  0  0  0  0  0  0  0  0
  -21.5386    6.9656  -14.4148 O   0  0  0  0  0  0  0  0  0  0  0  0
  -19.8837    8.8918  -15.9301 H   0  0  0  0  0  0  0  0  0  0  0  0
  -19.5687    4.9969  -14.0108 H   0  0  0  0  0  0  0  0  0  0  0  0
 10 11  1  0  0  0
 11 12  2  0  0  0
 12 13  1  0  0  0
 13 14  2  0  0  0
 14 15  1  0  0  0
 15 16  1  0  0  0
 16 17  1  0  0  0
 17 18  2  0  0  0
 18 19  1  0  0  0
 16  1  1  0  0  0
  1  2  1  0  0  0
  2  3  1  0  0  0
  3 22  1  0  0  0
 22 23  1  0  0  0
 23 24  1  0  0  0
 24 25  1  0  0  0
 24 26  2  0  0  0
 24 28  1  0  0  0
 28 29  1  0  0  0
 29 30  1  0  0  0
 29 31  2  0  0  0
 29 33  1  0  0  0
 33 34  1  0  0  0
 34 35  1  0  0  0
 34 36  1  0  0  0
 34 37  2  0  0  0
  3  4  1  0  0  0
  4  5  1  0  0  0
  4  6  1  0  0  0
  6  7  1  0  0  0
 19 11  1  0  0  0
  6  1  1  0  0  0
 19 15  2  0  0  0
 10 20  1  0  0  0
 10 21  1  0  0  0
 25 27  1  0  0  0
 30 32  1  0  0  0
 35 38  1  0  0  0
 36 39  1  0  0  0
  5  8  1  0  0  0
  7  9  1  0  0  0
M  END
> <minimizedAffinity>
-6.54266

> <CNNscore>
0.2295937836

> <CNNaffinity>
4.9512553215

> <CNN_VS>
1.1367774010

> <CNNaffinity_variance>
0.2333145887

$$$$
[H]O[C@]1([H])[C@@]([H])(C([H])([H])OP(=O)(O[H])OP(=O)(O[H])OP(=O)(O[H])O[H])OC([H])(n2c([H])nc3c(N([H])[H])nc([H])nc32)[C@]1([H])O[H]


 39 41  0  0  0  0  0  0  0  0999 V2000
  -20.0794   14.5826  -19.5291 C   0  0  0  0  0  0  0  0  0  0  0  0
  -20.4263   13.5433  -18.7129 O   0  0  0  0  0  0  0  0  0  0  0  0
  -20.0979   13.8457  -17.4157 C   0  0  0  0  0  0  0  0  0  0  0  0
  -20.2699   15.3348  -17.3376 C   0  0  0  0  0  0  0  0  0  0  0  0
  -19.6562   15.9216  -16.2617 O   0  0  0  0  0  0  0  0  0  0  0  0
  -19.5814   15.7153  -18.6586 C   0  0  0  0  0  0  0  0  0  0  0  0
  -18.2260   15.6396  -18.4264 O   0  0  0  0  0  0  0  0  0  0  0  0
  -19.1585   16.7514  -16.4857 H   0  0  0  0  0  0  0  0  0  0  0  0
  -17.8091   14.7866  -18.6437 H   0  0  0  0  0  0  0  0  0  0  0  0
  -15.9122   12.3773  -23.3402 N   0  0  0  0  0  0  0  0  0  0  0  0
  -16.6711   12.2642  -22.1439 C   0  0  0  0  0  0  0  0  0  0  0  0
  -16.5470   11.2217  -21.3041 N   0  0  0  0  0  0  0  0  0  0  0  0
  -17.2704   11.1250  -20.1744 C   0  0  0  0  0  0  0  0  0  0  0  0
  -18.1711   12.0832  -19.8209 N   0  0  0  0  0  0  0  0  0  0  0  0
  -18.3310   13.1458  -20.6288 C   0  0  0  0  0  0  0  0  0  0  0  0
  -19.1141   14.2216  -20.5580 N   0  0  0  0  0  0  0  0  0  0  0  0
  -18.8694   14.9699  -21.6384 C   0  0  0  0  0  0  0  0  0  0  0  0
  -17.9408   14.3812  -22.3927 N   0  0  0  0  0  0  0  0  0  0  0  0
  -17.5953   13.2454  -21.7789 C   0  0  0  0  0  0  0  0  0  0  0  0
  -16.2740   11.9587  -24.2431 H   0  0  0  0  0  0  0  0  0  0  0  0
  -14.9906   12.8614  -23.3925 H   0  0  0  0  0  0  0  0  0  0  0  0
  -20.8724   13.0913  -16.3915 C   0  0  0  0  0  0  0  0  0  0  0  0
  -20.0870   12.2765  -15.5859 O   0  0  0  0  0  0  0  0  0  0  0  0
  -20.4483   10.6634  -15.7978 P   0  0  0  0  0  0  0  0  0  0  0  0
  -22.1060   10.4671  -16.1127 O   0  0  0  0  0  0  0  0  0  0  0  0
  -19.7186   10.1600  -17.0444 O   0  0  0  0  0  0  0  0  0  0  0  0
  -22.4715   11.3434  -16.4447 H   0  0  0  0  0  0  0  0  0  0  0  0
  -19.9846    9.6885  -14.5205 O   0  0  0  0  0  0  0  0  0  0  0  0
  -19.7919    8.0830  -14.9303 P   0  0  0  0  0  0  0  0  0  0  0  0
  -18.3840    7.9506  -15.8782 O   0  0  0  0  0  0  0  0  0  0  0  0
  -19.6049    7.1846  -13.7405 O   0  0  0  0  0  0  0  0  0  0  0  0
  -18.2205    8.7747  -16.3991 H   0  0  0  0  0  0  0  0  0  0  0  0
  -21.0765    7.5478  -15.9181 O   0  0  0  0  0  0  0  0  0  0  0  0
  -22.4944    7.3877  -15.0192 P   0  0  0  0  0  0  0  0  0  0  0  0
  -22.3921    8.4000  -13.6577 O   0  0  0  0  0  0  0  0  0  0  0  0
  -23.8529    7.9036  -15.9022 O   0  0  0  0  0  0  0  0  0  0  0  0
  -22.6714    5.9762  -14.5063 O   0  0  0  0  0  0  0  0  0  0  0  0
  -21.4576    8.4039  -13.3323 H   0  0  0  0  0  0  0  0  0  0  0  0
  -24.1566    7.2313  -16.5407 H   0  0  0  0  0  0  0  0  0  0  0  0
 10 11  1  0  0  0
 11 12  2  0  0  0
 12 13  1  0  0  0
 13 14  2  0  0  0
 14 15  1  0  0  0
 15 16  1  0  0  0
 16 17  1  0  0  0
 17 18  2  0  0  0
 18 19  1  0  0  0
 16  1  1  0  0  0
  1  2  1  0  0  0
  2  3  1  0  0  0
  3 22  1  0  0  0
 22 23  1  0  0  0
 23 24  1  0  0  0
 24 25  1  0  0  0
 24 26  2  0  0  0
 24 28  1  0  0  0
 28 29  1  0  0  0
 29 30  1  0  0  0
 29 31  2  0  0  0
 29 33  1  0  0  0
 33 34  1  0  0  0
 34 35  1  0  0  0
 34 36  1  0  0  0
 34 37  2  0  0  0
  3  4  1  0  0  0
  4  5  1  0  0  0
  4  6  1  0  0  0
  6  7  1  0  0  0
 19 11  1  0  0  0
  6  1  1  0  0  0
 19 15  2  0  0  0
 10 20  1  0  0  0
 10 21  1  0  0  0
 25 27  1  0  0  0
 30 32  1  0  0  0
 35 38  1  0  0  0
 36 39  1  0  0  0
  5  8  1  0  0  0
  7  9  1  0  0  0
M  END
> <minimizedAffinity>
-6.83332

> <CNNscore>
0.2078672051

> <CNNaffinity>
4.7977080345

> <CNN_VS>
0.9972861409

> <CNNaffinity_variance>
0.1523388326

$$$$
[H]O[C@]1([H])[C@@]([H])(C([H])([H])OP(=O)(O[H])OP(=O)(O[H])OP(=O)(O[H])O[H])OC([H])(n2c([H])nc3c(N([H])[H])nc([H])nc32)[C@]1([H])O[H]


 39 41  0  0  0  0  0  0  0  0999 V2000
  -17.0062   13.9707  -23.1850 C   0  0  0  0  0  0  0  0  0  0  0  0
  -18.2348   14.5354  -23.3806 O   0  0  0  0  0  0  0  0  0  0  0  0
  -18.1680   15.8831  -23.1328 C   0  0  0  0  0  0  0  0  0  0  0  0
  -16.7724   16.2562  -23.5401 C   0  0  0  0  0  0  0  0  0  0  0  0
  -16.3413   17.4618  -23.0509 O   0  0  0  0  0  0  0  0  0  0  0  0
  -16.0218   15.0814  -22.8919 C   0  0  0  0  0  0  0  0  0  0  0  0
  -15.9404   15.3669  -21.5470 O   0  0  0  0  0  0  0  0  0  0  0  0
  -15.4177   17.4408  -22.6861 H   0  0  0  0  0  0  0  0  0  0  0  0
  -16.6554   15.0019  -20.9956 H   0  0  0  0  0  0  0  0  0  0  0  0
  -17.4422   10.2319  -18.4327 N   0  0  0  0  0  0  0  0  0  0  0  0
  -17.7589   11.4654  -19.0636 C   0  0  0  0  0  0  0  0  0  0  0  0
  -18.5235   12.4029  -18.4771 N   0  0  0  0  0  0  0  0  0  0  0  0
  -18.8168   13.5669  -19.0837 C   0  0  0  0  0  0  0  0  0  0  0  0
  -18.3520   13.8577  -20.3302 N   0  0  0  0  0  0  0  0  0  0  0  0
  -17.5828   12.9514  -20.9581 C   0  0  0  0  0  0  0  0  0  0  0  0
  -16.9919   12.9439  -22.1524 N   0  0  0  0  0  0  0  0  0  0  0  0
  -16.3421   11.7819  -22.2732 C   0  0  0  0  0  0  0  0  0  0  0  0
  -16.5141   11.0532  -21.1699 N   0  0  0  0  0  0  0  0  0  0  0  0
  -17.2835   11.7662  -20.3418 C   0  0  0  0  0  0  0  0  0  0  0  0
  -18.0793    9.3940  -18.5492 H   0  0  0  0  0  0  0  0  0  0  0  0
  -16.5957   10.0895  -17.8416 H   0  0  0  0  0  0  0  0  0  0  0  0
  -19.2299   16.6863  -23.8002 C   0  0  0  0  0  0  0  0  0  0  0  0
  -19.0202   18.0576  -23.7294 O   0  0  0  0  0  0  0  0  0  0  0  0
  -20.2896   18.8403  -22.9854 P   0  0  0  0  0  0  0  0  0  0  0  0
  -21.0378   19.9127  -24.0698 O   0  0  0  0  0  0  0  0  0  0  0  0
  -21.3518   17.8038  -22.6152 O   0  0  0  0  0  0  0  0  0  0  0  0
  -20.8088   19.6271  -25.0067 H   0  0  0  0  0  0  0  0  0  0  0  0
  -19.8651   19.6431  -21.5810 O   0  0  0  0  0  0  0  0  0  0  0  0
  -19.0968   18.6793  -20.4569 P   0  0  0  0  0  0  0  0  0  0  0  0
  -19.8825   17.1692  -20.4386 O   0  0  0  0  0  0  0  0  0  0  0  0
  -17.6539   18.4184  -20.7854 O   0  0  0  0  0  0  0  0  0  0  0  0
  -20.8402   17.2576  -20.6673 H   0  0  0  0  0  0  0  0  0  0  0  0
  -19.2708   19.3197  -18.8847 O   0  0  0  0  0  0  0  0  0  0  0  0
  -19.5516   18.0892  -17.7663 P   0  0  0  0  0  0  0  0  0  0  0  0
  -19.3072   18.7094  -16.2028 O   0  0  0  0  0  0  0  0  0  0  0  0
  -21.1635   17.5508  -17.8245 O   0  0  0  0  0  0  0  0  0  0  0  0
  -18.5794   16.9445  -17.9430 O   0  0  0  0  0  0  0  0  0  0  0  0
  -18.5570   19.3542  -16.2288 H   0  0  0  0  0  0  0  0  0  0  0  0
  -21.3232   16.9401  -18.5685 H   0  0  0  0  0  0  0  0  0  0  0  0
 10 11  1  0  0  0
 11 12  2  0  0  0
 12 13  1  0  0  0
 13 14  2  0  0  0
 14 15  1  0  0  0
 15 16  1  0  0  0
 16 17  1  0  0  0
 17 18  2  0  0  0
 18 19  1  0  0  0
 16  1  1  0  0  0
  1  2  1  0  0  0
  2  3  1  0  0  0
  3 22  1  0  0  0
 22 23  1  0  0  0
 23 24  1  0  0  0
 24 25  1  0  0  0
 24 26  2  0  0  0
 24 28  1  0  0  0
 28 29  1  0  0  0
 29 30  1  0  0  0
 29 31  2  0  0  0
 29 33  1  0  0  0
 33 34  1  0  0  0
 34 35  1  0  0  0
 34 36  1  0  0  0
 34 37  2  0  0  0
  3  4  1  0  0  0
  4  5  1  0  0  0
  4  6  1  0  0  0
  6  7  1  0  0  0
 19 11  1  0  0  0
  6  1  1  0  0  0
 19 15  2  0  0  0
 10 20  1  0  0  0
 10 21  1  0  0  0
 25 27  1  0  0  0
 30 32  1  0  0  0
 35 38  1  0  0  0
 36 39  1  0  0  0
  5  8  1  0  0  0
  7  9  1  0  0  0
M  END
> <minimizedAffinity>
-6.16872

> <CNNscore>
0.2052221298

> <CNNaffinity>
5.0451521873

> <CNN_VS>
1.0353769064

> <CNNaffinity_variance>
0.3258417547

$$$$
[H]O[C@]1([H])[C@@]([H])(C([H])([H])OP(=O)(O[H])OP(=O)(O[H])OP(=O)(O[H])O[H])OC([H])(n2c([H])nc3c(N([H])[H])nc([H])nc32)[C@]1([H])O[H]


 39 41  0  0  0  0  0  0  0  0999 V2000
  -19.5262   14.6509  -20.4763 C   0  0  0  0  0  0  0  0  0  0  0  0
  -20.5851   15.3644  -19.9903 O   0  0  0  0  0  0  0  0  0  0  0  0
  -20.1787   16.6359  -19.6742 C   0  0  0  0  0  0  0  0  0  0  0  0
  -19.0953   16.9270  -20.6713 C   0  0  0  0  0  0  0  0  0  0  0  0
  -18.2846   17.9806  -20.3377 O   0  0  0  0  0  0  0  0  0  0  0  0
  -18.3441   15.5878  -20.5921 C   0  0  0  0  0  0  0  0  0  0  0  0
  -17.5950   15.6301  -19.4372 O   0  0  0  0  0  0  0  0  0  0  0  0
  -17.3170   17.8026  -20.4741 H   0  0  0  0  0  0  0  0  0  0  0  0
  -18.0197   15.2523  -18.6464 H   0  0  0  0  0  0  0  0  0  0  0  0
  -17.6675    9.5163  -17.8428 N   0  0  0  0  0  0  0  0  0  0  0  0
  -17.6206   10.4313  -18.9293 C   0  0  0  0  0  0  0  0  0  0  0  0
  -16.8339   10.2404  -20.0027 N   0  0  0  0  0  0  0  0  0  0  0  0
  -16.7976   11.1132  -21.0254 C   0  0  0  0  0  0  0  0  0  0  0  0
  -17.5599   12.2416  -21.0265 N   0  0  0  0  0  0  0  0  0  0  0  0
  -18.3634   12.4767  -19.9747 C   0  0  0  0  0  0  0  0  0  0  0  0
  -19.2079   13.4672  -19.6897 N   0  0  0  0  0  0  0  0  0  0  0  0
  -19.7559   13.1999  -18.5001 C   0  0  0  0  0  0  0  0  0  0  0  0
  -19.2689   12.0520  -18.0280 N   0  0  0  0  0  0  0  0  0  0  0  0
  -18.4013   11.5891  -18.9331 C   0  0  0  0  0  0  0  0  0  0  0  0
  -16.9980    9.6197  -17.0289 H   0  0  0  0  0  0  0  0  0  0  0  0
  -18.3396    8.7214  -17.7896 H   0  0  0  0  0  0  0  0  0  0  0  0
  -21.2727   17.6463  -19.6550 C   0  0  0  0  0  0  0  0  0  0  0  0
  -20.8729   18.8936  -19.1925 O   0  0  0  0  0  0  0  0  0  0  0  0
  -20.5854   18.8821  -17.5509 P   0  0  0  0  0  0  0  0  0  0  0  0
  -18.9571   18.5108  -17.2403 O   0  0  0  0  0  0  0  0  0  0  0  0
  -20.8083   20.2943  -17.0070 O   0  0  0  0  0  0  0  0  0  0  0  0
  -18.4235   18.7066  -18.0703 H   0  0  0  0  0  0  0  0  0  0  0  0
  -21.5854   17.8531  -16.6919 O   0  0  0  0  0  0  0  0  0  0  0  0
  -20.8055   16.9998  -15.4893 P   0  0  0  0  0  0  0  0  0  0  0  0
  -19.6735   15.9669  -16.2308 O   0  0  0  0  0  0  0  0  0  0  0  0
  -20.0411   17.8771  -14.5387 O   0  0  0  0  0  0  0  0  0  0  0  0
  -19.9742   15.6879  -17.1302 H   0  0  0  0  0  0  0  0  0  0  0  0
  -21.8959   15.9838  -14.6578 O   0  0  0  0  0  0  0  0  0  0  0  0
  -22.3258   14.6613  -15.6119 P   0  0  0  0  0  0  0  0  0  0  0  0
  -23.9033   14.1825  -15.1982 O   0  0  0  0  0  0  0  0  0  0  0  0
  -22.3634   15.0700  -17.2620 O   0  0  0  0  0  0  0  0  0  0  0  0
  -21.4240   13.4746  -15.3564 O   0  0  0  0  0  0  0  0  0  0  0  0
  -24.0277   14.3012  -14.2237 H   0  0  0  0  0  0  0  0  0  0  0  0
  -21.4720   15.0930  -17.6581 H   0  0  0  0  0  0  0  0  0  0  0  0
 10 11  1  0  0  0
 11 12  2  0  0  0
 12 13  1  0  0  0
 13 14  2  0  0  0
 14 15  1  0  0  0
 15 16  1  0  0  0
 16 17  1  0  0  0
 17 18  2  0  0  0
 18 19  1  0  0  0
 16  1  1  0  0  0
  1  2  1  0  0  0
  2  3  1  0  0  0
  3 22  1  0  0  0
 22 23  1  0  0  0
 23 24  1  0  0  0
 24 25  1  0  0  0
 24 26  2  0  0  0
 24 28  1  0  0  0
 28 29  1  0  0  0
 29 30  1  0  0  0
 29 31  2  0  0  0
 29 33  1  0  0  0
 33 34  1  0  0  0
 34 35  1  0  0  0
 34 36  1  0  0  0
 34 37  2  0  0  0
  3  4  1  0  0  0
  4  5  1  0  0  0
  4  6  1  0  0  0
  6  7  1  0  0  0
 19 11  1  0  0  0
  6  1  1  0  0  0
 19 15  2  0  0  0
 10 20  1  0  0  0
 10 21  1  0  0  0
 25 27  1  0  0  0
 30 32  1  0  0  0
 35 38  1  0  0  0
 36 39  1  0  0  0
  5  8  1  0  0  0
  7  9  1  0  0  0
M  END
> <minimizedAffinity>
-6.18486

> <CNNscore>
0.1610640138

> <CNNaffinity>
4.8192753792

> <CNN_VS>
0.7762118578

> <CNNaffinity_variance>
0.1782368124

$$$$
[H]O[C@]1([H])[C@@]([H])(C([H])([H])OP(=O)(O[H])OP(=O)(O[H])OP(=O)(O[H])O[H])OC([H])(n2c([H])nc3c(N([H])[H])nc([H])nc32)[C@]1([H])O[H]


 39 41  0  0  0  0  0  0  0  0999 V2000
  -18.8096   15.6406  -19.4813 C   0  0  0  0  0  0  0  0  0  0  0  0
  -18.2114   15.8620  -20.6894 O   0  0  0  0  0  0  0  0  0  0  0  0
  -19.1620   16.1932  -21.6214 C   0  0  0  0  0  0  0  0  0  0  0  0
  -20.2081   16.9199  -20.8274 C   0  0  0  0  0  0  0  0  0  0  0  0
  -21.4220   17.0301  -21.4543 O   0  0  0  0  0  0  0  0  0  0  0  0
  -20.2793   15.9720  -19.6190 C   0  0  0  0  0  0  0  0  0  0  0  0
  -21.0251   14.8859  -20.0203 O   0  0  0  0  0  0  0  0  0  0  0  0
  -22.1976   16.8303  -20.8669 H   0  0  0  0  0  0  0  0  0  0  0  0
  -20.5168   14.1341  -20.3736 H   0  0  0  0  0  0  0  0  0  0  0  0
  -17.6322    9.8555  -18.1027 N   0  0  0  0  0  0  0  0  0  0  0  0
  -17.6266   10.9253  -19.0382 C   0  0  0  0  0  0  0  0  0  0  0  0
  -17.1739   10.7841  -20.2963 N   0  0  0  0  0  0  0  0  0  0  0  0
  -17.1734   11.8037  -21.1734 C   0  0  0  0  0  0  0  0  0  0  0  0
  -17.6337   13.0386  -20.8307 N   0  0  0  0  0  0  0  0  0  0  0  0
  -18.0970   13.2297  -19.5833 C   0  0  0  0  0  0  0  0  0  0  0  0
  -18.6010   14.2957  -18.9628 N   0  0  0  0  0  0  0  0  0  0  0  0
  -18.9071   13.9281  -17.7145 C   0  0  0  0  0  0  0  0  0  0  0  0
  -18.6031   12.6421  -17.5367 N   0  0  0  0  0  0  0  0  0  0  0  0
  -18.0981   12.1927  -18.6895 C   0  0  0  0  0  0  0  0  0  0  0  0
  -16.7881    9.6800  -17.4878 H   0  0  0  0  0  0  0  0  0  0  0  0
  -18.4389    9.2079  -17.9752 H   0  0  0  0  0  0  0  0  0  0  0  0
  -18.6422   16.9617  -22.7864 C   0  0  0  0  0  0  0  0  0  0  0  0
  -17.3047   17.3180  -22.6685 O   0  0  0  0  0  0  0  0  0  0  0  0
  -16.2991   16.1881  -23.3682 P   0  0  0  0  0  0  0  0  0  0  0  0
  -15.1270   16.9565  -24.3282 O   0  0  0  0  0  0  0  0  0  0  0  0
  -15.5308   15.4664  -22.2596 O   0  0  0  0  0  0  0  0  0  0  0  0
  -15.0471   17.9126  -24.0261 H   0  0  0  0  0  0  0  0  0  0  0  0
  -17.1010   15.0225  -24.2598 O   0  0  0  0  0  0  0  0  0  0  0  0
  -16.0917   13.8962  -24.9637 P   0  0  0  0  0  0  0  0  0  0  0  0
  -15.1131   13.2330  -23.7387 O   0  0  0  0  0  0  0  0  0  0  0  0
  -16.8300   12.7534  -25.6014 O   0  0  0  0  0  0  0  0  0  0  0  0
  -14.9479   13.8861  -23.0152 H   0  0  0  0  0  0  0  0  0  0  0  0
  -15.0242   14.6404  -26.0679 O   0  0  0  0  0  0  0  0  0  0  0  0
  -15.8747   15.3156  -27.3581 P   0  0  0  0  0  0  0  0  0  0  0  0
  -16.9986   14.1737  -27.9254 O   0  0  0  0  0  0  0  0  0  0  0  0
  -16.7731   16.6739  -26.8689 O   0  0  0  0  0  0  0  0  0  0  0  0
  -14.9595   15.6455  -28.5158 O   0  0  0  0  0  0  0  0  0  0  0  0
  -16.5970   13.2715  -27.8615 H   0  0  0  0  0  0  0  0  0  0  0  0
  -16.2202   17.4736  -26.7871 H   0  0  0  0  0  0  0  0  0  0  0  0
 10 11  1  0  0  0
 11 12  2  0  0  0
 12 13  1  0  0  0
 13 14  2  0  0  0
 14 15  1  0  0  0
 15 16  1  0  0  0
 16 17  1  0  0  0
 17 18  2  0  0  0
 18 19  1  0  0  0
 16  1  1  0  0  0
  1  2  1  0  0  0
  2  3  1  0  0  0
  3 22  1  0  0  0
 22 23  1  0  0  0
 23 24  1  0  0  0
 24 25  1  0  0  0
 24 26  2  0  0  0
 24 28  1  0  0  0
 28 29  1  0  0  0
 29 30  1  0  0  0
 29 31  2  0  0  0
 29 33  1  0  0  0
 33 34  1  0  0  0
 34 35  1  0  0  0
 34 36  1  0  0  0
 34 37  2  0  0  0
  3  4  1  0  0  0
  4  5  1  0  0  0
  4  6  1  0  0  0
  6  7  1  0  0  0
 19 11  1  0  0  0
  6  1  1  0  0  0
 19 15  2  0  0  0
 10 20  1  0  0  0
 10 21  1  0  0  0
 25 27  1  0  0  0
 30 32  1  0  0  0
 35 38  1  0  0  0
 36 39  1  0  0  0
  5  8  1  0  0  0
  7  9  1  0  0  0
M  END
> <minimizedAffinity>
-7.16001

> <CNNscore>
0.1169526130

> <CNNaffinity>
4.6084780693

> <CNN_VS>
0.5389735699

> <CNNaffinity_variance>
0.6096068621

$$$$
[H]O[C@]1([H])[C@@]([H])(C([H])([H])OP(=O)(O[H])OP(=O)(O[H])OP(=O)(O[H])O[H])OC([H])(n2c([H])nc3c(N([H])[H])nc([H])nc32)[C@]1([H])O[H]


 39 41  0  0  0  0  0  0  0  0999 V2000
  -17.6335   15.4083  -23.2094 C   0  0  0  0  0  0  0  0  0  0  0  0
  -18.8328   15.4451  -22.5562 O   0  0  0  0  0  0  0  0  0  0  0  0
  -18.8340   16.4758  -21.6510 C   0  0  0  0  0  0  0  0  0  0  0  0
  -17.9623   17.5177  -22.2893 C   0  0  0  0  0  0  0  0  0  0  0  0
  -17.5106   18.4847  -21.4293 O   0  0  0  0  0  0  0  0  0  0  0  0
  -16.8205   16.6035  -22.7629 C   0  0  0  0  0  0  0  0  0  0  0  0
  -16.0551   16.3297  -21.6511 O   0  0  0  0  0  0  0  0  0  0  0  0
  -16.5469   18.6998  -21.5363 H   0  0  0  0  0  0  0  0  0  0  0  0
  -16.2886   15.5159  -21.1698 H   0  0  0  0  0  0  0  0  0  0  0  0
  -15.1105   10.0860  -21.7737 N   0  0  0  0  0  0  0  0  0  0  0  0
  -16.0556   11.1135  -21.5079 C   0  0  0  0  0  0  0  0  0  0  0  0
  -16.9023   11.0659  -20.4646 N   0  0  0  0  0  0  0  0  0  0  0  0
  -17.7928   12.0443  -20.2226 C   0  0  0  0  0  0  0  0  0  0  0  0
  -17.8835   13.1399  -21.0263 N   0  0  0  0  0  0  0  0  0  0  0  0
  -17.0577   13.2333  -22.0830 C   0  0  0  0  0  0  0  0  0  0  0  0
  -16.9077   14.1584  -23.0301 N   0  0  0  0  0  0  0  0  0  0  0  0
  -15.9312   13.7464  -23.8450 C   0  0  0  0  0  0  0  0  0  0  0  0
  -15.4609   12.5714  -23.4254 N   0  0  0  0  0  0  0  0  0  0  0  0
  -16.1508   12.2381  -22.3304 C   0  0  0  0  0  0  0  0  0  0  0  0
  -15.3773    9.2593  -22.3794 H   0  0  0  0  0  0  0  0  0  0  0  0
  -14.1375   10.0895  -21.4001 H   0  0  0  0  0  0  0  0  0  0  0  0
  -20.1895   16.9659  -21.2760 C   0  0  0  0  0  0  0  0  0  0  0  0
  -20.1713   18.1043  -20.4802 O   0  0  0  0  0  0  0  0  0  0  0  0
  -21.0357   17.8887  -19.0716 P   0  0  0  0  0  0  0  0  0  0  0  0
  -20.5828   19.0510  -17.9185 O   0  0  0  0  0  0  0  0  0  0  0  0
  -22.5160   18.1386  -19.3650 O   0  0  0  0  0  0  0  0  0  0  0  0
  -20.1582   19.8258  -18.3994 H   0  0  0  0  0  0  0  0  0  0  0  0
  -20.9079   16.3526  -18.4230 O   0  0  0  0  0  0  0  0  0  0  0  0
  -19.5629   16.1345  -17.4606 P   0  0  0  0  0  0  0  0  0  0  0  0
  -18.3050   17.0897  -18.0957 O   0  0  0  0  0  0  0  0  0  0  0  0
  -19.7719   16.5743  -16.0391 O   0  0  0  0  0  0  0  0  0  0  0  0
  -18.3889   17.1926  -19.0753 H   0  0  0  0  0  0  0  0  0  0  0  0
  -19.0136   14.5206  -17.5379 O   0  0  0  0  0  0  0  0  0  0  0  0
  -20.2136   13.4557  -17.0183 P   0  0  0  0  0  0  0  0  0  0  0  0
  -19.8071   12.8938  -15.4665 O   0  0  0  0  0  0  0  0  0  0  0  0
  -21.7169   14.2364  -16.8695 O   0  0  0  0  0  0  0  0  0  0  0  0
  -20.3069   12.2422  -17.9157 O   0  0  0  0  0  0  0  0  0  0  0  0
  -18.8251   12.7830  -15.4143 H   0  0  0  0  0  0  0  0  0  0  0  0
  -22.1614   14.3509  -17.7305 H   0  0  0  0  0  0  0  0  0  0  0  0
 10 11  1  0  0  0
 11 12  2  0  0  0
 12 13  1  0  0  0
 13 14  2  0  0  0
 14 15  1  0  0  0
 15 16  1  0  0  0
 16 17  1  0  0  0
 17 18  2  0  0  0
 18 19  1  0  0  0
 16  1  1  0  0  0
  1  2  1  0  0  0
  2  3  1  0  0  0
  3 22  1  0  0  0
 22 23  1  0  0  0
 23 24  1  0  0  0
 24 25  1  0  0  0
 24 26  2  0  0  0
 24 28  1  0  0  0
 28 29  1  0  0  0
 29 30  1  0  0  0
 29 31  2  0  0  0
 29 33  1  0  0  0
 33 34  1  0  0  0
 34 35  1  0  0  0
 34 36  1  0  0  0
 34 37  2  0  0  0
  3  4  1  0  0  0
  4  5  1  0  0  0
  4  6  1  0  0  0
  6  7  1  0  0  0
 19 11  1  0  0  0
  6  1  1  0  0  0
 19 15  2  0  0  0
 10 20  1  0  0  0
 10 21  1  0  0  0
 25 27  1  0  0  0
 30 32  1  0  0  0
 35 38  1  0  0  0
 36 39  1  0  0  0
  5  8  1  0  0  0
  7  9  1  0  0  0
M  END
> <minimizedAffinity>
-6.26607

> <CNNscore>
0.1148324609

> <CNNaffinity>
4.9154753685

> <CNN_VS>
0.5644561052

> <CNNaffinity_variance>
0.5149306655

$$$$
[H]O[C@]1([H])[C@@]([H])(C([H])([H])OP(=O)(O[H])OP(=O)(O[H])OP(=O)(O[H])O[H])OC([H])(n2c([H])nc3c(N([H])[H])nc([H])nc32)[C@]1([H])O[H]


 39 41  0  0  0  0  0  0  0  0999 V2000
  -19.9962   13.7658  -18.3703 C   0  0  0  0  0  0  0  0  0  0  0  0
  -20.9625   13.3203  -17.5134 O   0  0  0  0  0  0  0  0  0  0  0  0
  -20.8755   14.0007  -16.3254 C   0  0  0  0  0  0  0  0  0  0  0  0
  -20.3824   15.3612  -16.7241 C   0  0  0  0  0  0  0  0  0  0  0  0
  -19.8678   16.1033  -15.6931 O   0  0  0  0  0  0  0  0  0  0  0  0
  -19.2865   14.9283  -17.7118 C   0  0  0  0  0  0  0  0  0  0  0  0
  -18.2141   14.5224  -16.9490 O   0  0  0  0  0  0  0  0  0  0  0  0
  -19.0150   16.5619  -15.9142 H   0  0  0  0  0  0  0  0  0  0  0  0
  -18.1791   13.5706  -16.7456 H   0  0  0  0  0  0  0  0  0  0  0  0
  -16.0071    9.9236  -20.8358 N   0  0  0  0  0  0  0  0  0  0  0  0
  -16.7567   11.1295  -20.8972 C   0  0  0  0  0  0  0  0  0  0  0  0
  -16.6820   11.9758  -21.9391 N   0  0  0  0  0  0  0  0  0  0  0  0
  -17.3962   13.1144  -21.9866 C   0  0  0  0  0  0  0  0  0  0  0  0
  -18.2366   13.4711  -20.9762 N   0  0  0  0  0  0  0  0  0  0  0  0
  -18.3457   12.6569  -19.9120 C   0  0  0  0  0  0  0  0  0  0  0  0
  -19.0654   12.7284  -18.7929 N   0  0  0  0  0  0  0  0  0  0  0  0
  -18.7916   11.6396  -18.0673 C   0  0  0  0  0  0  0  0  0  0  0  0
  -17.9071   10.8791  -18.7132 N   0  0  0  0  0  0  0  0  0  0  0  0
  -17.6192   11.4976  -19.8624 C   0  0  0  0  0  0  0  0  0  0  0  0
  -15.0346    9.9207  -20.4165 H   0  0  0  0  0  0  0  0  0  0  0  0
  -16.3608    9.0086  -21.1877 H   0  0  0  0  0  0  0  0  0  0  0  0
  -22.1358   14.0208  -15.5323 C   0  0  0  0  0  0  0  0  0  0  0  0
  -22.0136   13.4428  -14.2750 O   0  0  0  0  0  0  0  0  0  0  0  0
  -22.7844   11.9674  -14.1945 P   0  0  0  0  0  0  0  0  0  0  0  0
  -24.4162   12.1298  -14.6378 O   0  0  0  0  0  0  0  0  0  0  0  0
  -22.1562   11.0321  -15.2291 O   0  0  0  0  0  0  0  0  0  0  0  0
  -24.5157   12.9734  -15.1766 H   0  0  0  0  0  0  0  0  0  0  0  0
  -22.6634   11.2167  -12.7049 O   0  0  0  0  0  0  0  0  0  0  0  0
  -21.1333   10.6524  -12.3542 P   0  0  0  0  0  0  0  0  0  0  0  0
  -20.0219   11.5367  -13.2928 O   0  0  0  0  0  0  0  0  0  0  0  0
  -20.7439   10.8464  -10.9160 O   0  0  0  0  0  0  0  0  0  0  0  0
  -20.4229   11.8282  -14.1480 H   0  0  0  0  0  0  0  0  0  0  0  0
  -20.9606    9.0229  -12.8310 O   0  0  0  0  0  0  0  0  0  0  0  0
  -19.3344    8.6339  -13.0501 P   0  0  0  0  0  0  0  0  0  0  0  0
  -18.4226    9.4088  -11.8429 O   0  0  0  0  0  0  0  0  0  0  0  0
  -19.0626    6.9658  -12.8629 O   0  0  0  0  0  0  0  0  0  0  0  0
  -18.8175    9.1326  -14.3808 O   0  0  0  0  0  0  0  0  0  0  0  0
  -18.8213   10.2963  -11.6621 H   0  0  0  0  0  0  0  0  0  0  0  0
  -19.3131    6.4583  -13.6577 H   0  0  0  0  0  0  0  0  0  0  0  0
 10 11  1  0  0  0
 11 12  2  0  0  0
 12 13  1  0  0  0
 13 14  2  0  0  0
 14 15  1  0  0  0
 15 16  1  0  0  0
 16 17  1  0  0  0
 17 18  2  0  0  0
 18 19  1  0  0  0
 16  1  1  0  0  0
  1  2  1  0  0  0
  2  3  1  0  0  0
  3 22  1  0  0  0
 22 23  1  0  0  0
 23 24  1  0  0  0
 24 25  1  0  0  0
 24 26  2  0  0  0
 24 28  1  0  0  0
 28 29  1  0  0  0
 29 30  1  0  0  0
 29 31  2  0  0  0
 29 33  1  0  0  0
 33 34  1  0  0  0
 34 35  1  0  0  0
 34 36  1  0  0  0
 34 37  2  0  0  0
  3  4  1  0  0  0
  4  5  1  0  0  0
  4  6  1  0  0  0
  6  7  1  0  0  0
 19 11  1  0  0  0
  6  1  1  0  0  0
 19 15  2  0  0  0
 10 20  1  0  0  0
 10 21  1  0  0  0
 25 27  1  0  0  0
 30 32  1  0  0  0
 35 38  1  0  0  0
 36 39  1  0  0  0
  5  8  1  0  0  0
  7  9  1  0  0  0
M  END
> <minimizedAffinity>
-6.77476

> <CNNscore>
0.1081260666

> <CNNaffinity>
4.7800550461

> <CNN_VS>
0.5168485641

> <CNNaffinity_variance>
0.1810010523

$$$$
[H]c1nc(N([H])c2c([H])c(OC([H])([H])[H])c(OC([H])([H])[H])c(OC([H])([H])[H])c2[H])nc(N([H])c2nc3c(c([H])c2[H])OC(C([H])([H])[H])(C([H])([H])[H])C(=O)N3[H])c1Cl


 37 40  0  0  0  0  0  0  0  0999 V2000
  -16.5301   10.4974  -20.2368 C   0  0  0  0  0  0  0  0  0  0  0  0
  -15.4660   10.3135  -21.0026 N   0  0  0  0  0  0  0  0  0  0  0  0
  -15.1459   11.0012  -22.1053 C   0  0  0  0  0  0  0  0  0  0  0  0
  -16.0051   12.0030  -22.4886 C   0  0  0  0  0  0  0  0  0  0  0  0
  -15.7315   12.9873  -23.8966 Cl  0  0  0  0  0  0  0  0  0  0  0  0
  -17.1469   12.2583  -21.7348 C   0  0  0  0  0  0  0  0  0  0  0  0
  -17.3628   11.5078  -20.6548 N   0  0  0  0  0  0  0  0  0  0  0  0
  -16.8931    9.7910  -19.0723 N   0  0  0  0  0  0  0  0  0  0  0  0
  -16.2686    8.9483  -18.8515 H   0  0  0  0  0  0  0  0  0  0  0  0
  -19.7024    9.5873  -16.6032 C   0  0  0  0  0  0  0  0  0  0  0  0
  -18.6204    9.2239  -17.4245 C   0  0  0  0  0  0  0  0  0  0  0  0
  -17.9671   10.0897  -18.2175 C   0  0  0  0  0  0  0  0  0  0  0  0
  -18.4099   11.4210  -18.2044 C   0  0  0  0  0  0  0  0  0  0  0  0
  -19.4626   11.7933  -17.4103 C   0  0  0  0  0  0  0  0  0  0  0  0
  -20.1308   10.8908  -16.5952 C   0  0  0  0  0  0  0  0  0  0  0  0
  -19.6130    8.0486  -14.7561 C   0  0  0  0  0  0  0  0  0  0  0  0
  -20.3430    8.6541  -15.8032 O   0  0  0  0  0  0  0  0  0  0  0  0
  -19.8968   13.1019  -17.3982 O   0  0  0  0  0  0  0  0  0  0  0  0
  -19.0019   14.1116  -16.9814 C   0  0  0  0  0  0  0  0  0  0  0  0
  -21.1985   11.2678  -15.7899 O   0  0  0  0  0  0  0  0  0  0  0  0
  -20.9310   11.7012  -14.4802 C   0  0  0  0  0  0  0  0  0  0  0  0
  -18.0577   13.2752  -22.0885 N   0  0  0  0  0  0  0  0  0  0  0  0
  -18.6990   13.1447  -22.9037 H   0  0  0  0  0  0  0  0  0  0  0  0
  -18.1069   14.4785  -21.3396 C   0  0  0  0  0  0  0  0  0  0  0  0
  -16.9363   15.2246  -21.1261 C   0  0  0  0  0  0  0  0  0  0  0  0
  -17.0111   16.3884  -20.3962 C   0  0  0  0  0  0  0  0  0  0  0  0
  -18.2005   16.8410  -19.8700 C   0  0  0  0  0  0  0  0  0  0  0  0
  -18.2932   18.0104  -19.1328 O   0  0  0  0  0  0  0  0  0  0  0  0
  -19.3870   18.2944  -18.2821 C   0  0  0  0  0  0  0  0  0  0  0  0
  -19.5758   19.8037  -18.1752 C   0  0  0  0  0  0  0  0  0  0  0  0
  -19.1455   17.6783  -16.9340 C   0  0  0  0  0  0  0  0  0  0  0  0
  -20.6670   17.7390  -18.8047 C   0  0  0  0  0  0  0  0  0  0  0  0
  -21.7664   18.3261  -18.5780 O   0  0  0  0  0  0  0  0  0  0  0  0
  -20.5915   16.5376  -19.5573 N   0  0  0  0  0  0  0  0  0  0  0  0
  -19.3452   16.0899  -20.0920 C   0  0  0  0  0  0  0  0  0  0  0  0
  -19.2394   14.9592  -20.8081 N   0  0  0  0  0  0  0  0  0  0  0  0
  -21.4489   15.9830  -19.7188 H   0  0  0  0  0  0  0  0  0  0  0  0
 16 17  1  0  0  0
 17 10  1  0  0  0
 10 11  2  0  0  0
 11 12  1  0  0  0
 12  8  1  0  0  0
  8  1  1  0  0  0
  1  2  2  0  0  0
  2  3  1  0  0  0
  3  4  2  0  0  0
  4  5  1  0  0  0
  4  6  1  0  0  0
  6 22  1  0  0  0
 22 24  1  0  0  0
 24 25  2  0  0  0
 25 26  1  0  0  0
 26 27  2  0  0  0
 27 28  1  0  0  0
 28 29  1  0  0  0
 29 30  1  0  0  0
 29 31  1  0  0  0
 29 32  1  0  0  0
 32 33  2  0  0  0
 32 34  1  0  0  0
 34 35  1  0  0  0
 35 36  2  0  0  0
  6  7  2  0  0  0
 12 13  2  0  0  0
 13 14  1  0  0  0
 14 18  1  0  0  0
 18 19  1  0  0  0
 14 15  2  0  0  0
 15 20  1  0  0  0
 20 21  1  0  0  0
 15 10  1  0  0  0
  7  1  1  0  0  0
 36 24  1  0  0  0
 35 27  1  0  0  0
  8  9  1  0  0  0
 22 23  1  0  0  0
 34 37  1  0  0  0
M  END
> <minimizedAffinity>
-8.22255

> <CNNscore>
0.7591492534

> <CNNaffinity>
7.5024733543

> <CNN_VS>
5.6954970360

> <CNNaffinity_variance>
0.0572597608

$$$$
[H]c1nc(N([H])c2c([H])c(OC([H])([H])[H])c(OC([H])([H])[H])c(OC([H])([H])[H])c2[H])nc(N([H])c2nc3c(c([H])c2[H])OC(C([H])([H])[H])(C([H])([H])[H])C(=O)N3[H])c1Cl


 37 40  0  0  0  0  0  0  0  0999 V2000
  -16.5885   10.3745  -20.1612 C   0  0  0  0  0  0  0  0  0  0  0  0
  -15.3731   10.3018  -20.6809 N   0  0  0  0  0  0  0  0  0  0  0  0
  -14.9155   10.9771  -21.7420 C   0  0  0  0  0  0  0  0  0  0  0  0
  -15.7913   11.8363  -22.3613 C   0  0  0  0  0  0  0  0  0  0  0  0
  -15.3511   12.7855  -23.7511 Cl  0  0  0  0  0  0  0  0  0  0  0  0
  -17.0883   11.9685  -21.8741 C   0  0  0  0  0  0  0  0  0  0  0  0
  -17.4324   11.2442  -20.8096 N   0  0  0  0  0  0  0  0  0  0  0  0
  -17.0984    9.6776  -19.0471 N   0  0  0  0  0  0  0  0  0  0  0  0
  -16.6384    8.7257  -18.8704 H   0  0  0  0  0  0  0  0  0  0  0  0
  -19.8283    9.8554  -16.4885 C   0  0  0  0  0  0  0  0  0  0  0  0
  -18.7989    9.3582  -17.3074 C   0  0  0  0  0  0  0  0  0  0  0  0
  -18.1224   10.1127  -18.1896 C   0  0  0  0  0  0  0  0  0  0  0  0
  -18.4838   11.4657  -18.2763 C   0  0  0  0  0  0  0  0  0  0  0  0
  -19.4843   11.9677  -17.4860 C   0  0  0  0  0  0  0  0  0  0  0  0
  -20.1771   11.1794  -16.5782 C   0  0  0  0  0  0  0  0  0  0  0  0
  -20.3069    7.6367  -15.6908 C   0  0  0  0  0  0  0  0  0  0  0  0
  -20.4959    9.0335  -15.5940 O   0  0  0  0  0  0  0  0  0  0  0  0
  -19.8384   13.2974  -17.5720 O   0  0  0  0  0  0  0  0  0  0  0  0
  -18.9549   14.2712  -17.0569 C   0  0  0  0  0  0  0  0  0  0  0  0
  -21.1918   11.6879  -15.7769 O   0  0  0  0  0  0  0  0  0  0  0  0
  -20.8953   12.0087  -14.4413 C   0  0  0  0  0  0  0  0  0  0  0  0
  -18.0222   12.8371  -22.4760 N   0  0  0  0  0  0  0  0  0  0  0  0
  -18.6561   12.4853  -23.2292 H   0  0  0  0  0  0  0  0  0  0  0  0
  -18.1049   14.1909  -22.0617 C   0  0  0  0  0  0  0  0  0  0  0  0
  -17.8188   14.5400  -20.7318 C   0  0  0  0  0  0  0  0  0  0  0  0
  -17.9064   15.8605  -20.3554 C   0  0  0  0  0  0  0  0  0  0  0  0
  -18.2664   16.8475  -21.2457 C   0  0  0  0  0  0  0  0  0  0  0  0
  -18.3594   18.1815  -20.8831 O   0  0  0  0  0  0  0  0  0  0  0  0
  -19.0738   19.1342  -21.6465 C   0  0  0  0  0  0  0  0  0  0  0  0
  -18.4637   20.5168  -21.4430 C   0  0  0  0  0  0  0  0  0  0  0  0
  -20.5210   19.1127  -21.2461 C   0  0  0  0  0  0  0  0  0  0  0  0
  -19.0097   18.8491  -23.1075 C   0  0  0  0  0  0  0  0  0  0  0  0
  -19.0351   19.7931  -23.9518 O   0  0  0  0  0  0  0  0  0  0  0  0
  -18.9202   17.4869  -23.4974 N   0  0  0  0  0  0  0  0  0  0  0  0
  -18.5449   16.4822  -22.5544 C   0  0  0  0  0  0  0  0  0  0  0  0
  -18.4505   15.1858  -22.8904 N   0  0  0  0  0  0  0  0  0  0  0  0
  -19.1292   17.2221  -24.4746 H   0  0  0  0  0  0  0  0  0  0  0  0
 16 17  1  0  0  0
 17 10  1  0  0  0
 10 11  2  0  0  0
 11 12  1  0  0  0
 12  8  1  0  0  0
  8  1  1  0  0  0
  1  2  2  0  0  0
  2  3  1  0  0  0
  3  4  2  0  0  0
  4  5  1  0  0  0
  4  6  1  0  0  0
  6 22  1  0  0  0
 22 24  1  0  0  0
 24 25  2  0  0  0
 25 26  1  0  0  0
 26 27  2  0  0  0
 27 28  1  0  0  0
 28 29  1  0  0  0
 29 30  1  0  0  0
 29 31  1  0  0  0
 29 32  1  0  0  0
 32 33  2  0  0  0
 32 34  1  0  0  0
 34 35  1  0  0  0
 35 36  2  0  0  0
  6  7  2  0  0  0
 12 13  2  0  0  0
 13 14  1  0  0  0
 14 18  1  0  0  0
 18 19  1  0  0  0
 14 15  2  0  0  0
 15 20  1  0  0  0
 20 21  1  0  0  0
 15 10  1  0  0  0
  7  1  1  0  0  0
 36 24  1  0  0  0
 35 27  1  0  0  0
  8  9  1  0  0  0
 22 23  1  0  0  0
 34 37  1  0  0  0
M  END
> <minimizedAffinity>
-7.90448

> <CNNscore>
0.7497466803

> <CNNaffinity>
7.5975556374

> <CNN_VS>
5.6962423325

> <CNNaffinity_variance>
0.1344930679

$$$$
[H]c1nc(N([H])c2c([H])c(OC([H])([H])[H])c(OC([H])([H])[H])c(OC([H])([H])[H])c2[H])nc(N([H])c2nc3c(c([H])c2[H])OC(C([H])([H])[H])(C([H])([H])[H])C(=O)N3[H])c1Cl


 37 40  0  0  0  0  0  0  0  0999 V2000
  -16.7184   10.4865  -20.0276 C   0  0  0  0  0  0  0  0  0  0  0  0
  -15.6365   10.2223  -20.7432 N   0  0  0  0  0  0  0  0  0  0  0  0
  -15.2380   10.8546  -21.8535 C   0  0  0  0  0  0  0  0  0  0  0  0
  -16.0280   11.8854  -22.3034 C   0  0  0  0  0  0  0  0  0  0  0  0
  -15.6485   12.8057  -23.7300 Cl  0  0  0  0  0  0  0  0  0  0  0  0
  -17.1832   12.2243  -21.6052 C   0  0  0  0  0  0  0  0  0  0  0  0
  -17.4800   11.5233  -20.5113 N   0  0  0  0  0  0  0  0  0  0  0  0
  -17.1631    9.8397  -18.8568 N   0  0  0  0  0  0  0  0  0  0  0  0
  -16.5883    8.9784  -18.5800 H   0  0  0  0  0  0  0  0  0  0  0  0
  -19.9809   11.7171  -17.2551 C   0  0  0  0  0  0  0  0  0  0  0  0
  -18.8995   11.3970  -18.0949 C   0  0  0  0  0  0  0  0  0  0  0  0
  -18.2573   10.2172  -18.0609 C   0  0  0  0  0  0  0  0  0  0  0  0
  -18.7125    9.2733  -17.1278 C   0  0  0  0  0  0  0  0  0  0  0  0
  -19.7651    9.5678  -16.3015 C   0  0  0  0  0  0  0  0  0  0  0  0
  -20.4211   10.7897  -16.3446 C   0  0  0  0  0  0  0  0  0  0  0  0
  -19.9156   14.0902  -16.8657 C   0  0  0  0  0  0  0  0  0  0  0  0
  -20.6091   12.9504  -17.3303 O   0  0  0  0  0  0  0  0  0  0  0  0
  -20.2115    8.6395  -15.3851 O   0  0  0  0  0  0  0  0  0  0  0  0
  -19.4006    8.3425  -14.2677 C   0  0  0  0  0  0  0  0  0  0  0  0
  -21.4884   11.0889  -15.5067 O   0  0  0  0  0  0  0  0  0  0  0  0
  -21.2174   11.6661  -14.2546 C   0  0  0  0  0  0  0  0  0  0  0  0
  -18.0249   13.2739  -22.0280 N   0  0  0  0  0  0  0  0  0  0  0  0
  -18.6033   13.1666  -22.8922 H   0  0  0  0  0  0  0  0  0  0  0  0
  -18.0897   14.4786  -21.2826 C   0  0  0  0  0  0  0  0  0  0  0  0
  -16.9306   15.2450  -21.0791 C   0  0  0  0  0  0  0  0  0  0  0  0
  -17.0204   16.4098  -20.3523 C   0  0  0  0  0  0  0  0  0  0  0  0
  -18.2138   16.8438  -19.8197 C   0  0  0  0  0  0  0  0  0  0  0  0
  -18.3216   18.0138  -19.0856 O   0  0  0  0  0  0  0  0  0  0  0  0
  -19.4145   18.2819  -18.2286 C   0  0  0  0  0  0  0  0  0  0  0  0
  -19.6282   19.7882  -18.1251 C   0  0  0  0  0  0  0  0  0  0  0  0
  -19.1538   17.6744  -16.8802 C   0  0  0  0  0  0  0  0  0  0  0  0
  -20.6883   17.7033  -18.7411 C   0  0  0  0  0  0  0  0  0  0  0  0
  -21.7960   18.2724  -18.5090 O   0  0  0  0  0  0  0  0  0  0  0  0
  -20.5973   16.5010  -19.4904 N   0  0  0  0  0  0  0  0  0  0  0  0
  -19.3471   16.0727  -20.0319 C   0  0  0  0  0  0  0  0  0  0  0  0
  -19.2267   14.9417  -20.7452 N   0  0  0  0  0  0  0  0  0  0  0  0
  -21.4461   15.9314  -19.6446 H   0  0  0  0  0  0  0  0  0  0  0  0
 16 17  1  0  0  0
 17 10  1  0  0  0
 10 11  2  0  0  0
 11 12  1  0  0  0
 12  8  1  0  0  0
  8  1  1  0  0  0
  1  2  2  0  0  0
  2  3  1  0  0  0
  3  4  2  0  0  0
  4  5  1  0  0  0
  4  6  1  0  0  0
  6 22  1  0  0  0
 22 24  1  0  0  0
 24 25  2  0  0  0
 25 26  1  0  0  0
 26 27  2  0  0  0
 27 28  1  0  0  0
 28 29  1  0  0  0
 29 30  1  0  0  0
 29 31  1  0  0  0
 29 32  1  0  0  0
 32 33  2  0  0  0
 32 34  1  0  0  0
 34 35  1  0  0  0
 35 36  2  0  0  0
  6  7  2  0  0  0
 12 13  2  0  0  0
 13 14  1  0  0  0
 14 18  1  0  0  0
 18 19  1  0  0  0
 14 15  2  0  0  0
 15 20  1  0  0  0
 20 21  1  0  0  0
 15 10  1  0  0  0
  7  1  1  0  0  0
 36 24  1  0  0  0
 35 27  1  0  0  0
  8  9  1  0  0  0
 22 23  1  0  0  0
 34 37  1  0  0  0
M  END
> <minimizedAffinity>
-8.11548

> <CNNscore>
0.7285080552

> <CNNaffinity>
7.4682235718

> <CNN_VS>
5.4406609535

> <CNNaffinity_variance>
0.0872609466

$$$$
[H]c1nc(N([H])c2c([H])c(OC([H])([H])[H])c(OC([H])([H])[H])c(OC([H])([H])[H])c2[H])nc(N([H])c2nc3c(c([H])c2[H])OC(C([H])([H])[H])(C([H])([H])[H])C(=O)N3[H])c1Cl


 37 40  0  0  0  0  0  0  0  0999 V2000
  -16.7868   10.6831  -19.3922 C   0  0  0  0  0  0  0  0  0  0  0  0
  -16.0771   10.1360  -20.3667 N   0  0  0  0  0  0  0  0  0  0  0  0
  -15.9036   10.6241  -21.6007 C   0  0  0  0  0  0  0  0  0  0  0  0
  -16.5227   11.8156  -21.8944 C   0  0  0  0  0  0  0  0  0  0  0  0
  -16.3957   12.5811  -23.4513 Cl  0  0  0  0  0  0  0  0  0  0  0  0
  -17.2872   12.4535  -20.9220 C   0  0  0  0  0  0  0  0  0  0  0  0
  -17.3888   11.8724  -19.7269 N   0  0  0  0  0  0  0  0  0  0  0  0
  -16.9874   10.1941  -18.0856 N   0  0  0  0  0  0  0  0  0  0  0  0
  -16.0850    9.9810  -17.5479 H   0  0  0  0  0  0  0  0  0  0  0  0
  -19.9258    8.6439  -16.3556 C   0  0  0  0  0  0  0  0  0  0  0  0
  -18.6636    8.8045  -16.9542 C   0  0  0  0  0  0  0  0  0  0  0  0
  -18.2255    9.9691  -17.4612 C   0  0  0  0  0  0  0  0  0  0  0  0
  -19.0953   11.0667  -17.3740 C   0  0  0  0  0  0  0  0  0  0  0  0
  -20.3289   10.9287  -16.7939 C   0  0  0  0  0  0  0  0  0  0  0  0
  -20.7719    9.7210  -16.2737 C   0  0  0  0  0  0  0  0  0  0  0  0
  -19.7791    6.9816  -14.6226 C   0  0  0  0  0  0  0  0  0  0  0  0
  -20.3301    7.4191  -15.8478 O   0  0  0  0  0  0  0  0  0  0  0  0
  -21.1827   12.0080  -16.7088 O   0  0  0  0  0  0  0  0  0  0  0  0
  -21.0307   12.9125  -15.6350 C   0  0  0  0  0  0  0  0  0  0  0  0
  -22.0228    9.5806  -15.6855 O   0  0  0  0  0  0  0  0  0  0  0  0
  -22.1338    9.7518  -14.2952 C   0  0  0  0  0  0  0  0  0  0  0  0
  -17.9410   13.6769  -21.1764 N   0  0  0  0  0  0  0  0  0  0  0  0
  -17.8221   14.1530  -22.0995 H   0  0  0  0  0  0  0  0  0  0  0  0
  -18.7618   14.2657  -20.1812 C   0  0  0  0  0  0  0  0  0  0  0  0
  -20.1151   13.9042  -20.0788 C   0  0  0  0  0  0  0  0  0  0  0  0
  -20.8900   14.4901  -19.1045 C   0  0  0  0  0  0  0  0  0  0  0  0
  -20.3757   15.4199  -18.2285 C   0  0  0  0  0  0  0  0  0  0  0  0
  -21.1420   16.0192  -17.2420 O   0  0  0  0  0  0  0  0  0  0  0  0
  -20.7581   17.2182  -16.5971 C   0  0  0  0  0  0  0  0  0  0  0  0
  -21.3476   17.2563  -15.1913 C   0  0  0  0  0  0  0  0  0  0  0  0
  -21.2156   18.3935  -17.4122 C   0  0  0  0  0  0  0  0  0  0  0  0
  -19.2801   17.3281  -16.4443 C   0  0  0  0  0  0  0  0  0  0  0  0
  -18.7762   17.9372  -15.4544 O   0  0  0  0  0  0  0  0  0  0  0  0
  -18.4792   16.7248  -17.4494 N   0  0  0  0  0  0  0  0  0  0  0  0
  -19.0371   15.7633  -18.3460 C   0  0  0  0  0  0  0  0  0  0  0  0
  -18.3075   15.1740  -19.3067 N   0  0  0  0  0  0  0  0  0  0  0  0
  -17.4822   16.9857  -17.5310 H   0  0  0  0  0  0  0  0  0  0  0  0
 16 17  1  0  0  0
 17 10  1  0  0  0
 10 11  2  0  0  0
 11 12  1  0  0  0
 12  8  1  0  0  0
  8  1  1  0  0  0
  1  2  2  0  0  0
  2  3  1  0  0  0
  3  4  2  0  0  0
  4  5  1  0  0  0
  4  6  1  0  0  0
  6 22  1  0  0  0
 22 24  1  0  0  0
 24 25  2  0  0  0
 25 26  1  0  0  0
 26 27  2  0  0  0
 27 28  1  0  0  0
 28 29  1  0  0  0
 29 30  1  0  0  0
 29 31  1  0  0  0
 29 32  1  0  0  0
 32 33  2  0  0  0
 32 34  1  0  0  0
 34 35  1  0  0  0
 35 36  2  0  0  0
  6  7  2  0  0  0
 12 13  2  0  0  0
 13 14  1  0  0  0
 14 18  1  0  0  0
 18 19  1  0  0  0
 14 15  2  0  0  0
 15 20  1  0  0  0
 20 21  1  0  0  0
 15 10  1  0  0  0
  7  1  1  0  0  0
 36 24  1  0  0  0
 35 27  1  0  0  0
  8  9  1  0  0  0
 22 23  1  0  0  0
 34 37  1  0  0  0
M  END
> <minimizedAffinity>
-7.71740

> <CNNscore>
0.6928417683

> <CNNaffinity>
7.0663132668

> <CNN_VS>
4.8958368301

> <CNNaffinity_variance>
0.0654836744

$$$$
[H]c1nc(N([H])c2c([H])c(OC([H])([H])[H])c(OC([H])([H])[H])c(OC([H])([H])[H])c2[H])nc(N([H])c2nc3c(c([H])c2[H])OC(C([H])([H])[H])(C([H])([H])[H])C(=O)N3[H])c1Cl


 37 40  0  0  0  0  0  0  0  0999 V2000
  -19.0287   13.2621  -17.3668 C   0  0  0  0  0  0  0  0  0  0  0  0
  -19.8103   12.5748  -16.5487 N   0  0  0  0  0  0  0  0  0  0  0  0
  -19.8859   11.2425  -16.4462 C   0  0  0  0  0  0  0  0  0  0  0  0
  -19.0715   10.5048  -17.2718 C   0  0  0  0  0  0  0  0  0  0  0  0
  -19.0510    8.7654  -17.2609 Cl  0  0  0  0  0  0  0  0  0  0  0  0
  -18.2203   11.1547  -18.1608 C   0  0  0  0  0  0  0  0  0  0  0  0
  -18.2310   12.4873  -18.1745 N   0  0  0  0  0  0  0  0  0  0  0  0
  -18.9272   14.6619  -17.4972 N   0  0  0  0  0  0  0  0  0  0  0  0
  -18.7538   15.1820  -16.5761 H   0  0  0  0  0  0  0  0  0  0  0  0
  -18.2038   16.6767  -20.5708 C   0  0  0  0  0  0  0  0  0  0  0  0
  -18.0231   15.9341  -19.3905 C   0  0  0  0  0  0  0  0  0  0  0  0
  -19.0357   15.3977  -18.6888 C   0  0  0  0  0  0  0  0  0  0  0  0
  -20.3317   15.6053  -19.1847 C   0  0  0  0  0  0  0  0  0  0  0  0
  -20.5267   16.3262  -20.3336 C   0  0  0  0  0  0  0  0  0  0  0  0
  -19.4738   16.8764  -21.0504 C   0  0  0  0  0  0  0  0  0  0  0  0
  -16.1274   17.8907  -20.5232 C   0  0  0  0  0  0  0  0  0  0  0  0
  -17.1240   17.2097  -21.2574 O   0  0  0  0  0  0  0  0  0  0  0  0
  -21.8008   16.5295  -20.8199 O   0  0  0  0  0  0  0  0  0  0  0  0
  -22.6508   17.4320  -20.1438 C   0  0  0  0  0  0  0  0  0  0  0  0
  -19.6711   17.6076  -22.2153 O   0  0  0  0  0  0  0  0  0  0  0  0
  -19.8230   19.0010  -22.1154 C   0  0  0  0  0  0  0  0  0  0  0  0
  -17.3668   10.4409  -19.0273 N   0  0  0  0  0  0  0  0  0  0  0  0
  -17.0313    9.4864  -18.7641 H   0  0  0  0  0  0  0  0  0  0  0  0
  -16.9604   11.0152  -20.2586 C   0  0  0  0  0  0  0  0  0  0  0  0
  -15.8707   10.4766  -20.9622 C   0  0  0  0  0  0  0  0  0  0  0  0
  -15.4966   11.0523  -22.1545 C   0  0  0  0  0  0  0  0  0  0  0  0
  -16.1602   12.1406  -22.6758 C   0  0  0  0  0  0  0  0  0  0  0  0
  -15.7964   12.7322  -23.8746 O   0  0  0  0  0  0  0  0  0  0  0  0
  -16.1973   14.0398  -24.2357 C   0  0  0  0  0  0  0  0  0  0  0  0
  -16.2705   14.1532  -25.7546 C   0  0  0  0  0  0  0  0  0  0  0  0
  -15.2317   15.0358  -23.6606 C   0  0  0  0  0  0  0  0  0  0  0  0
  -17.5518   14.3783  -23.7155 C   0  0  0  0  0  0  0  0  0  0  0  0
  -18.3126   15.1628  -24.3563 O   0  0  0  0  0  0  0  0  0  0  0  0
  -17.9389   13.7857  -22.4849 N   0  0  0  0  0  0  0  0  0  0  0  0
  -17.2336   12.6576  -21.9657 C   0  0  0  0  0  0  0  0  0  0  0  0
  -17.5740   12.0736  -20.8057 N   0  0  0  0  0  0  0  0  0  0  0  0
  -18.7400   14.1764  -21.9612 H   0  0  0  0  0  0  0  0  0  0  0  0
 16 17  1  0  0  0
 17 10  1  0  0  0
 10 11  2  0  0  0
 11 12  1  0  0  0
 12  8  1  0  0  0
  8  1  1  0  0  0
  1  2  2  0  0  0
  2  3  1  0  0  0
  3  4  2  0  0  0
  4  5  1  0  0  0
  4  6  1  0  0  0
  6 22  1  0  0  0
 22 24  1  0  0  0
 24 25  2  0  0  0
 25 26  1  0  0  0
 26 27  2  0  0  0
 27 28  1  0  0  0
 28 29  1  0  0  0
 29 30  1  0  0  0
 29 31  1  0  0  0
 29 32  1  0  0  0
 32 33  2  0  0  0
 32 34  1  0  0  0
 34 35  1  0  0  0
 35 36  2  0  0  0
  6  7  2  0  0  0
 12 13  2  0  0  0
 13 14  1  0  0  0
 14 18  1  0  0  0
 18 19  1  0  0  0
 14 15  2  0  0  0
 15 20  1  0  0  0
 20 21  1  0  0  0
 15 10  1  0  0  0
  7  1  1  0  0  0
 36 24  1  0  0  0
 35 27  1  0  0  0
  8  9  1  0  0  0
 22 23  1  0  0  0
 34 37  1  0  0  0
M  END
> <minimizedAffinity>
-8.39315

> <CNNscore>
0.4485828280

> <CNNaffinity>
7.3031425476

> <CNN_VS>
3.2760643959

> <CNNaffinity_variance>
0.1350571513

$$$$
[H]c1nc(N([H])c2c([H])c(OC([H])([H])[H])c(OC([H])([H])[H])c(OC([H])([H])[H])c2[H])nc(N([H])c2nc3c(c([H])c2[H])OC(C([H])([H])[H])(C([H])([H])[H])C(=O)N3[H])c1Cl


 37 40  0  0  0  0  0  0  0  0999 V2000
  -19.2740   13.3191  -17.4363 C   0  0  0  0  0  0  0  0  0  0  0  0
  -20.1012   12.5778  -16.7161 N   0  0  0  0  0  0  0  0  0  0  0  0
  -20.1073   11.2424  -16.6278 C   0  0  0  0  0  0  0  0  0  0  0  0
  -19.1605   10.5634  -17.3570 C   0  0  0  0  0  0  0  0  0  0  0  0
  -19.0362    8.8283  -17.3501 Cl  0  0  0  0  0  0  0  0  0  0  0  0
  -18.2540   11.2723  -18.1398 C   0  0  0  0  0  0  0  0  0  0  0  0
  -18.3436   12.6020  -18.1497 N   0  0  0  0  0  0  0  0  0  0  0  0
  -19.2430   14.7238  -17.5490 N   0  0  0  0  0  0  0  0  0  0  0  0
  -19.1383   15.2418  -16.6164 H   0  0  0  0  0  0  0  0  0  0  0  0
  -20.4982   16.6081  -20.5330 C   0  0  0  0  0  0  0  0  0  0  0  0
  -20.4722   15.8800  -19.3303 C   0  0  0  0  0  0  0  0  0  0  0  0
  -19.3395   15.4666  -18.7374 C   0  0  0  0  0  0  0  0  0  0  0  0
  -18.1332   15.7940  -19.3749 C   0  0  0  0  0  0  0  0  0  0  0  0
  -18.1394   16.5031  -20.5473 C   0  0  0  0  0  0  0  0  0  0  0  0
  -19.3151   16.9249  -21.1516 C   0  0  0  0  0  0  0  0  0  0  0  0
  -22.3974   18.0847  -20.5123 C   0  0  0  0  0  0  0  0  0  0  0  0
  -21.6953   17.0108  -21.1039 O   0  0  0  0  0  0  0  0  0  0  0  0
  -16.9533   16.8243  -21.1728 O   0  0  0  0  0  0  0  0  0  0  0  0
  -16.1152   17.7962  -20.5837 C   0  0  0  0  0  0  0  0  0  0  0  0
  -19.3218   17.6438  -22.3406 O   0  0  0  0  0  0  0  0  0  0  0  0
  -19.2154   19.0436  -22.2791 C   0  0  0  0  0  0  0  0  0  0  0  0
  -17.2651   10.6199  -18.9049 N   0  0  0  0  0  0  0  0  0  0  0  0
  -16.8057    9.7546  -18.5400 H   0  0  0  0  0  0  0  0  0  0  0  0
  -16.8904   11.1351  -20.1719 C   0  0  0  0  0  0  0  0  0  0  0  0
  -15.8515   10.5317  -20.8992 C   0  0  0  0  0  0  0  0  0  0  0  0
  -15.5073   11.0509  -22.1259 C   0  0  0  0  0  0  0  0  0  0  0  0
  -16.1526   12.1443  -22.6592 C   0  0  0  0  0  0  0  0  0  0  0  0
  -15.8184   12.6795  -23.8926 O   0  0  0  0  0  0  0  0  0  0  0  0
  -16.1867   13.9879  -24.2846 C   0  0  0  0  0  0  0  0  0  0  0  0
  -16.3197   14.0507  -25.8024 C   0  0  0  0  0  0  0  0  0  0  0  0
  -15.1625   14.9665  -23.7861 C   0  0  0  0  0  0  0  0  0  0  0  0
  -17.5051   14.3949  -23.7224 C   0  0  0  0  0  0  0  0  0  0  0  0
  -18.2634   15.1845  -24.3599 O   0  0  0  0  0  0  0  0  0  0  0  0
  -17.8613   13.8607  -22.4562 N   0  0  0  0  0  0  0  0  0  0  0  0
  -17.1759   12.7258  -21.9253 C   0  0  0  0  0  0  0  0  0  0  0  0
  -17.4880   12.1959  -20.7319 N   0  0  0  0  0  0  0  0  0  0  0  0
  -18.6250   14.2993  -21.9149 H   0  0  0  0  0  0  0  0  0  0  0  0
 16 17  1  0  0  0
 17 10  1  0  0  0
 10 11  2  0  0  0
 11 12  1  0  0  0
 12  8  1  0  0  0
  8  1  1  0  0  0
  1  2  2  0  0  0
  2  3  1  0  0  0
  3  4  2  0  0  0
  4  5  1  0  0  0
  4  6  1  0  0  0
  6 22  1  0  0  0
 22 24  1  0  0  0
 24 25  2  0  0  0
 25 26  1  0  0  0
 26 27  2  0  0  0
 27 28  1  0  0  0
 28 29  1  0  0  0
 29 30  1  0  0  0
 29 31  1  0  0  0
 29 32  1  0  0  0
 32 33  2  0  0  0
 32 34  1  0  0  0
 34 35  1  0  0  0
 35 36  2  0  0  0
  6  7  2  0  0  0
 12 13  2  0  0  0
 13 14  1  0  0  0
 14 18  1  0  0  0
 18 19  1  0  0  0
 14 15  2  0  0  0
 15 20  1  0  0  0
 20 21  1  0  0  0
 15 10  1  0  0  0
  7  1  1  0  0  0
 36 24  1  0  0  0
 35 27  1  0  0  0
  8  9  1  0  0  0
 22 23  1  0  0  0
 34 37  1  0  0  0
M  END
> <minimizedAffinity>
-8.34107

> <CNNscore>
0.4345090985

> <CNNaffinity>
7.2988066673

> <CNN_VS>
3.1713979244

> <CNNaffinity_variance>
0.1242867261

$$$$
[H]c1nc(N([H])c2c([H])c(OC([H])([H])[H])c(OC([H])([H])[H])c(OC([H])([H])[H])c2[H])nc(N([H])c2nc3c(c([H])c2[H])OC(C([H])([H])[H])(C([H])([H])[H])C(=O)N3[H])c1Cl


 37 40  0  0  0  0  0  0  0  0999 V2000
  -17.3131   10.3545  -19.0780 C   0  0  0  0  0  0  0  0  0  0  0  0
  -16.3760   10.1317  -19.9861 N   0  0  0  0  0  0  0  0  0  0  0  0
  -16.2328   10.7611  -21.1585 C   0  0  0  0  0  0  0  0  0  0  0  0
  -17.1490   11.7410  -21.4579 C   0  0  0  0  0  0  0  0  0  0  0  0
  -17.1007   12.6506  -22.9399 Cl  0  0  0  0  0  0  0  0  0  0  0  0
  -18.1653   12.0343  -20.5535 C   0  0  0  0  0  0  0  0  0  0  0  0
  -18.2083   11.3411  -19.4160 N   0  0  0  0  0  0  0  0  0  0  0  0
  -17.4891    9.7096  -17.8371 N   0  0  0  0  0  0  0  0  0  0  0  0
  -16.6075    9.2348  -17.4546 H   0  0  0  0  0  0  0  0  0  0  0  0
  -20.3699    8.5543  -15.7402 C   0  0  0  0  0  0  0  0  0  0  0  0
  -19.1569    8.5610  -16.4515 C   0  0  0  0  0  0  0  0  0  0  0  0
  -18.6805    9.6393  -17.0963 C   0  0  0  0  0  0  0  0  0  0  0  0
  -19.4560   10.8072  -17.0389 C   0  0  0  0  0  0  0  0  0  0  0  0
  -20.6406   10.8192  -16.3503 C   0  0  0  0  0  0  0  0  0  0  0  0
  -21.1238    9.6996  -15.6882 C   0  0  0  0  0  0  0  0  0  0  0  0
  -21.3817    6.3753  -15.8660 C   0  0  0  0  0  0  0  0  0  0  0  0
  -20.8170    7.4136  -15.0920 O   0  0  0  0  0  0  0  0  0  0  0  0
  -21.4018   11.9675  -16.2947 O   0  0  0  0  0  0  0  0  0  0  0  0
  -20.8211   13.1887  -16.7015 C   0  0  0  0  0  0  0  0  0  0  0  0
  -22.3250    9.7113  -14.9900 O   0  0  0  0  0  0  0  0  0  0  0  0
  -23.5104    9.4276  -15.6892 C   0  0  0  0  0  0  0  0  0  0  0  0
  -19.1280   13.0307  -20.8165 N   0  0  0  0  0  0  0  0  0  0  0  0
  -19.9298   12.8295  -21.4565 H   0  0  0  0  0  0  0  0  0  0  0  0
  -19.0120   14.3092  -20.2138 C   0  0  0  0  0  0  0  0  0  0  0  0
  -17.7958   15.0091  -20.2733 C   0  0  0  0  0  0  0  0  0  0  0  0
  -17.7095   16.2477  -19.6806 C   0  0  0  0  0  0  0  0  0  0  0  0
  -18.7813   16.8190  -19.0316 C   0  0  0  0  0  0  0  0  0  0  0  0
  -18.7113   18.0649  -18.4297 O   0  0  0  0  0  0  0  0  0  0  0  0
  -19.6428   18.4989  -17.4577 C   0  0  0  0  0  0  0  0  0  0  0  0
  -19.7566   20.0190  -17.4985 C   0  0  0  0  0  0  0  0  0  0  0  0
  -19.2101   18.0209  -16.1014 C   0  0  0  0  0  0  0  0  0  0  0  0
  -21.0097   17.9607  -17.7065 C   0  0  0  0  0  0  0  0  0  0  0  0
  -22.0361   18.6281  -17.3810 O   0  0  0  0  0  0  0  0  0  0  0  0
  -21.1003   16.6823  -18.3172 N   0  0  0  0  0  0  0  0  0  0  0  0
  -19.9736   16.1118  -18.9839 C   0  0  0  0  0  0  0  0  0  0  0  0
  -20.0258   14.9059  -19.5717 N   0  0  0  0  0  0  0  0  0  0  0  0
  -21.9922   16.1611  -18.2777 H   0  0  0  0  0  0  0  0  0  0  0  0
 16 17  1  0  0  0
 17 10  1  0  0  0
 10 11  2  0  0  0
 11 12  1  0  0  0
 12  8  1  0  0  0
  8  1  1  0  0  0
  1  2  2  0  0  0
  2  3  1  0  0  0
  3  4  2  0  0  0
  4  5  1  0  0  0
  4  6  1  0  0  0
  6 22  1  0  0  0
 22 24  1  0  0  0
 24 25  2  0  0  0
 25 26  1  0  0  0
 26 27  2  0  0  0
 27 28  1  0  0  0
 28 29  1  0  0  0
 29 30  1  0  0  0
 29 31  1  0  0  0
 29 32  1  0  0  0
 32 33  2  0  0  0
 32 34  1  0  0  0
 34 35  1  0  0  0
 35 36  2  0  0  0
  6  7  2  0  0  0
 12 13  2  0  0  0
 13 14  1  0  0  0
 14 18  1  0  0  0
 18 19  1  0  0  0
 14 15  2  0  0  0
 15 20  1  0  0  0
 20 21  1  0  0  0
 15 10  1  0  0  0
  7  1  1  0  0  0
 36 24  1  0  0  0
 35 27  1  0  0  0
  8  9  1  0  0  0
 22 23  1  0  0  0
 34 37  1  0  0  0
M  END
> <minimizedAffinity>
-7.53135

> <CNNscore>
0.4025470018

> <CNNaffinity>
6.9774694443

> <CNN_VS>
2.8087594509

> <CNNaffinity_variance>
0.1099343523

$$$$
[H]c1nc(N([H])c2c([H])c(OC([H])([H])[H])c(OC([H])([H])[H])c(OC([H])([H])[H])c2[H])nc(N([H])c2nc3c(c([H])c2[H])OC(C([H])([H])[H])(C([H])([H])[H])C(=O)N3[H])c1Cl


 37 40  0  0  0  0  0  0  0  0999 V2000
  -16.7197   11.2793  -20.9654 C   0  0  0  0  0  0  0  0  0  0  0  0
  -17.0512   10.0707  -20.5388 N   0  0  0  0  0  0  0  0  0  0  0  0
  -17.7088    9.7730  -19.4118 C   0  0  0  0  0  0  0  0  0  0  0  0
  -18.0818   10.8247  -18.6093 C   0  0  0  0  0  0  0  0  0  0  0  0
  -18.9415   10.6053  -17.1130 Cl  0  0  0  0  0  0  0  0  0  0  0  0
  -17.7695   12.1266  -18.9893 C   0  0  0  0  0  0  0  0  0  0  0  0
  -17.1108   12.3019  -20.1345 N   0  0  0  0  0  0  0  0  0  0  0  0
  -16.0291   11.6235  -22.1450 N   0  0  0  0  0  0  0  0  0  0  0  0
  -15.2920   10.9086  -22.4525 H   0  0  0  0  0  0  0  0  0  0  0  0
  -17.5191   14.4673  -24.0745 C   0  0  0  0  0  0  0  0  0  0  0  0
  -17.3992   13.3084  -23.2871 C   0  0  0  0  0  0  0  0  0  0  0  0
  -16.2200   12.7836  -22.9137 C   0  0  0  0  0  0  0  0  0  0  0  0
  -15.0632   13.4493  -23.3469 C   0  0  0  0  0  0  0  0  0  0  0  0
  -15.1610   14.5800  -24.1146 C   0  0  0  0  0  0  0  0  0  0  0  0
  -16.3841   15.1134  -24.4951 C   0  0  0  0  0  0  0  0  0  0  0  0
  -19.2805   16.0650  -23.7102 C   0  0  0  0  0  0  0  0  0  0  0  0
  -18.7611   14.9677  -24.4329 O   0  0  0  0  0  0  0  0  0  0  0  0
  -14.0236   15.2333  -24.5396 O   0  0  0  0  0  0  0  0  0  0  0  0
  -13.5528   14.9965  -25.8498 C   0  0  0  0  0  0  0  0  0  0  0  0
  -16.4837   16.2599  -25.2737 O   0  0  0  0  0  0  0  0  0  0  0  0
  -16.4194   17.5111  -24.6374 C   0  0  0  0  0  0  0  0  0  0  0  0
  -18.1310   13.2373  -18.1990 N   0  0  0  0  0  0  0  0  0  0  0  0
  -17.9713   13.2203  -17.1660 H   0  0  0  0  0  0  0  0  0  0  0  0
  -18.7126   14.3812  -18.8027 C   0  0  0  0  0  0  0  0  0  0  0  0
  -19.7158   14.2327  -19.7743 C   0  0  0  0  0  0  0  0  0  0  0  0
  -20.2637   15.3584  -20.3446 C   0  0  0  0  0  0  0  0  0  0  0  0
  -19.8559   16.6249  -19.9894 C   0  0  0  0  0  0  0  0  0  0  0  0
  -20.3971   17.7686  -20.5539 O   0  0  0  0  0  0  0  0  0  0  0  0
  -19.7557   19.0281  -20.4958 C   0  0  0  0  0  0  0  0  0  0  0  0
  -20.7998   20.1384  -20.5425 C   0  0  0  0  0  0  0  0  0  0  0  0
  -18.7823   19.1468  -21.6332 C   0  0  0  0  0  0  0  0  0  0  0  0
  -18.9904   19.2134  -19.2309 C   0  0  0  0  0  0  0  0  0  0  0  0
  -18.8605   20.3640  -18.7169 O   0  0  0  0  0  0  0  0  0  0  0  0
  -18.4236   18.0528  -18.6417 N   0  0  0  0  0  0  0  0  0  0  0  0
  -18.8641   16.7503  -19.0281 C   0  0  0  0  0  0  0  0  0  0  0  0
  -18.3495   15.6329  -18.4904 N   0  0  0  0  0  0  0  0  0  0  0  0
  -17.6848   18.1540  -17.9258 H   0  0  0  0  0  0  0  0  0  0  0  0
 16 17  1  0  0  0
 17 10  1  0  0  0
 10 11  2  0  0  0
 11 12  1  0  0  0
 12  8  1  0  0  0
  8  1  1  0  0  0
  1  2  2  0  0  0
  2  3  1  0  0  0
  3  4  2  0  0  0
  4  5  1  0  0  0
  4  6  1  0  0  0
  6 22  1  0  0  0
 22 24  1  0  0  0
 24 25  2  0  0  0
 25 26  1  0  0  0
 26 27  2  0  0  0
 27 28  1  0  0  0
 28 29  1  0  0  0
 29 30  1  0  0  0
 29 31  1  0  0  0
 29 32  1  0  0  0
 32 33  2  0  0  0
 32 34  1  0  0  0
 34 35  1  0  0  0
 35 36  2  0  0  0
  6  7  2  0  0  0
 12 13  2  0  0  0
 13 14  1  0  0  0
 14 18  1  0  0  0
 18 19  1  0  0  0
 14 15  2  0  0  0
 15 20  1  0  0  0
 20 21  1  0  0  0
 15 10  1  0  0  0
  7  1  1  0  0  0
 36 24  1  0  0  0
 35 27  1  0  0  0
  8  9  1  0  0  0
 22 23  1  0  0  0
 34 37  1  0  0  0
M  END
> <minimizedAffinity>
-7.27878

> <CNNscore>
0.2628441751

> <CNNaffinity>
7.2572774887

> <CNN_VS>
1.9075331688

> <CNNaffinity_variance>
0.1711232662

$$$$
[H]c1nc(N([H])c2c([H])c(OC([H])([H])[H])c(OC([H])([H])[H])c(OC([H])([H])[H])c2[H])nc(N([H])c2nc3c(c([H])c2[H])OC(C([H])([H])[H])(C([H])([H])[H])C(=O)N3[H])c1Cl


 37 40  0  0  0  0  0  0  0  0999 V2000
  -17.4457   12.1054  -20.5138 C   0  0  0  0  0  0  0  0  0  0  0  0
  -17.1581   11.7858  -21.7658 N   0  0  0  0  0  0  0  0  0  0  0  0
  -16.8929   12.6337  -22.7668 C   0  0  0  0  0  0  0  0  0  0  0  0
  -16.9200   13.9760  -22.4727 C   0  0  0  0  0  0  0  0  0  0  0  0
  -16.5980   15.2046  -23.6615 Cl  0  0  0  0  0  0  0  0  0  0  0  0
  -17.2147   14.3925  -21.1778 C   0  0  0  0  0  0  0  0  0  0  0  0
  -17.4625   13.4565  -20.2621 N   0  0  0  0  0  0  0  0  0  0  0  0
  -17.7288   11.2371  -19.4401 N   0  0  0  0  0  0  0  0  0  0  0  0
  -17.1347   10.3451  -19.4222 H   0  0  0  0  0  0  0  0  0  0  0  0
  -20.4348   12.6498  -17.2694 C   0  0  0  0  0  0  0  0  0  0  0  0
  -19.5021   12.5027  -18.3114 C   0  0  0  0  0  0  0  0  0  0  0  0
  -18.6912   11.4387  -18.4370 C   0  0  0  0  0  0  0  0  0  0  0  0
  -18.8039   10.4361  -17.4619 C   0  0  0  0  0  0  0  0  0  0  0  0
  -19.7073   10.5624  -16.4395 C   0  0  0  0  0  0  0  0  0  0  0  0
  -20.5399   11.6659  -16.3188 C   0  0  0  0  0  0  0  0  0  0  0  0
  -20.6980   14.9665  -16.6767 C   0  0  0  0  0  0  0  0  0  0  0  0
  -21.2484   13.7689  -17.1854 O   0  0  0  0  0  0  0  0  0  0  0  0
  -19.8171    9.5765  -15.4819 O   0  0  0  0  0  0  0  0  0  0  0  0
  -19.0736    8.3867  -15.6423 C   0  0  0  0  0  0  0  0  0  0  0  0
  -21.4560   11.7945  -15.2821 O   0  0  0  0  0  0  0  0  0  0  0  0
  -22.5734   10.9426  -15.2644 C   0  0  0  0  0  0  0  0  0  0  0  0
  -17.2543   15.7582  -20.8284 N   0  0  0  0  0  0  0  0  0  0  0  0
  -16.3741   16.2587  -20.5681 H   0  0  0  0  0  0  0  0  0  0  0  0
  -18.4880   16.4575  -20.8288 C   0  0  0  0  0  0  0  0  0  0  0  0
  -19.1434   16.7318  -19.6173 C   0  0  0  0  0  0  0  0  0  0  0  0
  -20.3391   17.4118  -19.6451 C   0  0  0  0  0  0  0  0  0  0  0  0
  -20.9100   17.8301  -20.8264 C   0  0  0  0  0  0  0  0  0  0  0  0
  -22.1131   18.5156  -20.8720 O   0  0  0  0  0  0  0  0  0  0  0  0
  -22.8916   18.6181  -22.0486 C   0  0  0  0  0  0  0  0  0  0  0  0
  -23.7055   19.9072  -22.0148 C   0  0  0  0  0  0  0  0  0  0  0  0
  -23.7817   17.4143  -22.1660 C   0  0  0  0  0  0  0  0  0  0  0  0
  -22.0514   18.6747  -23.2777 C   0  0  0  0  0  0  0  0  0  0  0  0
  -22.4362   19.3256  -24.2941 O   0  0  0  0  0  0  0  0  0  0  0  0
  -20.8177   17.9727  -23.2509 N   0  0  0  0  0  0  0  0  0  0  0  0
  -20.2470   17.5495  -22.0120 C   0  0  0  0  0  0  0  0  0  0  0  0
  -19.0823   16.8845  -21.9516 N   0  0  0  0  0  0  0  0  0  0  0  0
  -20.3293   17.7672  -24.1385 H   0  0  0  0  0  0  0  0  0  0  0  0
 16 17  1  0  0  0
 17 10  1  0  0  0
 10 11  2  0  0  0
 11 12  1  0  0  0
 12  8  1  0  0  0
  8  1  1  0  0  0
  1  2  2  0  0  0
  2  3  1  0  0  0
  3  4  2  0  0  0
  4  5  1  0  0  0
  4  6  1  0  0  0
  6 22  1  0  0  0
 22 24  1  0  0  0
 24 25  2  0  0  0
 25 26  1  0  0  0
 26 27  2  0  0  0
 27 28  1  0  0  0
 28 29  1  0  0  0
 29 30  1  0  0  0
 29 31  1  0  0  0
 29 32  1  0  0  0
 32 33  2  0  0  0
 32 34  1  0  0  0
 34 35  1  0  0  0
 35 36  2  0  0  0
  6  7  2  0  0  0
 12 13  2  0  0  0
 13 14  1  0  0  0
 14 18  1  0  0  0
 18 19  1  0  0  0
 14 15  2  0  0  0
 15 20  1  0  0  0
 20 21  1  0  0  0
 15 10  1  0  0  0
  7  1  1  0  0  0
 36 24  1  0  0  0
 35 27  1  0  0  0
  8  9  1  0  0  0
 22 23  1  0  0  0
 34 37  1  0  0  0
M  END
> <minimizedAffinity>
-7.24151

> <CNNscore>
0.2032148242

> <CNNaffinity>
6.8709435463

> <CNN_VS>
1.3962775469

> <CNNaffinity_variance>
0.4761324525

$$$$
[H]c1c([H])c([C@]([H])(N([H])[C@]([H])(C(=O)N([H])C2(C#N)C([H])([H])C2([H])[H])C([H])([H])C(F)(C([H])([H])[H])C([H])([H])[H])C(F)(F)F)c([H])c([H])c1-c1c([H])c([H])c(S(=O)(=O)C([H])([H])[H])c([H])c1[H]


 38 40  0  0  0  0  0  0  0  0999 V2000
  -19.3703   14.7182  -18.8038 C   0  0  0  0  0  0  0  0  0  0  0  0
  -19.5253   13.3845  -18.1738 C   0  0  0  0  0  0  0  0  0  0  0  0
  -18.6881   12.3239  -18.4297 C   0  0  0  0  0  0  0  0  0  0  0  0
  -18.8206   11.1246  -17.7496 C   0  0  0  0  0  0  0  0  0  0  0  0
  -19.8043   10.9445  -16.7928 C   0  0  0  0  0  0  0  0  0  0  0  0
  -20.6611   11.9739  -16.5196 C   0  0  0  0  0  0  0  0  0  0  0  0
  -20.5137   13.1713  -17.2020 C   0  0  0  0  0  0  0  0  0  0  0  0
  -19.8053    9.7357  -15.9842 C   0  0  0  0  0  0  0  0  0  0  0  0
  -20.0284    8.4594  -16.4033 C   0  0  0  0  0  0  0  0  0  0  0  0
  -20.0835    7.4199  -15.4857 C   0  0  0  0  0  0  0  0  0  0  0  0
  -19.9164    7.6428  -14.1310 C   0  0  0  0  0  0  0  0  0  0  0  0
  -19.6876    8.9462  -13.7018 C   0  0  0  0  0  0  0  0  0  0  0  0
  -19.6364    9.9534  -14.6102 C   0  0  0  0  0  0  0  0  0  0  0  0
  -19.9890    6.3477  -12.9511 S   0  0  0  0  0  0  0  0  0  0  0  0
  -19.1034    6.8581  -11.4988 C   0  0  0  0  0  0  0  0  0  0  0  0
  -19.2525    5.1549  -13.5590 O   0  0  0  0  0  0  0  0  0  0  0  0
  -21.3817    5.9378  -12.6198 O   0  0  0  0  0  0  0  0  0  0  0  0
  -18.6994   15.6403  -17.8071 C   0  0  0  0  0  0  0  0  0  0  0  0
  -18.1570   14.8798  -16.7448 F   0  0  0  0  0  0  0  0  0  0  0  0
  -19.7195   16.3750  -17.1333 F   0  0  0  0  0  0  0  0  0  0  0  0
  -17.7412   16.4718  -18.1979 F   0  0  0  0  0  0  0  0  0  0  0  0
  -18.7658   14.8008  -20.0530 N   0  0  0  0  0  0  0  0  0  0  0  0
  -18.7357   13.8223  -20.4715 H   0  0  0  0  0  0  0  0  0  0  0  0
  -19.4322   15.5844  -21.0966 C   0  0  0  0  0  0  0  0  0  0  0  0
  -18.4886   15.0480  -22.2506 C   0  0  0  0  0  0  0  0  0  0  0  0
  -18.4964   15.7105  -23.2726 O   0  0  0  0  0  0  0  0  0  0  0  0
  -17.7904   13.8914  -22.0256 N   0  0  0  0  0  0  0  0  0  0  0  0
  -17.9396   13.5373  -20.9528 H   0  0  0  0  0  0  0  0  0  0  0  0
  -16.9377   13.0016  -22.6601 C   0  0  0  0  0  0  0  0  0  0  0  0
  -16.8169   12.7334  -24.1409 C   0  0  0  0  0  0  0  0  0  0  0  0
  -15.7483   13.4995  -23.4278 C   0  0  0  0  0  0  0  0  0  0  0  0
  -16.6206   11.7870  -21.8243 C   0  0  0  0  0  0  0  0  0  0  0  0
  -16.3510   10.8636  -21.1795 N   0  0  0  0  0  0  0  0  0  0  0  0
  -19.4026   17.0317  -21.0607 C   0  0  0  0  0  0  0  0  0  0  0  0
  -20.6565   19.0774  -20.8516 C   0  0  0  0  0  0  0  0  0  0  0  0
  -20.7993   17.6416  -21.3392 C   0  0  0  0  0  0  0  0  0  0  0  0
  -21.7973   16.9753  -20.4082 C   0  0  0  0  0  0  0  0  0  0  0  0
  -21.1519   17.6533  -22.6370 F   0  0  0  0  0  0  0  0  0  0  0  0
 35 36  1  0  0  0
 36 37  1  0  0  0
 36 38  1  0  0  0
 36 34  1  0  0  0
 34 24  1  0  0  0
 24 22  1  0  0  0
 22  1  1  0  0  0
  1  2  1  0  0  0
  2  3  2  0  0  0
  3  4  1  0  0  0
  4  5  2  0  0  0
  5  6  1  0  0  0
  6  7  2  0  0  0
  5  8  1  0  0  0
  8  9  2  0  0  0
  9 10  1  0  0  0
 10 11  2  0  0  0
 11 12  1  0  0  0
 12 13  2  0  0  0
 11 14  1  0  0  0
 14 15  1  0  0  0
 14 16  2  0  0  0
 14 17  2  0  0  0
  1 18  1  0  0  0
 18 19  1  0  0  0
 18 20  1  0  0  0
 18 21  1  0  0  0
 24 25  1  0  0  0
 25 26  2  0  0  0
 25 27  1  0  0  0
 27 29  1  0  0  0
 29 30  1  0  0  0
 30 31  1  0  0  0
 29 32  1  0  0  0
 32 33  3  0  0  0
  7  2  1  0  0  0
 13  8  1  0  0  0
 31 29  1  0  0  0
 22 23  1  0  0  0
 27 28  1  0  0  0
M  END
> <minimizedAffinity>
-6.72910

> <CNNscore>
0.3005941212

> <CNNaffinity>
6.5958986282

> <CNN_VS>
1.9826883078

> <CNNaffinity_variance>
0.4049126506

$$$$
[H]c1c([H])c([C@]([H])(N([H])[C@]([H])(C(=O)N([H])C2(C#N)C([H])([H])C2([H])[H])C([H])([H])C(F)(C([H])([H])[H])C([H])([H])[H])C(F)(F)F)c([H])c([H])c1-c1c([H])c([H])c(S(=O)(=O)C([H])([H])[H])c([H])c1[H]


 38 40  0  0  0  0  0  0  0  0999 V2000
  -17.0906   11.9627  -20.4242 C   0  0  0  0  0  0  0  0  0  0  0  0
  -17.8936   11.5407  -19.2509 C   0  0  0  0  0  0  0  0  0  0  0  0
  -18.9222   12.2892  -18.7283 C   0  0  0  0  0  0  0  0  0  0  0  0
  -19.7001   11.8115  -17.6865 C   0  0  0  0  0  0  0  0  0  0  0  0
  -19.4678   10.5673  -17.1265 C   0  0  0  0  0  0  0  0  0  0  0  0
  -18.4469    9.7999  -17.6139 C   0  0  0  0  0  0  0  0  0  0  0  0
  -17.6803   10.2864  -18.6613 C   0  0  0  0  0  0  0  0  0  0  0  0
  -20.4067   10.0325  -16.1531 C   0  0  0  0  0  0  0  0  0  0  0  0
  -20.3291    8.8429  -15.4948 C   0  0  0  0  0  0  0  0  0  0  0  0
  -21.3590    8.4362  -14.6585 C   0  0  0  0  0  0  0  0  0  0  0  0
  -22.4855    9.2156  -14.4684 C   0  0  0  0  0  0  0  0  0  0  0  0
  -22.5655   10.4314  -15.1399 C   0  0  0  0  0  0  0  0  0  0  0  0
  -21.5509   10.8168  -15.9550 C   0  0  0  0  0  0  0  0  0  0  0  0
  -23.8034    8.7207  -13.4230 S   0  0  0  0  0  0  0  0  0  0  0  0
  -25.3243    9.3346  -14.1043 C   0  0  0  0  0  0  0  0  0  0  0  0
  -23.5788    9.4051  -12.0755 O   0  0  0  0  0  0  0  0  0  0  0  0
  -23.8598    7.2475  -13.2132 O   0  0  0  0  0  0  0  0  0  0  0  0
  -16.3566   10.7507  -20.9592 C   0  0  0  0  0  0  0  0  0  0  0  0
  -15.2718   10.4363  -20.1075 F   0  0  0  0  0  0  0  0  0  0  0  0
  -15.6743   11.1409  -22.1495 F   0  0  0  0  0  0  0  0  0  0  0  0
  -17.0041    9.6120  -21.1745 F   0  0  0  0  0  0  0  0  0  0  0  0
  -17.7194   12.6633  -21.4472 N   0  0  0  0  0  0  0  0  0  0  0  0
  -18.6211   13.0762  -21.0599 H   0  0  0  0  0  0  0  0  0  0  0  0
  -17.0376   13.8320  -22.0098 C   0  0  0  0  0  0  0  0  0  0  0  0
  -18.0717   14.8634  -21.3963 C   0  0  0  0  0  0  0  0  0  0  0  0
  -18.9356   15.2461  -22.1649 O   0  0  0  0  0  0  0  0  0  0  0  0
  -17.8910   15.2610  -20.0982 N   0  0  0  0  0  0  0  0  0  0  0  0
  -17.0349   14.6816  -19.6187 H   0  0  0  0  0  0  0  0  0  0  0  0
  -18.4124   16.1265  -19.1492 C   0  0  0  0  0  0  0  0  0  0  0  0
  -19.5917   15.8945  -18.2356 C   0  0  0  0  0  0  0  0  0  0  0  0
  -18.2009   15.8717  -17.6855 C   0  0  0  0  0  0  0  0  0  0  0  0
  -18.2408   17.5794  -19.5151 C   0  0  0  0  0  0  0  0  0  0  0  0
  -18.0891   18.6879  -19.8141 N   0  0  0  0  0  0  0  0  0  0  0  0
  -16.9469   14.0101  -23.4440 C   0  0  0  0  0  0  0  0  0  0  0  0
  -16.3965   15.7373  -25.0299 C   0  0  0  0  0  0  0  0  0  0  0  0
  -15.8185   14.9992  -23.8295 C   0  0  0  0  0  0  0  0  0  0  0  0
  -14.6442   14.1915  -24.3541 C   0  0  0  0  0  0  0  0  0  0  0  0
  -15.5119   15.8930  -22.8724 F   0  0  0  0  0  0  0  0  0  0  0  0
 35 36  1  0  0  0
 36 37  1  0  0  0
 36 38  1  0  0  0
 36 34  1  0  0  0
 34 24  1  0  0  0
 24 22  1  0  0  0
 22  1  1  0  0  0
  1  2  1  0  0  0
  2  3  2  0  0  0
  3  4  1  0  0  0
  4  5  2  0  0  0
  5  6  1  0  0  0
  6  7  2  0  0  0
  5  8  1  0  0  0
  8  9  2  0  0  0
  9 10  1  0  0  0
 10 11  2  0  0  0
 11 12  1  0  0  0
 12 13  2  0  0  0
 11 14  1  0  0  0
 14 15  1  0  0  0
 14 16  2  0  0  0
 14 17  2  0  0  0
  1 18  1  0  0  0
 18 19  1  0  0  0
 18 20  1  0  0  0
 18 21  1  0  0  0
 24 25  1  0  0  0
 25 26  2  0  0  0
 25 27  1  0  0  0
 27 29  1  0  0  0
 29 30  1  0  0  0
 30 31  1  0  0  0
 29 32  1  0  0  0
 32 33  3  0  0  0
  7  2  1  0  0  0
 13  8  1  0  0  0
 31 29  1  0  0  0
 22 23  1  0  0  0
 27 28  1  0  0  0
M  END
> <minimizedAffinity>
-8.27106

> <CNNscore>
0.2368038297

> <CNNaffinity>
6.4234085083

> <CNN_VS>
1.5210877657

> <CNNaffinity_variance>
0.3345243335

$$$$
[H]c1c([H])c([C@]([H])(N([H])[C@]([H])(C(=O)N([H])C2(C#N)C([H])([H])C2([H])[H])C([H])([H])C(F)(C([H])([H])[H])C([H])([H])[H])C(F)(F)F)c([H])c([H])c1-c1c([H])c([H])c(S(=O)(=O)C([H])([H])[H])c([H])c1[H]


 38 40  0  0  0  0  0  0  0  0999 V2000
  -17.2264   11.7296  -20.1012 C   0  0  0  0  0  0  0  0  0  0  0  0
  -18.0364   11.3005  -18.9353 C   0  0  0  0  0  0  0  0  0  0  0  0
  -18.9556   12.1115  -18.3119 C   0  0  0  0  0  0  0  0  0  0  0  0
  -19.7511   11.6357  -17.2826 C   0  0  0  0  0  0  0  0  0  0  0  0
  -19.6466   10.3296  -16.8368 C   0  0  0  0  0  0  0  0  0  0  0  0
  -18.7362    9.4977  -17.4265 C   0  0  0  0  0  0  0  0  0  0  0  0
  -17.9510    9.9838  -18.4602 C   0  0  0  0  0  0  0  0  0  0  0  0
  -20.6107    9.8213  -15.8740 C   0  0  0  0  0  0  0  0  0  0  0  0
  -20.4803    8.7310  -15.0685 C   0  0  0  0  0  0  0  0  0  0  0  0
  -21.5350    8.3241  -14.2637 C   0  0  0  0  0  0  0  0  0  0  0  0
  -22.7395    9.0035  -14.2534 C   0  0  0  0  0  0  0  0  0  0  0  0
  -22.8735   10.1180  -15.0753 C   0  0  0  0  0  0  0  0  0  0  0  0
  -21.8339   10.5047  -15.8575 C   0  0  0  0  0  0  0  0  0  0  0  0
  -24.0893    8.5051  -13.2513 S   0  0  0  0  0  0  0  0  0  0  0  0
  -24.0401    9.4325  -11.7375 C   0  0  0  0  0  0  0  0  0  0  0  0
  -23.8662    7.0323  -12.9108 O   0  0  0  0  0  0  0  0  0  0  0  0
  -25.4058    8.6495  -13.9321 O   0  0  0  0  0  0  0  0  0  0  0  0
  -16.2047   10.6506  -20.3938 C   0  0  0  0  0  0  0  0  0  0  0  0
  -15.2088   10.6524  -19.3892 F   0  0  0  0  0  0  0  0  0  0  0  0
  -15.4519   11.0568  -21.5352 F   0  0  0  0  0  0  0  0  0  0  0  0
  -16.5832    9.3868  -20.5415 F   0  0  0  0  0  0  0  0  0  0  0  0
  -17.8824   12.1299  -21.2597 N   0  0  0  0  0  0  0  0  0  0  0  0
  -18.8595   11.7070  -21.2497 H   0  0  0  0  0  0  0  0  0  0  0  0
  -18.1446   13.5589  -21.4509 C   0  0  0  0  0  0  0  0  0  0  0  0
  -17.3691   13.6251  -22.8307 C   0  0  0  0  0  0  0  0  0  0  0  0
  -17.3681   12.5894  -23.4717 O   0  0  0  0  0  0  0  0  0  0  0  0
  -16.7453   14.7983  -23.1628 N   0  0  0  0  0  0  0  0  0  0  0  0
  -16.9784   15.6060  -22.3935 H   0  0  0  0  0  0  0  0  0  0  0  0
  -15.9306   15.3522  -24.1381 C   0  0  0  0  0  0  0  0  0  0  0  0
  -14.4494   15.1378  -24.3362 C   0  0  0  0  0  0  0  0  0  0  0  0
  -15.4300   14.5165  -25.2795 C   0  0  0  0  0  0  0  0  0  0  0  0
  -16.3808   16.7228  -24.5774 C   0  0  0  0  0  0  0  0  0  0  0  0
  -16.7056   17.7759  -24.9333 N   0  0  0  0  0  0  0  0  0  0  0  0
  -17.6043   14.5351  -20.5280 C   0  0  0  0  0  0  0  0  0  0  0  0
  -18.1774   16.2324  -18.9180 C   0  0  0  0  0  0  0  0  0  0  0  0
  -18.5922   15.7035  -20.2848 C   0  0  0  0  0  0  0  0  0  0  0  0
  -19.9813   15.1155  -20.1077 C   0  0  0  0  0  0  0  0  0  0  0  0
  -18.5066   16.7000  -21.1839 F   0  0  0  0  0  0  0  0  0  0  0  0
 35 36  1  0  0  0
 36 37  1  0  0  0
 36 38  1  0  0  0
 36 34  1  0  0  0
 34 24  1  0  0  0
 24 22  1  0  0  0
 22  1  1  0  0  0
  1  2  1  0  0  0
  2  3  2  0  0  0
  3  4  1  0  0  0
  4  5  2  0  0  0
  5  6  1  0  0  0
  6  7  2  0  0  0
  5  8  1  0  0  0
  8  9  2  0  0  0
  9 10  1  0  0  0
 10 11  2  0  0  0
 11 12  1  0  0  0
 12 13  2  0  0  0
 11 14  1  0  0  0
 14 15  1  0  0  0
 14 16  2  0  0  0
 14 17  2  0  0  0
  1 18  1  0  0  0
 18 19  1  0  0  0
 18 20  1  0  0  0
 18 21  1  0  0  0
 24 25  1  0  0  0
 25 26  2  0  0  0
 25 27  1  0  0  0
 27 29  1  0  0  0
 29 30  1  0  0  0
 30 31  1  0  0  0
 29 32  1  0  0  0
 32 33  3  0  0  0
  7  2  1  0  0  0
 13  8  1  0  0  0
 31 29  1  0  0  0
 22 23  1  0  0  0
 27 28  1  0  0  0
M  END
> <minimizedAffinity>
-8.49086

> <CNNscore>
0.2297264785

> <CNNaffinity>
6.4644255638

> <CNN_VS>
1.4850497246

> <CNNaffinity_variance>
0.2628020346

$$$$
[H]c1c([H])c([C@]([H])(N([H])[C@]([H])(C(=O)N([H])C2(C#N)C([H])([H])C2([H])[H])C([H])([H])C(F)(C([H])([H])[H])C([H])([H])[H])C(F)(F)F)c([H])c([H])c1-c1c([H])c([H])c(S(=O)(=O)C([H])([H])[H])c([H])c1[H]


 38 40  0  0  0  0  0  0  0  0999 V2000
  -17.5599   12.0759  -19.8628 C   0  0  0  0  0  0  0  0  0  0  0  0
  -18.2379   11.2926  -18.8016 C   0  0  0  0  0  0  0  0  0  0  0  0
  -17.8578   10.0218  -18.4381 C   0  0  0  0  0  0  0  0  0  0  0  0
  -18.4660    9.3657  -17.3807 C   0  0  0  0  0  0  0  0  0  0  0  0
  -19.4838    9.9594  -16.6547 C   0  0  0  0  0  0  0  0  0  0  0  0
  -19.8947   11.2181  -16.9944 C   0  0  0  0  0  0  0  0  0  0  0  0
  -19.2733   11.8668  -18.0501 C   0  0  0  0  0  0  0  0  0  0  0  0
  -19.9796    9.3099  -15.4516 C   0  0  0  0  0  0  0  0  0  0  0  0
  -20.7550    8.1932  -15.3732 C   0  0  0  0  0  0  0  0  0  0  0  0
  -21.2209    7.7484  -14.1441 C   0  0  0  0  0  0  0  0  0  0  0  0
  -20.9177    8.4166  -12.9719 C   0  0  0  0  0  0  0  0  0  0  0  0
  -20.1249    9.5572  -13.0508 C   0  0  0  0  0  0  0  0  0  0  0  0
  -19.6762    9.9812  -14.2595 C   0  0  0  0  0  0  0  0  0  0  0  0
  -21.5002    7.8791  -11.4079 S   0  0  0  0  0  0  0  0  0  0  0  0
  -20.6170    8.7605  -10.1441 C   0  0  0  0  0  0  0  0  0  0  0  0
  -21.1431    6.3982  -11.2888 O   0  0  0  0  0  0  0  0  0  0  0  0
  -22.9726    8.0353  -11.2486 O   0  0  0  0  0  0  0  0  0  0  0  0
  -16.6594   11.1408  -20.6428 C   0  0  0  0  0  0  0  0  0  0  0  0
  -16.2410   11.7697  -21.8389 F   0  0  0  0  0  0  0  0  0  0  0  0
  -17.4644   10.0789  -21.1515 F   0  0  0  0  0  0  0  0  0  0  0  0
  -15.5657   10.6370  -20.0840 F   0  0  0  0  0  0  0  0  0  0  0  0
  -18.3331   12.8573  -20.7139 N   0  0  0  0  0  0  0  0  0  0  0  0
  -19.3385   12.5111  -20.6589 H   0  0  0  0  0  0  0  0  0  0  0  0
  -18.4611   14.2871  -20.4194 C   0  0  0  0  0  0  0  0  0  0  0  0
  -17.4795   14.7233  -21.5839 C   0  0  0  0  0  0  0  0  0  0  0  0
  -16.5079   15.3646  -21.2259 O   0  0  0  0  0  0  0  0  0  0  0  0
  -17.8154   14.3873  -22.8685 N   0  0  0  0  0  0  0  0  0  0  0  0
  -18.7484   13.7331  -22.8791 H   0  0  0  0  0  0  0  0  0  0  0  0
  -17.3922   14.5583  -24.1774 C   0  0  0  0  0  0  0  0  0  0  0  0
  -16.5095   13.6425  -24.9904 C   0  0  0  0  0  0  0  0  0  0  0  0
  -17.9740   13.7266  -25.2827 C   0  0  0  0  0  0  0  0  0  0  0  0
  -17.2347   16.0074  -24.5642 C   0  0  0  0  0  0  0  0  0  0  0  0
  -17.0865   17.1157  -24.8659 N   0  0  0  0  0  0  0  0  0  0  0  0
  -18.0018   14.8208  -19.1541 C   0  0  0  0  0  0  0  0  0  0  0  0
  -18.8977   15.5208  -17.0308 C   0  0  0  0  0  0  0  0  0  0  0  0
  -19.0421   15.7809  -18.5245 C   0  0  0  0  0  0  0  0  0  0  0  0
  -20.4273   15.2901  -18.9080 C   0  0  0  0  0  0  0  0  0  0  0  0
  -18.8132   17.0840  -18.7659 F   0  0  0  0  0  0  0  0  0  0  0  0
 35 36  1  0  0  0
 36 37  1  0  0  0
 36 38  1  0  0  0
 36 34  1  0  0  0
 34 24  1  0  0  0
 24 22  1  0  0  0
 22  1  1  0  0  0
  1  2  1  0  0  0
  2  3  2  0  0  0
  3  4  1  0  0  0
  4  5  2  0  0  0
  5  6  1  0  0  0
  6  7  2  0  0  0
  5  8  1  0  0  0
  8  9  2  0  0  0
  9 10  1  0  0  0
 10 11  2  0  0  0
 11 12  1  0  0  0
 12 13  2  0  0  0
 11 14  1  0  0  0
 14 15  1  0  0  0
 14 16  2  0  0  0
 14 17  2  0  0  0
  1 18  1  0  0  0
 18 19  1  0  0  0
 18 20  1  0  0  0
 18 21  1  0  0  0
 24 25  1  0  0  0
 25 26  2  0  0  0
 25 27  1  0  0  0
 27 29  1  0  0  0
 29 30  1  0  0  0
 30 31  1  0  0  0
 29 32  1  0  0  0
 32 33  3  0  0  0
  7  2  1  0  0  0
 13  8  1  0  0  0
 31 29  1  0  0  0
 22 23  1  0  0  0
 27 28  1  0  0  0
M  END
> <minimizedAffinity>
-7.87765

> <CNNscore>
0.2260499895

> <CNNaffinity>
6.3372907639

> <CNN_VS>
1.4325444698

> <CNNaffinity_variance>
0.3317866325

$$$$
[H]c1c([H])c([C@]([H])(N([H])[C@]([H])(C(=O)N([H])C2(C#N)C([H])([H])C2([H])[H])C([H])([H])C(F)(C([H])([H])[H])C([H])([H])[H])C(F)(F)F)c([H])c([H])c1-c1c([H])c([H])c(S(=O)(=O)C([H])([H])[H])c([H])c1[H]


 38 40  0  0  0  0  0  0  0  0999 V2000
  -17.4498   11.9930  -19.8749 C   0  0  0  0  0  0  0  0  0  0  0  0
  -18.1690   11.3732  -18.7355 C   0  0  0  0  0  0  0  0  0  0  0  0
  -19.2469   11.9572  -18.1122 C   0  0  0  0  0  0  0  0  0  0  0  0
  -19.9401   11.2985  -17.1102 C   0  0  0  0  0  0  0  0  0  0  0  0
  -19.5708   10.0317  -16.6924 C   0  0  0  0  0  0  0  0  0  0  0  0
  -18.4977    9.4246  -17.2825 C   0  0  0  0  0  0  0  0  0  0  0  0
  -17.8166   10.0914  -18.2889 C   0  0  0  0  0  0  0  0  0  0  0  0
  -20.4210    9.3077  -15.7608 C   0  0  0  0  0  0  0  0  0  0  0  0
  -21.3321    9.8299  -14.8940 C   0  0  0  0  0  0  0  0  0  0  0  0
  -22.0041    9.0056  -14.0026 C   0  0  0  0  0  0  0  0  0  0  0  0
  -21.7732    7.6426  -13.9647 C   0  0  0  0  0  0  0  0  0  0  0  0
  -20.8432    7.1078  -14.8505 C   0  0  0  0  0  0  0  0  0  0  0  0
  -20.1931    7.9257  -15.7168 C   0  0  0  0  0  0  0  0  0  0  0  0
  -22.6037    6.5811  -12.8431 S   0  0  0  0  0  0  0  0  0  0  0  0
  -22.3900    4.9050  -13.3900 C   0  0  0  0  0  0  0  0  0  0  0  0
  -24.0907    6.9213  -12.9319 O   0  0  0  0  0  0  0  0  0  0  0  0
  -22.1522    6.7527  -11.4345 O   0  0  0  0  0  0  0  0  0  0  0  0
  -16.5521   10.9444  -20.4981 C   0  0  0  0  0  0  0  0  0  0  0  0
  -16.0281   11.4304  -21.7189 F   0  0  0  0  0  0  0  0  0  0  0  0
  -17.3779    9.8745  -20.9540 F   0  0  0  0  0  0  0  0  0  0  0  0
  -15.5229   10.4501  -19.8208 F   0  0  0  0  0  0  0  0  0  0  0  0
  -18.1859   12.6662  -20.8432 N   0  0  0  0  0  0  0  0  0  0  0  0
  -19.1968   12.3386  -20.7775 H   0  0  0  0  0  0  0  0  0  0  0  0
  -18.3048   14.1229  -20.7372 C   0  0  0  0  0  0  0  0  0  0  0  0
  -17.3703   14.3965  -21.9868 C   0  0  0  0  0  0  0  0  0  0  0  0
  -16.5732   15.3065  -21.8449 O   0  0  0  0  0  0  0  0  0  0  0  0
  -17.5572   13.6345  -23.1094 N   0  0  0  0  0  0  0  0  0  0  0  0
  -18.3333   12.8228  -22.9163 H   0  0  0  0  0  0  0  0  0  0  0  0
  -17.1055   13.4996  -24.4130 C   0  0  0  0  0  0  0  0  0  0  0  0
  -17.6791   12.6284  -25.5044 C   0  0  0  0  0  0  0  0  0  0  0  0
  -17.8670   14.1115  -25.5521 C   0  0  0  0  0  0  0  0  0  0  0  0
  -15.6150   13.6870  -24.5456 C   0  0  0  0  0  0  0  0  0  0  0  0
  -14.4727   13.8271  -24.6750 N   0  0  0  0  0  0  0  0  0  0  0  0
  -17.7974   14.8189  -19.5733 C   0  0  0  0  0  0  0  0  0  0  0  0
  -18.8065   16.9881  -19.2949 C   0  0  0  0  0  0  0  0  0  0  0  0
  -18.9261   15.5510  -18.8048 C   0  0  0  0  0  0  0  0  0  0  0  0
  -18.5546   15.5733  -17.3324 C   0  0  0  0  0  0  0  0  0  0  0  0
  -20.1643   15.0991  -19.0724 F   0  0  0  0  0  0  0  0  0  0  0  0
 35 36  1  0  0  0
 36 37  1  0  0  0
 36 38  1  0  0  0
 36 34  1  0  0  0
 34 24  1  0  0  0
 24 22  1  0  0  0
 22  1  1  0  0  0
  1  2  1  0  0  0
  2  3  2  0  0  0
  3  4  1  0  0  0
  4  5  2  0  0  0
  5  6  1  0  0  0
  6  7  2  0  0  0
  5  8  1  0  0  0
  8  9  2  0  0  0
  9 10  1  0  0  0
 10 11  2  0  0  0
 11 12  1  0  0  0
 12 13  2  0  0  0
 11 14  1  0  0  0
 14 15  1  0  0  0
 14 16  2  0  0  0
 14 17  2  0  0  0
  1 18  1  0  0  0
 18 19  1  0  0  0
 18 20  1  0  0  0
 18 21  1  0  0  0
 24 25  1  0  0  0
 25 26  2  0  0  0
 25 27  1  0  0  0
 27 29  1  0  0  0
 29 30  1  0  0  0
 30 31  1  0  0  0
 29 32  1  0  0  0
 32 33  3  0  0  0
  7  2  1  0  0  0
 13  8  1  0  0  0
 31 29  1  0  0  0
 22 23  1  0  0  0
 27 28  1  0  0  0
M  END
> <minimizedAffinity>
-8.26235

> <CNNscore>
0.2168036401

> <CNNaffinity>
6.3877954483

> <CNN_VS>
1.3848973513

> <CNNaffinity_variance>
0.3308041990

$$$$
[H]c1c([H])c([C@]([H])(N([H])[C@]([H])(C(=O)N([H])C2(C#N)C([H])([H])C2([H])[H])C([H])([H])C(F)(C([H])([H])[H])C([H])([H])[H])C(F)(F)F)c([H])c([H])c1-c1c([H])c([H])c(S(=O)(=O)C([H])([H])[H])c([H])c1[H]


 38 40  0  0  0  0  0  0  0  0999 V2000
  -17.2752   11.7709  -20.2558 C   0  0  0  0  0  0  0  0  0  0  0  0
  -18.0416   11.2076  -19.1179 C   0  0  0  0  0  0  0  0  0  0  0  0
  -17.8004    9.9632  -18.5842 C   0  0  0  0  0  0  0  0  0  0  0  0
  -18.4840    9.5175  -17.4650 C   0  0  0  0  0  0  0  0  0  0  0  0
  -19.4407   10.3029  -16.8457 C   0  0  0  0  0  0  0  0  0  0  0  0
  -19.7139   11.5417  -17.3549 C   0  0  0  0  0  0  0  0  0  0  0  0
  -19.0180   11.9789  -18.4711 C   0  0  0  0  0  0  0  0  0  0  0  0
  -20.0131    9.8714  -15.5804 C   0  0  0  0  0  0  0  0  0  0  0  0
  -21.1452   10.3356  -14.9826 C   0  0  0  0  0  0  0  0  0  0  0  0
  -21.5108    9.8796  -13.7241 C   0  0  0  0  0  0  0  0  0  0  0  0
  -20.7465    8.9501  -13.0426 C   0  0  0  0  0  0  0  0  0  0  0  0
  -19.5901    8.4745  -13.6526 C   0  0  0  0  0  0  0  0  0  0  0  0
  -19.2443    8.9293  -14.8838 C   0  0  0  0  0  0  0  0  0  0  0  0
  -21.1829    8.3638  -11.4487 S   0  0  0  0  0  0  0  0  0  0  0  0
  -22.2806    6.9806  -11.6380 C   0  0  0  0  0  0  0  0  0  0  0  0
  -21.9544    9.4888  -10.7605 O   0  0  0  0  0  0  0  0  0  0  0  0
  -20.0018    8.0074  -10.6147 O   0  0  0  0  0  0  0  0  0  0  0  0
  -16.2986   10.7191  -20.7391 C   0  0  0  0  0  0  0  0  0  0  0  0
  -15.2562   10.5671  -19.7948 F   0  0  0  0  0  0  0  0  0  0  0  0
  -15.5902   11.2571  -21.8540 F   0  0  0  0  0  0  0  0  0  0  0  0
  -16.7182    9.4942  -21.0318 F   0  0  0  0  0  0  0  0  0  0  0  0
  -17.9732   12.3361  -21.3170 N   0  0  0  0  0  0  0  0  0  0  0  0
  -18.9822   12.0003  -21.2657 H   0  0  0  0  0  0  0  0  0  0  0  0
  -18.1136   13.7941  -21.3581 C   0  0  0  0  0  0  0  0  0  0  0  0
  -17.4763   13.9212  -22.8029 C   0  0  0  0  0  0  0  0  0  0  0  0
  -17.5172   12.9065  -23.4753 O   0  0  0  0  0  0  0  0  0  0  0  0
  -16.9103   15.1181  -23.1537 N   0  0  0  0  0  0  0  0  0  0  0  0
  -17.0837   15.8957  -22.3390 H   0  0  0  0  0  0  0  0  0  0  0  0
  -16.2045   15.7205  -24.1835 C   0  0  0  0  0  0  0  0  0  0  0  0
  -16.7518   16.2859  -25.4719 C   0  0  0  0  0  0  0  0  0  0  0  0
  -16.2762   17.2049  -24.3919 C   0  0  0  0  0  0  0  0  0  0  0  0
  -14.8047   15.1809  -24.3368 C   0  0  0  0  0  0  0  0  0  0  0  0
  -13.7253   14.7848  -24.4752 N   0  0  0  0  0  0  0  0  0  0  0  0
  -17.3923   14.6286  -20.4199 C   0  0  0  0  0  0  0  0  0  0  0  0
  -17.3382   17.0124  -20.0796 C   0  0  0  0  0  0  0  0  0  0  0  0
  -18.2595   15.8104  -19.9182 C   0  0  0  0  0  0  0  0  0  0  0  0
  -18.4717   15.6368  -18.4244 C   0  0  0  0  0  0  0  0  0  0  0  0
  -19.3804   16.0193  -20.6316 F   0  0  0  0  0  0  0  0  0  0  0  0
 35 36  1  0  0  0
 36 37  1  0  0  0
 36 38  1  0  0  0
 36 34  1  0  0  0
 34 24  1  0  0  0
 24 22  1  0  0  0
 22  1  1  0  0  0
  1  2  1  0  0  0
  2  3  2  0  0  0
  3  4  1  0  0  0
  4  5  2  0  0  0
  5  6  1  0  0  0
  6  7  2  0  0  0
  5  8  1  0  0  0
  8  9  2  0  0  0
  9 10  1  0  0  0
 10 11  2  0  0  0
 11 12  1  0  0  0
 12 13  2  0  0  0
 11 14  1  0  0  0
 14 15  1  0  0  0
 14 16  2  0  0  0
 14 17  2  0  0  0
  1 18  1  0  0  0
 18 19  1  0  0  0
 18 20  1  0  0  0
 18 21  1  0  0  0
 24 25  1  0  0  0
 25 26  2  0  0  0
 25 27  1  0  0  0
 27 29  1  0  0  0
 29 30  1  0  0  0
 30 31  1  0  0  0
 29 32  1  0  0  0
 32 33  3  0  0  0
  7  2  1  0  0  0
 13  8  1  0  0  0
 31 29  1  0  0  0
 22 23  1  0  0  0
 27 28  1  0  0  0
M  END
> <minimizedAffinity>
-7.90307

> <CNNscore>
0.2092241794

> <CNNaffinity>
6.4020385742

> <CNN_VS>
1.3394613266

> <CNNaffinity_variance>
0.3176212907

$$$$
[H]c1c([H])c([C@]([H])(N([H])[C@]([H])(C(=O)N([H])C2(C#N)C([H])([H])C2([H])[H])C([H])([H])C(F)(C([H])([H])[H])C([H])([H])[H])C(F)(F)F)c([H])c([H])c1-c1c([H])c([H])c(S(=O)(=O)C([H])([H])[H])c([H])c1[H]


 38 40  0  0  0  0  0  0  0  0999 V2000
  -17.4066   14.0109  -22.4688 C   0  0  0  0  0  0  0  0  0  0  0  0
  -17.8272   13.3500  -21.2095 C   0  0  0  0  0  0  0  0  0  0  0  0
  -19.0468   13.5655  -20.6116 C   0  0  0  0  0  0  0  0  0  0  0  0
  -19.4284   12.8576  -19.4839 C   0  0  0  0  0  0  0  0  0  0  0  0
  -18.5951   11.9125  -18.9110 C   0  0  0  0  0  0  0  0  0  0  0  0
  -17.3709   11.6793  -19.4726 C   0  0  0  0  0  0  0  0  0  0  0  0
  -17.0036   12.3893  -20.6050 C   0  0  0  0  0  0  0  0  0  0  0  0
  -19.0960   11.0738  -17.8338 C   0  0  0  0  0  0  0  0  0  0  0  0
  -20.0102   11.4075  -16.8813 C   0  0  0  0  0  0  0  0  0  0  0  0
  -20.3178   10.5171  -15.8625 C   0  0  0  0  0  0  0  0  0  0  0  0
  -19.7130    9.2761  -15.7808 C   0  0  0  0  0  0  0  0  0  0  0  0
  -18.7795    8.9337  -16.7538 C   0  0  0  0  0  0  0  0  0  0  0  0
  -18.4880    9.8144  -17.7446 C   0  0  0  0  0  0  0  0  0  0  0  0
  -20.0790    8.1364  -14.4995 S   0  0  0  0  0  0  0  0  0  0  0  0
  -19.0534    8.5138  -13.0996 C   0  0  0  0  0  0  0  0  0  0  0  0
  -19.6859    6.7524  -15.0140 O   0  0  0  0  0  0  0  0  0  0  0  0
  -21.5205    8.1215  -14.1262 O   0  0  0  0  0  0  0  0  0  0  0  0
  -17.3841   12.9696  -23.5683 C   0  0  0  0  0  0  0  0  0  0  0  0
  -16.0605   12.8018  -24.0385 F   0  0  0  0  0  0  0  0  0  0  0  0
  -18.0202   13.5290  -24.7158 F   0  0  0  0  0  0  0  0  0  0  0  0
  -17.8600   11.7496  -23.3504 F   0  0  0  0  0  0  0  0  0  0  0  0
  -18.0753   15.1596  -22.8762 N   0  0  0  0  0  0  0  0  0  0  0  0
  -18.9990   15.2094  -22.3490 H   0  0  0  0  0  0  0  0  0  0  0  0
  -17.4622   16.4591  -22.5888 C   0  0  0  0  0  0  0  0  0  0  0  0
  -16.9540   16.6674  -24.0748 C   0  0  0  0  0  0  0  0  0  0  0  0
  -17.5619   17.5067  -24.7146 O   0  0  0  0  0  0  0  0  0  0  0  0
  -15.9261   15.8792  -24.5199 N   0  0  0  0  0  0  0  0  0  0  0  0
  -15.5223   15.2334  -23.6722 H   0  0  0  0  0  0  0  0  0  0  0  0
  -15.1867   15.6076  -25.6605 C   0  0  0  0  0  0  0  0  0  0  0  0
  -13.9562   16.3275  -26.1573 C   0  0  0  0  0  0  0  0  0  0  0  0
  -13.8358   14.9620  -25.5588 C   0  0  0  0  0  0  0  0  0  0  0  0
  -16.0174   15.0391  -26.7834 C   0  0  0  0  0  0  0  0  0  0  0  0
  -16.6727   14.6243  -27.6434 N   0  0  0  0  0  0  0  0  0  0  0  0
  -16.3528   16.5597  -21.6638 C   0  0  0  0  0  0  0  0  0  0  0  0
  -17.3229   16.6454  -19.4609 C   0  0  0  0  0  0  0  0  0  0  0  0
  -16.6606   17.5378  -20.5023 C   0  0  0  0  0  0  0  0  0  0  0  0
  -17.7320   18.5054  -20.9740 C   0  0  0  0  0  0  0  0  0  0  0  0
  -15.5739   18.1136  -19.9578 F   0  0  0  0  0  0  0  0  0  0  0  0
 35 36  1  0  0  0
 36 37  1  0  0  0
 36 38  1  0  0  0
 36 34  1  0  0  0
 34 24  1  0  0  0
 24 22  1  0  0  0
 22  1  1  0  0  0
  1  2  1  0  0  0
  2  3  2  0  0  0
  3  4  1  0  0  0
  4  5  2  0  0  0
  5  6  1  0  0  0
  6  7  2  0  0  0
  5  8  1  0  0  0
  8  9  2  0  0  0
  9 10  1  0  0  0
 10 11  2  0  0  0
 11 12  1  0  0  0
 12 13  2  0  0  0
 11 14  1  0  0  0
 14 15  1  0  0  0
 14 16  2  0  0  0
 14 17  2  0  0  0
  1 18  1  0  0  0
 18 19  1  0  0  0
 18 20  1  0  0  0
 18 21  1  0  0  0
 24 25  1  0  0  0
 25 26  2  0  0  0
 25 27  1  0  0  0
 27 29  1  0  0  0
 29 30  1  0  0  0
 30 31  1  0  0  0
 29 32  1  0  0  0
 32 33  3  0  0  0
  7  2  1  0  0  0
 13  8  1  0  0  0
 31 29  1  0  0  0
 22 23  1  0  0  0
 27 28  1  0  0  0
M  END
> <minimizedAffinity>
-8.71875

> <CNNscore>
0.1739352643

> <CNNaffinity>
6.6468858719

> <CNN_VS>
1.1561278105

> <CNNaffinity_variance>
0.3116641343

$$$$
[H]c1c([H])c([C@]([H])(N([H])[C@]([H])(C(=O)N([H])C2(C#N)C([H])([H])C2([H])[H])C([H])([H])C(F)(C([H])([H])[H])C([H])([H])[H])C(F)(F)F)c([H])c([H])c1-c1c([H])c([H])c(S(=O)(=O)C([H])([H])[H])c([H])c1[H]


 38 40  0  0  0  0  0  0  0  0999 V2000
  -17.3215   11.7724  -19.6836 C   0  0  0  0  0  0  0  0  0  0  0  0
  -18.2253   11.2381  -18.6361 C   0  0  0  0  0  0  0  0  0  0  0  0
  -18.1439    9.9549  -18.1479 C   0  0  0  0  0  0  0  0  0  0  0  0
  -18.9531    9.5304  -17.1070 C   0  0  0  0  0  0  0  0  0  0  0  0
  -19.8792   10.3775  -16.5235 C   0  0  0  0  0  0  0  0  0  0  0  0
  -19.9949   11.6571  -16.9901 C   0  0  0  0  0  0  0  0  0  0  0  0
  -19.1745   12.0719  -18.0276 C   0  0  0  0  0  0  0  0  0  0  0  0
  -20.5885    9.9502  -15.3280 C   0  0  0  0  0  0  0  0  0  0  0  0
  -21.7456    9.2352  -15.2629 C   0  0  0  0  0  0  0  0  0  0  0  0
  -22.3455    8.9828  -14.0373 C   0  0  0  0  0  0  0  0  0  0  0  0
  -21.7954    9.4441  -12.8553 C   0  0  0  0  0  0  0  0  0  0  0  0
  -20.6128   10.1740  -12.9206 C   0  0  0  0  0  0  0  0  0  0  0  0
  -20.0369   10.4136  -14.1260 C   0  0  0  0  0  0  0  0  0  0  0  0
  -22.5378    9.1449  -11.2953 S   0  0  0  0  0  0  0  0  0  0  0  0
  -21.2552    9.0417  -10.0711 C   0  0  0  0  0  0  0  0  0  0  0  0
  -23.2172    7.7792  -11.3843 O   0  0  0  0  0  0  0  0  0  0  0  0
  -23.5558   10.1678  -10.9279 O   0  0  0  0  0  0  0  0  0  0  0  0
  -16.1631   10.8108  -19.8485 C   0  0  0  0  0  0  0  0  0  0  0  0
  -16.6375    9.4793  -19.7920 F   0  0  0  0  0  0  0  0  0  0  0  0
  -15.3676   10.8751  -18.6664 F   0  0  0  0  0  0  0  0  0  0  0  0
  -15.3758   10.8814  -20.9150 F   0  0  0  0  0  0  0  0  0  0  0  0
  -17.8614   12.1269  -20.9147 N   0  0  0  0  0  0  0  0  0  0  0  0
  -18.8291   11.6892  -20.9900 H   0  0  0  0  0  0  0  0  0  0  0  0
  -18.1207   13.5451  -21.1770 C   0  0  0  0  0  0  0  0  0  0  0  0
  -17.3260   13.5462  -22.5475 C   0  0  0  0  0  0  0  0  0  0  0  0
  -17.2383   12.4610  -23.0933 O   0  0  0  0  0  0  0  0  0  0  0  0
  -16.7824   14.7283  -22.9752 N   0  0  0  0  0  0  0  0  0  0  0  0
  -17.0876   15.5813  -22.2841 H   0  0  0  0  0  0  0  0  0  0  0  0
  -15.9915   15.2524  -23.9859 C   0  0  0  0  0  0  0  0  0  0  0  0
  -14.5166   15.0272  -24.2162 C   0  0  0  0  0  0  0  0  0  0  0  0
  -15.5231   14.3842  -25.1167 C   0  0  0  0  0  0  0  0  0  0  0  0
  -16.4487   16.6123  -24.4506 C   0  0  0  0  0  0  0  0  0  0  0  0
  -16.8128   17.6445  -24.8290 N   0  0  0  0  0  0  0  0  0  0  0  0
  -17.5931   14.5642  -20.2939 C   0  0  0  0  0  0  0  0  0  0  0  0
  -19.9804   14.8810  -20.3361 C   0  0  0  0  0  0  0  0  0  0  0  0
  -18.7127   15.4834  -19.7446 C   0  0  0  0  0  0  0  0  0  0  0  0
  -18.5547   16.8512  -20.3855 C   0  0  0  0  0  0  0  0  0  0  0  0
  -18.8168   15.4921  -18.4037 F   0  0  0  0  0  0  0  0  0  0  0  0
 35 36  1  0  0  0
 36 37  1  0  0  0
 36 38  1  0  0  0
 36 34  1  0  0  0
 34 24  1  0  0  0
 24 22  1  0  0  0
 22  1  1  0  0  0
  1  2  1  0  0  0
  2  3  2  0  0  0
  3  4  1  0  0  0
  4  5  2  0  0  0
  5  6  1  0  0  0
  6  7  2  0  0  0
  5  8  1  0  0  0
  8  9  2  0  0  0
  9 10  1  0  0  0
 10 11  2  0  0  0
 11 12  1  0  0  0
 12 13  2  0  0  0
 11 14  1  0  0  0
 14 15  1  0  0  0
 14 16  2  0  0  0
 14 17  2  0  0  0
  1 18  1  0  0  0
 18 19  1  0  0  0
 18 20  1  0  0  0
 18 21  1  0  0  0
 24 25  1  0  0  0
 25 26  2  0  0  0
 25 27  1  0  0  0
 27 29  1  0  0  0
 29 30  1  0  0  0
 30 31  1  0  0  0
 29 32  1  0  0  0
 32 33  3  0  0  0
  7  2  1  0  0  0
 13  8  1  0  0  0
 31 29  1  0  0  0
 22 23  1  0  0  0
 27 28  1  0  0  0
M  END
> <minimizedAffinity>
-8.06107

> <CNNscore>
0.1709060669

> <CNNaffinity>
6.3536753654

> <CNN_VS>
1.0858817101

> <CNNaffinity_variance>
0.2709149718

$$$$
[H]c1c([H])c([C@]([H])(N([H])[C@]([H])(C(=O)N([H])C2(C#N)C([H])([H])C2([H])[H])C([H])([H])C(F)(C([H])([H])[H])C([H])([H])[H])C(F)(F)F)c([H])c([H])c1-c1c([H])c([H])c(S(=O)(=O)C([H])([H])[H])c([H])c1[H]


 38 40  0  0  0  0  0  0  0  0999 V2000
  -16.9239   13.7882  -23.5061 C   0  0  0  0  0  0  0  0  0  0  0  0
  -17.3024   13.2158  -22.1913 C   0  0  0  0  0  0  0  0  0  0  0  0
  -18.2843   13.7472  -21.3882 C   0  0  0  0  0  0  0  0  0  0  0  0
  -18.6623   13.1251  -20.2098 C   0  0  0  0  0  0  0  0  0  0  0  0
  -18.0620   11.9503  -19.7912 C   0  0  0  0  0  0  0  0  0  0  0  0
  -17.0749   11.3989  -20.5594 C   0  0  0  0  0  0  0  0  0  0  0  0
  -16.7106   12.0273  -21.7400 C   0  0  0  0  0  0  0  0  0  0  0  0
  -18.5994   11.2407  -18.6412 C   0  0  0  0  0  0  0  0  0  0  0  0
  -19.4729   11.7144  -17.7101 C   0  0  0  0  0  0  0  0  0  0  0  0
  -19.8219   10.9354  -16.6161 C   0  0  0  0  0  0  0  0  0  0  0  0
  -19.3001    9.6672  -16.4366 C   0  0  0  0  0  0  0  0  0  0  0  0
  -18.4083    9.1819  -17.3877 C   0  0  0  0  0  0  0  0  0  0  0  0
  -18.0755    9.9547  -18.4527 C   0  0  0  0  0  0  0  0  0  0  0  0
  -19.7195    8.6664  -15.0594 S   0  0  0  0  0  0  0  0  0  0  0  0
  -21.3854    9.0450  -14.5739 C   0  0  0  0  0  0  0  0  0  0  0  0
  -18.7900    9.0747  -13.9175 O   0  0  0  0  0  0  0  0  0  0  0  0
  -19.5501    7.2105  -15.3231 O   0  0  0  0  0  0  0  0  0  0  0  0
  -17.5943   12.9719  -24.5914 C   0  0  0  0  0  0  0  0  0  0  0  0
  -16.6536   12.6555  -25.5993 F   0  0  0  0  0  0  0  0  0  0  0  0
  -18.4855   13.8312  -25.2998 F   0  0  0  0  0  0  0  0  0  0  0  0
  -18.2175   11.8382  -24.2936 F   0  0  0  0  0  0  0  0  0  0  0  0
  -17.1017   15.1507  -23.7178 N   0  0  0  0  0  0  0  0  0  0  0  0
  -17.6646   15.5416  -22.9031 H   0  0  0  0  0  0  0  0  0  0  0  0
  -15.9154   16.0107  -23.7404 C   0  0  0  0  0  0  0  0  0  0  0  0
  -16.4510   16.9600  -22.5908 C   0  0  0  0  0  0  0  0  0  0  0  0
  -15.5941   17.4033  -21.8474 O   0  0  0  0  0  0  0  0  0  0  0  0
  -17.8021   17.1670  -22.5042 N   0  0  0  0  0  0  0  0  0  0  0  0
  -18.3389   16.6700  -23.3780 H   0  0  0  0  0  0  0  0  0  0  0  0
  -18.7515   17.7986  -21.7161 C   0  0  0  0  0  0  0  0  0  0  0  0
  -20.1541   17.3331  -21.4071 C   0  0  0  0  0  0  0  0  0  0  0  0
  -19.0923   17.2644  -20.3558 C   0  0  0  0  0  0  0  0  0  0  0  0
  -18.6317   19.3018  -21.7348 C   0  0  0  0  0  0  0  0  0  0  0  0
  -18.5673   20.4580  -21.7529 N   0  0  0  0  0  0  0  0  0  0  0  0
  -15.5935   16.7878  -24.9191 C   0  0  0  0  0  0  0  0  0  0  0  0
  -15.6384   15.3905  -26.8804 C   0  0  0  0  0  0  0  0  0  0  0  0
  -14.6656   16.0085  -25.8847 C   0  0  0  0  0  0  0  0  0  0  0  0
  -14.0534   14.8504  -25.1161 C   0  0  0  0  0  0  0  0  0  0  0  0
  -13.7861   16.7770  -26.5516 F   0  0  0  0  0  0  0  0  0  0  0  0
 35 36  1  0  0  0
 36 37  1  0  0  0
 36 38  1  0  0  0
 36 34  1  0  0  0
 34 24  1  0  0  0
 24 22  1  0  0  0
 22  1  1  0  0  0
  1  2  1  0  0  0
  2  3  2  0  0  0
  3  4  1  0  0  0
  4  5  2  0  0  0
  5  6  1  0  0  0
  6  7  2  0  0  0
  5  8  1  0  0  0
  8  9  2  0  0  0
  9 10  1  0  0  0
 10 11  2  0  0  0
 11 12  1  0  0  0
 12 13  2  0  0  0
 11 14  1  0  0  0
 14 15  1  0  0  0
 14 16  2  0  0  0
 14 17  2  0  0  0
  1 18  1  0  0  0
 18 19  1  0  0  0
 18 20  1  0  0  0
 18 21  1  0  0  0
 24 25  1  0  0  0
 25 26  2  0  0  0
 25 27  1  0  0  0
 27 29  1  0  0  0
 29 30  1  0  0  0
 30 31  1  0  0  0
 29 32  1  0  0  0
 32 33  3  0  0  0
  7  2  1  0  0  0
 13  8  1  0  0  0
 31 29  1  0  0  0
 22 23  1  0  0  0
 27 28  1  0  0  0
M  END
> <minimizedAffinity>
-8.73577

> <CNNscore>
0.1679911315

> <CNNaffinity>
6.7720403671

> <CNN_VS>
1.1376427412

> <CNNaffinity_variance>
0.1930215806

$$$$
[H]c1nc(N([H])[H])c2c(-c3c([H])c([H])c(Oc4c([H])c([H])c([H])c([H])c4[H])c([H])c3[H])c([H])n(C3([H])C([H])([H])C3([H])[H])c2n1


 28 32  0  0  0  0  0  0  0  0999 V2000
  -17.6491   13.4519  -21.5935 N   0  0  0  0  0  0  0  0  0  0  0  0
  -17.4204   12.2385  -20.9010 C   0  0  0  0  0  0  0  0  0  0  0  0
  -16.5945   11.2906  -21.3358 N   0  0  0  0  0  0  0  0  0  0  0  0
  -16.3502   10.1481  -20.6797 C   0  0  0  0  0  0  0  0  0  0  0  0
  -16.9762    9.9519  -19.5169 N   0  0  0  0  0  0  0  0  0  0  0  0
  -17.8254   10.8331  -18.9851 C   0  0  0  0  0  0  0  0  0  0  0  0
  -18.5260   10.8040  -17.8370 N   0  0  0  0  0  0  0  0  0  0  0  0
  -19.2126   11.9443  -17.7866 C   0  0  0  0  0  0  0  0  0  0  0  0
  -18.9580   12.7204  -18.9092 C   0  0  0  0  0  0  0  0  0  0  0  0
  -18.0721   12.0231  -19.6826 C   0  0  0  0  0  0  0  0  0  0  0  0
  -17.2733   14.3722  -21.2384 H   0  0  0  0  0  0  0  0  0  0  0  0
  -18.1949   13.5050  -22.4826 H   0  0  0  0  0  0  0  0  0  0  0  0
  -19.5546   14.0062  -19.2270 C   0  0  0  0  0  0  0  0  0  0  0  0
  -18.9918   15.2195  -18.9552 C   0  0  0  0  0  0  0  0  0  0  0  0
  -19.6567   16.3675  -19.2925 C   0  0  0  0  0  0  0  0  0  0  0  0
  -20.8854   16.3106  -19.9023 C   0  0  0  0  0  0  0  0  0  0  0  0
  -21.4853   15.1053  -20.1929 C   0  0  0  0  0  0  0  0  0  0  0  0
  -20.7895   13.9679  -19.8402 C   0  0  0  0  0  0  0  0  0  0  0  0
  -21.5853   17.4656  -20.2570 O   0  0  0  0  0  0  0  0  0  0  0  0
  -21.9707   17.7721  -21.5330 C   0  0  0  0  0  0  0  0  0  0  0  0
  -23.2992   17.7367  -21.9110 C   0  0  0  0  0  0  0  0  0  0  0  0
  -23.6772   18.0483  -23.2033 C   0  0  0  0  0  0  0  0  0  0  0  0
  -22.7183   18.4014  -24.1367 C   0  0  0  0  0  0  0  0  0  0  0  0
  -21.3891   18.4359  -23.7547 C   0  0  0  0  0  0  0  0  0  0  0  0
  -21.0134   18.1247  -22.4650 C   0  0  0  0  0  0  0  0  0  0  0  0
  -18.5608    9.7668  -16.8273 C   0  0  0  0  0  0  0  0  0  0  0  0
  -19.4557    8.5459  -17.1135 C   0  0  0  0  0  0  0  0  0  0  0  0
  -19.7486    9.5133  -16.0125 C   0  0  0  0  0  0  0  0  0  0  0  0
  1  2  1  0  0  0
  2  3  2  0  0  0
  3  4  1  0  0  0
  4  5  2  0  0  0
  5  6  1  0  0  0
  6  7  1  0  0  0
  7  8  1  0  0  0
  8  9  2  0  0  0
  9 13  1  0  0  0
 13 14  2  0  0  0
 14 15  1  0  0  0
 15 16  2  0  0  0
 16 19  1  0  0  0
 19 20  1  0  0  0
 20 21  2  0  0  0
 21 22  1  0  0  0
 22 23  2  0  0  0
 23 24  1  0  0  0
 24 25  2  0  0  0
 16 17  1  0  0  0
 17 18  2  0  0  0
  9 10  1  0  0  0
  7 26  1  0  0  0
 26 27  1  0  0  0
 27 28  1  0  0  0
 10  2  1  0  0  0
 28 26  1  0  0  0
 10  6  2  0  0  0
 18 13  1  0  0  0
 25 20  1  0  0  0
  1 11  1  0  0  0
  1 12  1  0  0  0
M  END
> <minimizedAffinity>
-7.24888

> <CNNscore>
0.7398422360

> <CNNaffinity>
6.7018365860

> <CNN_VS>
4.9583015442

> <CNNaffinity_variance>
0.3064894080

$$$$
[H]c1nc(N([H])[H])c2c(-c3c([H])c([H])c(Oc4c([H])c([H])c([H])c([H])c4[H])c([H])c3[H])c([H])n(C3([H])C([H])([H])C3([H])[H])c2n1


 28 32  0  0  0  0  0  0  0  0999 V2000
  -17.1849   10.3970  -18.9828 N   0  0  0  0  0  0  0  0  0  0  0  0
  -16.5527   10.7310  -20.2046 C   0  0  0  0  0  0  0  0  0  0  0  0
  -15.6634    9.9470  -20.8083 N   0  0  0  0  0  0  0  0  0  0  0  0
  -15.0747   10.2391  -21.9761 C   0  0  0  0  0  0  0  0  0  0  0  0
  -15.4036   11.3894  -22.5686 N   0  0  0  0  0  0  0  0  0  0  0  0
  -16.2826   12.2520  -22.0548 C   0  0  0  0  0  0  0  0  0  0  0  0
  -16.7329   13.4339  -22.5134 N   0  0  0  0  0  0  0  0  0  0  0  0
  -17.6102   13.8764  -21.6140 C   0  0  0  0  0  0  0  0  0  0  0  0
  -17.7312   12.9774  -20.5630 C   0  0  0  0  0  0  0  0  0  0  0  0
  -16.8897   11.9342  -20.8327 C   0  0  0  0  0  0  0  0  0  0  0  0
  -18.2038   10.1239  -18.9424 H   0  0  0  0  0  0  0  0  0  0  0  0
  -16.6865   10.4016  -18.0648 H   0  0  0  0  0  0  0  0  0  0  0  0
  -18.5572   13.1355  -19.3785 C   0  0  0  0  0  0  0  0  0  0  0  0
  -18.0895   13.1754  -18.0970 C   0  0  0  0  0  0  0  0  0  0  0  0
  -18.9684   13.3169  -17.0572 C   0  0  0  0  0  0  0  0  0  0  0  0
  -20.3174   13.4194  -17.2909 C   0  0  0  0  0  0  0  0  0  0  0  0
  -20.8272   13.3837  -18.5698 C   0  0  0  0  0  0  0  0  0  0  0  0
  -19.9154   13.2401  -19.5947 C   0  0  0  0  0  0  0  0  0  0  0  0
  -21.2359   13.5644  -16.2492 O   0  0  0  0  0  0  0  0  0  0  0  0
  -21.5928   12.5612  -15.3909 C   0  0  0  0  0  0  0  0  0  0  0  0
  -21.5446   11.2349  -15.7752 C   0  0  0  0  0  0  0  0  0  0  0  0
  -21.9078   10.2294  -14.8993 C   0  0  0  0  0  0  0  0  0  0  0  0
  -22.3262   10.5470  -13.6190 C   0  0  0  0  0  0  0  0  0  0  0  0
  -22.3731   11.8761  -13.2376 C   0  0  0  0  0  0  0  0  0  0  0  0
  -22.0105   12.8783  -14.1125 C   0  0  0  0  0  0  0  0  0  0  0  0
  -16.3692   14.1270  -23.7315 C   0  0  0  0  0  0  0  0  0  0  0  0
  -14.9702   14.7706  -23.7754 C   0  0  0  0  0  0  0  0  0  0  0  0
  -16.2256   15.5814  -23.7863 C   0  0  0  0  0  0  0  0  0  0  0  0
  1  2  1  0  0  0
  2  3  2  0  0  0
  3  4  1  0  0  0
  4  5  2  0  0  0
  5  6  1  0  0  0
  6  7  1  0  0  0
  7  8  1  0  0  0
  8  9  2  0  0  0
  9 13  1  0  0  0
 13 14  2  0  0  0
 14 15  1  0  0  0
 15 16  2  0  0  0
 16 19  1  0  0  0
 19 20  1  0  0  0
 20 21  2  0  0  0
 21 22  1  0  0  0
 22 23  2  0  0  0
 23 24  1  0  0  0
 24 25  2  0  0  0
 16 17  1  0  0  0
 17 18  2  0  0  0
  9 10  1  0  0  0
  7 26  1  0  0  0
 26 27  1  0  0  0
 27 28  1  0  0  0
 10  2  1  0  0  0
 28 26  1  0  0  0
 10  6  2  0  0  0
 18 13  1  0  0  0
 25 20  1  0  0  0
  1 11  1  0  0  0
  1 12  1  0  0  0
M  END
> <minimizedAffinity>
-7.05086

> <CNNscore>
0.6856424809

> <CNNaffinity>
6.6052350998

> <CNN_VS>
4.5288295746

> <CNNaffinity_variance>
0.1576750726

$$$$
[H]c1nc(N([H])[H])c2c(-c3c([H])c([H])c(Oc4c([H])c([H])c([H])c([H])c4[H])c([H])c3[H])c([H])n(C3([H])C([H])([H])C3([H])[H])c2n1


 28 32  0  0  0  0  0  0  0  0999 V2000
  -17.9180    9.2932  -17.4270 N   0  0  0  0  0  0  0  0  0  0  0  0
  -17.8804   10.2328  -18.4853 C   0  0  0  0  0  0  0  0  0  0  0  0
  -17.0688   10.1241  -19.5338 N   0  0  0  0  0  0  0  0  0  0  0  0
  -17.0388   10.9925  -20.5538 C   0  0  0  0  0  0  0  0  0  0  0  0
  -17.8774   12.0305  -20.5126 N   0  0  0  0  0  0  0  0  0  0  0  0
  -18.7344   12.2397  -19.5114 C   0  0  0  0  0  0  0  0  0  0  0  0
  -19.6435   13.2115  -19.3143 N   0  0  0  0  0  0  0  0  0  0  0  0
  -20.2406   12.9381  -18.1554 C   0  0  0  0  0  0  0  0  0  0  0  0
  -19.7163   11.7815  -17.5941 C   0  0  0  0  0  0  0  0  0  0  0  0
  -18.7542   11.3241  -18.4510 C   0  0  0  0  0  0  0  0  0  0  0  0
  -18.7297    8.6298  -17.3033 H   0  0  0  0  0  0  0  0  0  0  0  0
  -17.1557    9.2041  -16.7185 H   0  0  0  0  0  0  0  0  0  0  0  0
  -20.0844   11.1943  -16.3174 C   0  0  0  0  0  0  0  0  0  0  0  0
  -20.9141   10.1224  -16.1583 C   0  0  0  0  0  0  0  0  0  0  0  0
  -21.1979    9.6640  -14.9001 C   0  0  0  0  0  0  0  0  0  0  0  0
  -20.6553   10.2722  -13.7953 C   0  0  0  0  0  0  0  0  0  0  0  0
  -19.8137   11.3558  -13.9155 C   0  0  0  0  0  0  0  0  0  0  0  0
  -19.5482   11.7929  -15.1964 C   0  0  0  0  0  0  0  0  0  0  0  0
  -20.9278    9.8253  -12.5008 O   0  0  0  0  0  0  0  0  0  0  0  0
  -20.0137    9.8055  -11.4837 C   0  0  0  0  0  0  0  0  0  0  0  0
  -18.9490    8.9250  -11.4908 C   0  0  0  0  0  0  0  0  0  0  0  0
  -18.0312    8.9138  -10.4575 C   0  0  0  0  0  0  0  0  0  0  0  0
  -18.1738    9.7930   -9.3983 C   0  0  0  0  0  0  0  0  0  0  0  0
  -19.2410   10.6734   -9.3945 C   0  0  0  0  0  0  0  0  0  0  0  0
  -20.1559   10.6834  -10.4261 C   0  0  0  0  0  0  0  0  0  0  0  0
  -19.9494   14.3460  -20.1603 C   0  0  0  0  0  0  0  0  0  0  0  0
  -18.9723   15.5360  -20.1098 C   0  0  0  0  0  0  0  0  0  0  0  0
  -20.3783   15.6323  -19.6123 C   0  0  0  0  0  0  0  0  0  0  0  0
  1  2  1  0  0  0
  2  3  2  0  0  0
  3  4  1  0  0  0
  4  5  2  0  0  0
  5  6  1  0  0  0
  6  7  1  0  0  0
  7  8  1  0  0  0
  8  9  2  0  0  0
  9 13  1  0  0  0
 13 14  2  0  0  0
 14 15  1  0  0  0
 15 16  2  0  0  0
 16 19  1  0  0  0
 19 20  1  0  0  0
 20 21  2  0  0  0
 21 22  1  0  0  0
 22 23  2  0  0  0
 23 24  1  0  0  0
 24 25  2  0  0  0
 16 17  1  0  0  0
 17 18  2  0  0  0
  9 10  1  0  0  0
  7 26  1  0  0  0
 26 27  1  0  0  0
 27 28  1  0  0  0
 10  2  1  0  0  0
 28 26  1  0  0  0
 10  6  2  0  0  0
 18 13  1  0  0  0
 25 20  1  0  0  0
  1 11  1  0  0  0
  1 12  1  0  0  0
M  END
> <minimizedAffinity>
-6.77624

> <CNNscore>
0.6583380103

> <CNNaffinity>
6.4685506821

> <CNN_VS>
4.2584929466

> <CNNaffinity_variance>
0.3910472393

$$$$
[H]c1nc(N([H])[H])c2c(-c3c([H])c([H])c(Oc4c([H])c([H])c([H])c([H])c4[H])c([H])c3[H])c([H])n(C3([H])C([H])([H])C3([H])[H])c2n1


 28 32  0  0  0  0  0  0  0  0999 V2000
  -17.8648   13.6473  -20.5689 N   0  0  0  0  0  0  0  0  0  0  0  0
  -17.6150   12.3037  -20.1995 C   0  0  0  0  0  0  0  0  0  0  0  0
  -16.8067   11.4946  -20.8792 N   0  0  0  0  0  0  0  0  0  0  0  0
  -16.5426   10.2286  -20.5284 C   0  0  0  0  0  0  0  0  0  0  0  0
  -17.1285    9.7524  -19.4273 N   0  0  0  0  0  0  0  0  0  0  0  0
  -17.9569   10.4732  -18.6691 C   0  0  0  0  0  0  0  0  0  0  0  0
  -18.6174   10.1622  -17.5392 N   0  0  0  0  0  0  0  0  0  0  0  0
  -19.2993   11.2519  -17.1903 C   0  0  0  0  0  0  0  0  0  0  0  0
  -19.0819   12.2787  -18.0993 C   0  0  0  0  0  0  0  0  0  0  0  0
  -18.2248   11.7952  -19.0484 C   0  0  0  0  0  0  0  0  0  0  0  0
  -17.4749   14.4563  -20.0142 H   0  0  0  0  0  0  0  0  0  0  0  0
  -18.4408   13.9110  -21.3995 H   0  0  0  0  0  0  0  0  0  0  0  0
  -19.6862   13.5994  -18.0751 C   0  0  0  0  0  0  0  0  0  0  0  0
  -20.8720   13.9292  -18.6652 C   0  0  0  0  0  0  0  0  0  0  0  0
  -21.3363   15.2144  -18.5848 C   0  0  0  0  0  0  0  0  0  0  0  0
  -20.6206   16.1760  -17.9156 C   0  0  0  0  0  0  0  0  0  0  0  0
  -19.4205   15.8817  -17.3073 C   0  0  0  0  0  0  0  0  0  0  0  0
  -18.9807   14.5782  -17.4069 C   0  0  0  0  0  0  0  0  0  0  0  0
  -21.0709   17.4941  -17.8183 O   0  0  0  0  0  0  0  0  0  0  0  0
  -21.2248   18.1711  -16.6399 C   0  0  0  0  0  0  0  0  0  0  0  0
  -20.4385   19.2643  -16.3305 C   0  0  0  0  0  0  0  0  0  0  0  0
  -20.6028   19.9407  -15.1366 C   0  0  0  0  0  0  0  0  0  0  0  0
  -21.5653   19.5238  -14.2339 C   0  0  0  0  0  0  0  0  0  0  0  0
  -22.3509   18.4288  -14.5469 C   0  0  0  0  0  0  0  0  0  0  0  0
  -22.1859   17.7548  -15.7385 C   0  0  0  0  0  0  0  0  0  0  0  0
  -18.6197    8.9109  -16.8106 C   0  0  0  0  0  0  0  0  0  0  0  0
  -19.9901    8.3687  -16.3619 C   0  0  0  0  0  0  0  0  0  0  0  0
  -18.9570    8.8384  -15.3894 C   0  0  0  0  0  0  0  0  0  0  0  0
  1  2  1  0  0  0
  2  3  2  0  0  0
  3  4  1  0  0  0
  4  5  2  0  0  0
  5  6  1  0  0  0
  6  7  1  0  0  0
  7  8  1  0  0  0
  8  9  2  0  0  0
  9 13  1  0  0  0
 13 14  2  0  0  0
 14 15  1  0  0  0
 15 16  2  0  0  0
 16 19  1  0  0  0
 19 20  1  0  0  0
 20 21  2  0  0  0
 21 22  1  0  0  0
 22 23  2  0  0  0
 23 24  1  0  0  0
 24 25  2  0  0  0
 16 17  1  0  0  0
 17 18  2  0  0  0
  9 10  1  0  0  0
  7 26  1  0  0  0
 26 27  1  0  0  0
 27 28  1  0  0  0
 10  2  1  0  0  0
 28 26  1  0  0  0
 10  6  2  0  0  0
 18 13  1  0  0  0
 25 20  1  0  0  0
  1 11  1  0  0  0
  1 12  1  0  0  0
M  END
> <minimizedAffinity>
-6.53001

> <CNNscore>
0.6025135517

> <CNNaffinity>
6.3957672119

> <CNN_VS>
3.8535363674

> <CNNaffinity_variance>
0.1758439392

$$$$
[H]c1nc(N([H])[H])c2c(-c3c([H])c([H])c(Oc4c([H])c([H])c([H])c([H])c4[H])c([H])c3[H])c([H])n(C3([H])C([H])([H])C3([H])[H])c2n1


 28 32  0  0  0  0  0  0  0  0999 V2000
  -18.5515   11.7686  -18.2561 N   0  0  0  0  0  0  0  0  0  0  0  0
  -17.6814   11.4258  -19.3189 C   0  0  0  0  0  0  0  0  0  0  0  0
  -16.9187   10.3358  -19.3195 N   0  0  0  0  0  0  0  0  0  0  0  0
  -16.1084    9.9864  -20.3280 C   0  0  0  0  0  0  0  0  0  0  0  0
  -16.0664   10.7839  -21.3978 N   0  0  0  0  0  0  0  0  0  0  0  0
  -16.7872   11.9017  -21.5060 C   0  0  0  0  0  0  0  0  0  0  0  0
  -16.8748   12.8045  -22.4996 N   0  0  0  0  0  0  0  0  0  0  0  0
  -17.7503   13.7237  -22.0961 C   0  0  0  0  0  0  0  0  0  0  0  0
  -18.2353   13.4178  -20.8317 C   0  0  0  0  0  0  0  0  0  0  0  0
  -17.6294   12.2553  -20.4435 C   0  0  0  0  0  0  0  0  0  0  0  0
  -19.6000   11.6922  -18.3515 H   0  0  0  0  0  0  0  0  0  0  0  0
  -18.2106   12.1116  -17.3302 H   0  0  0  0  0  0  0  0  0  0  0  0
  -19.1711   14.2061  -20.0487 C   0  0  0  0  0  0  0  0  0  0  0  0
  -20.5261   14.0432  -20.0508 C   0  0  0  0  0  0  0  0  0  0  0  0
  -21.3093   14.8570  -19.2774 C   0  0  0  0  0  0  0  0  0  0  0  0
  -20.7447   15.8364  -18.4985 C   0  0  0  0  0  0  0  0  0  0  0  0
  -19.3815   16.0312  -18.4696 C   0  0  0  0  0  0  0  0  0  0  0  0
  -18.6210   15.1949  -19.2600 C   0  0  0  0  0  0  0  0  0  0  0  0
  -21.5197   16.6802  -17.7003 O   0  0  0  0  0  0  0  0  0  0  0  0
  -22.4216   17.5866  -18.1857 C   0  0  0  0  0  0  0  0  0  0  0  0
  -23.7812   17.4118  -18.0122 C   0  0  0  0  0  0  0  0  0  0  0  0
  -24.6834   18.3344  -18.5071 C   0  0  0  0  0  0  0  0  0  0  0  0
  -24.2270   19.4503  -19.1865 C   0  0  0  0  0  0  0  0  0  0  0  0
  -22.8650   19.6221  -19.3584 C   0  0  0  0  0  0  0  0  0  0  0  0
  -21.9659   18.7009  -18.8641 C   0  0  0  0  0  0  0  0  0  0  0  0
  -16.1794   12.8189  -23.7695 C   0  0  0  0  0  0  0  0  0  0  0  0
  -14.9279   13.7119  -23.8682 C   0  0  0  0  0  0  0  0  0  0  0  0
  -16.1756   13.9931  -24.6415 C   0  0  0  0  0  0  0  0  0  0  0  0
  1  2  1  0  0  0
  2  3  2  0  0  0
  3  4  1  0  0  0
  4  5  2  0  0  0
  5  6  1  0  0  0
  6  7  1  0  0  0
  7  8  1  0  0  0
  8  9  2  0  0  0
  9 13  1  0  0  0
 13 14  2  0  0  0
 14 15  1  0  0  0
 15 16  2  0  0  0
 16 19  1  0  0  0
 19 20  1  0  0  0
 20 21  2  0  0  0
 21 22  1  0  0  0
 22 23  2  0  0  0
 23 24  1  0  0  0
 24 25  2  0  0  0
 16 17  1  0  0  0
 17 18  2  0  0  0
  9 10  1  0  0  0
  7 26  1  0  0  0
 26 27  1  0  0  0
 27 28  1  0  0  0
 10  2  1  0  0  0
 28 26  1  0  0  0
 10  6  2  0  0  0
 18 13  1  0  0  0
 25 20  1  0  0  0
  1 11  1  0  0  0
  1 12  1  0  0  0
M  END
> <minimizedAffinity>
-7.20103

> <CNNscore>
0.5427075028

> <CNNaffinity>
6.5113358498

> <CNN_VS>
3.5337507725

> <CNNaffinity_variance>
0.2774669230

$$$$
[H]c1nc(N([H])[H])c2c(-c3c([H])c([H])c(Oc4c([H])c([H])c([H])c([H])c4[H])c([H])c3[H])c([H])n(C3([H])C([H])([H])C3([H])[H])c2n1


 28 32  0  0  0  0  0  0  0  0999 V2000
  -18.6116   11.7457  -18.2482 N   0  0  0  0  0  0  0  0  0  0  0  0
  -17.7463   11.4253  -19.3218 C   0  0  0  0  0  0  0  0  0  0  0  0
  -16.9822   10.3365  -19.3478 N   0  0  0  0  0  0  0  0  0  0  0  0
  -16.1765   10.0084  -20.3669 C   0  0  0  0  0  0  0  0  0  0  0  0
  -16.1407   10.8271  -21.4208 N   0  0  0  0  0  0  0  0  0  0  0  0
  -16.8634   11.9458  -21.5033 C   0  0  0  0  0  0  0  0  0  0  0  0
  -16.9569   12.8680  -22.4783 N   0  0  0  0  0  0  0  0  0  0  0  0
  -17.8315   13.7779  -22.0524 C   0  0  0  0  0  0  0  0  0  0  0  0
  -18.3100   13.4463  -20.7919 C   0  0  0  0  0  0  0  0  0  0  0  0
  -17.7008   12.2770  -20.4299 C   0  0  0  0  0  0  0  0  0  0  0  0
  -19.6605   11.6698  -18.3400 H   0  0  0  0  0  0  0  0  0  0  0  0
  -18.2666   12.0707  -17.3173 H   0  0  0  0  0  0  0  0  0  0  0  0
  -19.2429   14.2176  -19.9889 C   0  0  0  0  0  0  0  0  0  0  0  0
  -20.5938   14.0259  -19.9571 C   0  0  0  0  0  0  0  0  0  0  0  0
  -21.3750   14.8259  -19.1675 C   0  0  0  0  0  0  0  0  0  0  0  0
  -20.8125   15.8202  -18.4061 C   0  0  0  0  0  0  0  0  0  0  0  0
  -19.4535   16.0440  -18.4114 C   0  0  0  0  0  0  0  0  0  0  0  0
  -18.6949   15.2210  -19.2174 C   0  0  0  0  0  0  0  0  0  0  0  0
  -21.5856   16.6505  -17.5920 O   0  0  0  0  0  0  0  0  0  0  0  0
  -21.0762   17.4750  -16.6270 C   0  0  0  0  0  0  0  0  0  0  0  0
  -20.7409   16.9955  -15.3752 C   0  0  0  0  0  0  0  0  0  0  0  0
  -20.2270   17.8380  -14.4076 C   0  0  0  0  0  0  0  0  0  0  0  0
  -20.0429   19.1805  -14.6885 C   0  0  0  0  0  0  0  0  0  0  0  0
  -20.3797   19.6571  -15.9429 C   0  0  0  0  0  0  0  0  0  0  0  0
  -20.8924   18.8155  -16.9073 C   0  0  0  0  0  0  0  0  0  0  0  0
  -16.2677   12.9087  -23.7510 C   0  0  0  0  0  0  0  0  0  0  0  0
  -14.9079   13.6320  -23.7840 C   0  0  0  0  0  0  0  0  0  0  0  0
  -16.1077   14.1484  -24.5103 C   0  0  0  0  0  0  0  0  0  0  0  0
  1  2  1  0  0  0
  2  3  2  0  0  0
  3  4  1  0  0  0
  4  5  2  0  0  0
  5  6  1  0  0  0
  6  7  1  0  0  0
  7  8  1  0  0  0
  8  9  2  0  0  0
  9 13  1  0  0  0
 13 14  2  0  0  0
 14 15  1  0  0  0
 15 16  2  0  0  0
 16 19  1  0  0  0
 19 20  1  0  0  0
 20 21  2  0  0  0
 21 22  1  0  0  0
 22 23  2  0  0  0
 23 24  1  0  0  0
 24 25  2  0  0  0
 16 17  1  0  0  0
 17 18  2  0  0  0
  9 10  1  0  0  0
  7 26  1  0  0  0
 26 27  1  0  0  0
 27 28  1  0  0  0
 10  2  1  0  0  0
 28 26  1  0  0  0
 10  6  2  0  0  0
 18 13  1  0  0  0
 25 20  1  0  0  0
  1 11  1  0  0  0
  1 12  1  0  0  0
M  END
> <minimizedAffinity>
-7.68516

> <CNNscore>
0.5122996569

> <CNNaffinity>
6.5696840286

> <CNN_VS>
3.3656468391

> <CNNaffinity_variance>
0.3187547922

$$$$
[H]c1nc(N([H])[H])c2c(-c3c([H])c([H])c(Oc4c([H])c([H])c([H])c([H])c4[H])c([H])c3[H])c([H])n(C3([H])C([H])([H])C3([H])[H])c2n1


 28 32  0  0  0  0  0  0  0  0999 V2000
  -18.3875   11.7177  -18.2685 N   0  0  0  0  0  0  0  0  0  0  0  0
  -17.5793   11.4106  -19.3895 C   0  0  0  0  0  0  0  0  0  0  0  0
  -16.8443   10.3057  -19.4827 N   0  0  0  0  0  0  0  0  0  0  0  0
  -16.0933    9.9906  -20.5468 C   0  0  0  0  0  0  0  0  0  0  0  0
  -16.0845   10.8405  -21.5763 N   0  0  0  0  0  0  0  0  0  0  0  0
  -16.7823   11.9778  -21.5924 C   0  0  0  0  0  0  0  0  0  0  0  0
  -16.8966   12.9317  -22.5341 N   0  0  0  0  0  0  0  0  0  0  0  0
  -17.7286   13.8480  -22.0418 C   0  0  0  0  0  0  0  0  0  0  0  0
  -18.1582   13.4888  -20.7714 C   0  0  0  0  0  0  0  0  0  0  0  0
  -17.5625   12.2950  -20.4726 C   0  0  0  0  0  0  0  0  0  0  0  0
  -19.4410   11.6692  -18.3148 H   0  0  0  0  0  0  0  0  0  0  0  0
  -17.9933   12.0056  -17.3450 H   0  0  0  0  0  0  0  0  0  0  0  0
  -19.0349   14.2564  -19.9040 C   0  0  0  0  0  0  0  0  0  0  0  0
  -18.6195   15.1841  -18.9932 C   0  0  0  0  0  0  0  0  0  0  0  0
  -19.5413   15.8378  -18.2208 C   0  0  0  0  0  0  0  0  0  0  0  0
  -20.8812   15.5696  -18.3536 C   0  0  0  0  0  0  0  0  0  0  0  0
  -21.3389   14.6408  -19.2617 C   0  0  0  0  0  0  0  0  0  0  0  0
  -20.3848   13.9998  -20.0241 C   0  0  0  0  0  0  0  0  0  0  0  0
  -21.8426   16.2217  -17.5788 O   0  0  0  0  0  0  0  0  0  0  0  0
  -22.5383   15.6341  -16.5583 C   0  0  0  0  0  0  0  0  0  0  0  0
  -23.8923   15.8531  -16.3915 C   0  0  0  0  0  0  0  0  0  0  0  0
  -24.5851   15.2541  -15.3565 C   0  0  0  0  0  0  0  0  0  0  0  0
  -23.9211   14.4228  -14.4715 C   0  0  0  0  0  0  0  0  0  0  0  0
  -22.5654   14.2058  -14.6416 C   0  0  0  0  0  0  0  0  0  0  0  0
  -21.8754   14.8041  -15.6746 C   0  0  0  0  0  0  0  0  0  0  0  0
  -16.2643   12.9957  -23.8351 C   0  0  0  0  0  0  0  0  0  0  0  0
  -14.9017   13.7102  -23.9128 C   0  0  0  0  0  0  0  0  0  0  0  0
  -16.1285   14.2507  -24.5736 C   0  0  0  0  0  0  0  0  0  0  0  0
  1  2  1  0  0  0
  2  3  2  0  0  0
  3  4  1  0  0  0
  4  5  2  0  0  0
  5  6  1  0  0  0
  6  7  1  0  0  0
  7  8  1  0  0  0
  8  9  2  0  0  0
  9 13  1  0  0  0
 13 14  2  0  0  0
 14 15  1  0  0  0
 15 16  2  0  0  0
 16 19  1  0  0  0
 19 20  1  0  0  0
 20 21  2  0  0  0
 21 22  1  0  0  0
 22 23  2  0  0  0
 23 24  1  0  0  0
 24 25  2  0  0  0
 16 17  1  0  0  0
 17 18  2  0  0  0
  9 10  1  0  0  0
  7 26  1  0  0  0
 26 27  1  0  0  0
 27 28  1  0  0  0
 10  2  1  0  0  0
 28 26  1  0  0  0
 10  6  2  0  0  0
 18 13  1  0  0  0
 25 20  1  0  0  0
  1 11  1  0  0  0
  1 12  1  0  0  0
M  END
> <minimizedAffinity>
-7.33996

> <CNNscore>
0.4554526508

> <CNNaffinity>
6.4395713806

> <CNN_VS>
2.9329197407

> <CNNaffinity_variance>
0.2528660893

$$$$
[H]c1nc(N([H])[H])c2c(-c3c([H])c([H])c(Oc4c([H])c([H])c([H])c([H])c4[H])c([H])c3[H])c([H])n(C3([H])C([H])([H])C3([H])[H])c2n1


 28 32  0  0  0  0  0  0  0  0999 V2000
  -17.3843   13.5769  -22.0122 N   0  0  0  0  0  0  0  0  0  0  0  0
  -17.1976   12.3590  -21.3151 C   0  0  0  0  0  0  0  0  0  0  0  0
  -16.4472   11.3602  -21.7722 N   0  0  0  0  0  0  0  0  0  0  0  0
  -16.2425   10.2117  -21.1129 C   0  0  0  0  0  0  0  0  0  0  0  0
  -16.8294   10.0638  -19.9230 N   0  0  0  0  0  0  0  0  0  0  0  0
  -17.6028   10.9984  -19.3672 C   0  0  0  0  0  0  0  0  0  0  0  0
  -18.2550   11.0214  -18.1908 N   0  0  0  0  0  0  0  0  0  0  0  0
  -18.8714   12.2004  -18.1258 C   0  0  0  0  0  0  0  0  0  0  0  0
  -18.6195   12.9494  -19.2674 C   0  0  0  0  0  0  0  0  0  0  0  0
  -17.8090   12.1939  -20.0683 C   0  0  0  0  0  0  0  0  0  0  0  0
  -16.9410   14.4770  -21.6841 H   0  0  0  0  0  0  0  0  0  0  0  0
  -17.9629   13.6533  -22.8785 H   0  0  0  0  0  0  0  0  0  0  0  0
  -19.1532   14.2648  -19.5757 C   0  0  0  0  0  0  0  0  0  0  0  0
  -20.3671   14.5022  -20.1528 C   0  0  0  0  0  0  0  0  0  0  0  0
  -20.7584   15.7890  -20.4068 C   0  0  0  0  0  0  0  0  0  0  0  0
  -19.9414   16.8447  -20.0861 C   0  0  0  0  0  0  0  0  0  0  0  0
  -18.7099   16.6453  -19.5024 C   0  0  0  0  0  0  0  0  0  0  0  0
  -18.3455   15.3373  -19.2600 C   0  0  0  0  0  0  0  0  0  0  0  0
  -20.3156   18.1669  -20.3340 O   0  0  0  0  0  0  0  0  0  0  0  0
  -20.3389   19.1522  -19.3857 C   0  0  0  0  0  0  0  0  0  0  0  0
  -19.4552   20.2134  -19.4296 C   0  0  0  0  0  0  0  0  0  0  0  0
  -19.4879   21.2034  -18.4658 C   0  0  0  0  0  0  0  0  0  0  0  0
  -20.4148   21.1380  -17.4402 C   0  0  0  0  0  0  0  0  0  0  0  0
  -21.2981   20.0740  -17.3995 C   0  0  0  0  0  0  0  0  0  0  0  0
  -21.2644   19.0869  -18.3617 C   0  0  0  0  0  0  0  0  0  0  0  0
  -18.3076    9.9979  -17.1681 C   0  0  0  0  0  0  0  0  0  0  0  0
  -19.2651    8.8163  -17.4138 C   0  0  0  0  0  0  0  0  0  0  0  0
  -19.4815    9.8079  -16.3167 C   0  0  0  0  0  0  0  0  0  0  0  0
  1  2  1  0  0  0
  2  3  2  0  0  0
  3  4  1  0  0  0
  4  5  2  0  0  0
  5  6  1  0  0  0
  6  7  1  0  0  0
  7  8  1  0  0  0
  8  9  2  0  0  0
  9 13  1  0  0  0
 13 14  2  0  0  0
 14 15  1  0  0  0
 15 16  2  0  0  0
 16 19  1  0  0  0
 19 20  1  0  0  0
 20 21  2  0  0  0
 21 22  1  0  0  0
 22 23  2  0  0  0
 23 24  1  0  0  0
 24 25  2  0  0  0
 16 17  1  0  0  0
 17 18  2  0  0  0
  9 10  1  0  0  0
  7 26  1  0  0  0
 26 27  1  0  0  0
 27 28  1  0  0  0
 10  2  1  0  0  0
 28 26  1  0  0  0
 10  6  2  0  0  0
 18 13  1  0  0  0
 25 20  1  0  0  0
  1 11  1  0  0  0
  1 12  1  0  0  0
M  END
> <minimizedAffinity>
-6.44617

> <CNNscore>
0.4446918070

> <CNNaffinity>
6.4345779419

> <CNN_VS>
2.8614041805

> <CNNaffinity_variance>
0.3046855330

$$$$
[H]c1nc(N([H])[H])c2c(-c3c([H])c([H])c(Oc4c([H])c([H])c([H])c([H])c4[H])c([H])c3[H])c([H])n(C3([H])C([H])([H])C3([H])[H])c2n1


 28 32  0  0  0  0  0  0  0  0999 V2000
  -17.9641    8.7872  -17.0439 N   0  0  0  0  0  0  0  0  0  0  0  0
  -18.1766    9.9390  -17.8392 C   0  0  0  0  0  0  0  0  0  0  0  0
  -17.5178   10.1814  -18.9692 N   0  0  0  0  0  0  0  0  0  0  0  0
  -17.7249   11.2549  -19.7440 C   0  0  0  0  0  0  0  0  0  0  0  0
  -18.6512   12.1341  -19.3551 N   0  0  0  0  0  0  0  0  0  0  0  0
  -19.3718   11.9932  -18.2409 C   0  0  0  0  0  0  0  0  0  0  0  0
  -20.3383   12.7636  -17.7097 N   0  0  0  0  0  0  0  0  0  0  0  0
  -20.7306   12.1564  -16.5909 C   0  0  0  0  0  0  0  0  0  0  0  0
  -20.0145   10.9837  -16.3921 C   0  0  0  0  0  0  0  0  0  0  0  0
  -19.1440   10.8664  -17.4398 C   0  0  0  0  0  0  0  0  0  0  0  0
  -18.6767    8.0102  -16.9921 H   0  0  0  0  0  0  0  0  0  0  0  0
  -17.1025    8.6426  -16.4713 H   0  0  0  0  0  0  0  0  0  0  0  0
  -20.1321   10.0778  -15.2626 C   0  0  0  0  0  0  0  0  0  0  0  0
  -20.8340    8.9072  -15.2670 C   0  0  0  0  0  0  0  0  0  0  0  0
  -20.8823    8.1399  -14.1344 C   0  0  0  0  0  0  0  0  0  0  0  0
  -20.2308    8.5364  -12.9929 C   0  0  0  0  0  0  0  0  0  0  0  0
  -19.5122    9.7105  -12.9497 C   0  0  0  0  0  0  0  0  0  0  0  0
  -19.4835   10.4603  -14.1070 C   0  0  0  0  0  0  0  0  0  0  0  0
  -20.2634    7.7731  -11.8241 O   0  0  0  0  0  0  0  0  0  0  0  0
  -19.1851    7.5652  -11.0088 C   0  0  0  0  0  0  0  0  0  0  0  0
  -18.1036    6.8126  -11.4248 C   0  0  0  0  0  0  0  0  0  0  0  0
  -17.0193    6.6090  -10.5924 C   0  0  0  0  0  0  0  0  0  0  0  0
  -17.0093    7.1629   -9.3241 C   0  0  0  0  0  0  0  0  0  0  0  0
  -18.0939    7.9159   -8.9109 C   0  0  0  0  0  0  0  0  0  0  0  0
  -19.1750    8.1182   -9.7425 C   0  0  0  0  0  0  0  0  0  0  0  0
  -20.8783   14.0090  -18.2134 C   0  0  0  0  0  0  0  0  0  0  0  0
  -20.3077   15.3085  -17.6141 C   0  0  0  0  0  0  0  0  0  0  0  0
  -21.7224   14.8789  -17.3949 C   0  0  0  0  0  0  0  0  0  0  0  0
  1  2  1  0  0  0
  2  3  2  0  0  0
  3  4  1  0  0  0
  4  5  2  0  0  0
  5  6  1  0  0  0
  6  7  1  0  0  0
  7  8  1  0  0  0
  8  9  2  0  0  0
  9 13  1  0  0  0
 13 14  2  0  0  0
 14 15  1  0  0  0
 15 16  2  0  0  0
 16 19  1  0  0  0
 19 20  1  0  0  0
 20 21  2  0  0  0
 21 22  1  0  0  0
 22 23  2  0  0  0
 23 24  1  0  0  0
 24 25  2  0  0  0
 16 17  1  0  0  0
 17 18  2  0  0  0
  9 10  1  0  0  0
  7 26  1  0  0  0
 26 27  1  0  0  0
 27 28  1  0  0  0
 10  2  1  0  0  0
 28 26  1  0  0  0
 10  6  2  0  0  0
 18 13  1  0  0  0
 25 20  1  0  0  0
  1 11  1  0  0  0
  1 12  1  0  0  0
M  END
> <minimizedAffinity>
-6.53406

> <CNNscore>
0.4287059307

> <CNNaffinity>
5.8774900436

> <CNN_VS>
2.5197148323

> <CNNaffinity_variance>
0.2166406661

$$$$
[H]c1nc(N([H])[H])c2c(-c3c([H])c([H])c(Oc4c([H])c([H])c([H])c([H])c4[H])c([H])c3[H])c([H])n(C3([H])C([H])([H])C([H])([H])C([H])([H])C3([H])[H])c2n1


 30 34  0  0  0  0  0  0  0  0999 V2000
  -17.0168    9.9816  -18.4198 N   0  0  0  0  0  0  0  0  0  0  0  0
  -16.6448   10.4873  -19.6888 C   0  0  0  0  0  0  0  0  0  0  0  0
  -15.7076    9.8441  -20.4430 N   0  0  0  0  0  0  0  0  0  0  0  0
  -15.3552   10.3562  -21.6270 C   0  0  0  0  0  0  0  0  0  0  0  0
  -15.9038   11.4886  -22.0880 N   0  0  0  0  0  0  0  0  0  0  0  0
  -16.8375   12.1470  -21.3580 C   0  0  0  0  0  0  0  0  0  0  0  0
  -17.5286   13.2841  -21.5702 N   0  0  0  0  0  0  0  0  0  0  0  0
  -18.3310   13.5143  -20.5312 C   0  0  0  0  0  0  0  0  0  0  0  0
  -18.1766   12.4916  -19.5791 C   0  0  0  0  0  0  0  0  0  0  0  0
  -17.2380   11.6538  -20.1204 C   0  0  0  0  0  0  0  0  0  0  0  0
  -16.7564   10.5003  -17.5696 H   0  0  0  0  0  0  0  0  0  0  0  0
  -17.5490    9.0910  -18.3659 H   0  0  0  0  0  0  0  0  0  0  0  0
  -18.9262   12.3877  -18.3299 C   0  0  0  0  0  0  0  0  0  0  0  0
  -19.6444   11.2839  -17.9403 C   0  0  0  0  0  0  0  0  0  0  0  0
  -20.3139   11.2589  -16.7432 C   0  0  0  0  0  0  0  0  0  0  0  0
  -20.2805   12.3478  -15.9004 C   0  0  0  0  0  0  0  0  0  0  0  0
  -19.5681   13.4704  -16.2647 C   0  0  0  0  0  0  0  0  0  0  0  0
  -18.9070   13.4736  -17.4643 C   0  0  0  0  0  0  0  0  0  0  0  0
  -20.9701   12.2670  -14.7130 O   0  0  0  0  0  0  0  0  0  0  0  0
  -20.7453   11.1999  -13.8253 C   0  0  0  0  0  0  0  0  0  0  0  0
  -19.5282   11.0221  -13.2104 C   0  0  0  0  0  0  0  0  0  0  0  0
  -19.2915    9.9792  -12.3362 C   0  0  0  0  0  0  0  0  0  0  0  0
  -20.3065    9.0726  -12.0598 C   0  0  0  0  0  0  0  0  0  0  0  0
  -21.5257    9.2534  -12.6779 C   0  0  0  0  0  0  0  0  0  0  0  0
  -21.7387   10.3028  -13.5475 C   0  0  0  0  0  0  0  0  0  0  0  0
  -17.3434   14.0576  -22.7846 C   0  0  0  0  0  0  0  0  0  0  0  0
  -18.3235   15.2119  -22.8586 C   0  0  0  0  0  0  0  0  0  0  0  0
  -18.1772   15.6314  -24.3247 C   0  0  0  0  0  0  0  0  0  0  0  0
  -17.7750   14.3772  -25.0696 C   0  0  0  0  0  0  0  0  0  0  0  0
  -17.6630   13.2805  -24.0249 C   0  0  0  0  0  0  0  0  0  0  0  0
  1  2  1  0  0  0
  2  3  2  0  0  0
  3  4  1  0  0  0
  4  5  2  0  0  0
  5  6  1  0  0  0
  6  7  1  0  0  0
  7  8  1  0  0  0
  8  9  2  0  0  0
  9 13  1  0  0  0
 13 14  2  0  0  0
 14 15  1  0  0  0
 15 16  2  0  0  0
 16 19  1  0  0  0
 19 20  1  0  0  0
 20 21  2  0  0  0
 21 22  1  0  0  0
 22 23  2  0  0  0
 23 24  1  0  0  0
 24 25  2  0  0  0
 16 17  1  0  0  0
 17 18  2  0  0  0
  9 10  1  0  0  0
  7 26  1  0  0  0
 26 27  1  0  0  0
 27 28  1  0  0  0
 28 29  1  0  0  0
 29 30  1  0  0  0
 10  2  1  0  0  0
 30 26  1  0  0  0
 10  6  2  0  0  0
 18 13  1  0  0  0
 25 20  1  0  0  0
  1 11  1  0  0  0
  1 12  1  0  0  0
M  END
> <minimizedAffinity>
-8.37429

> <CNNscore>
0.8911692500

> <CNNaffinity>
7.1810188293

> <CNN_VS>
6.3995032310

> <CNNaffinity_variance>
0.2083892375

$$$$
[H]c1nc(N([H])[H])c2c(-c3c([H])c([H])c(Oc4c([H])c([H])c([H])c([H])c4[H])c([H])c3[H])c([H])n(C3([H])C([H])([H])C([H])([H])C([H])([H])C3([H])[H])c2n1


 30 34  0  0  0  0  0  0  0  0999 V2000
  -16.8731   10.0404  -18.5709 N   0  0  0  0  0  0  0  0  0  0  0  0
  -16.5105   10.5449  -19.8431 C   0  0  0  0  0  0  0  0  0  0  0  0
  -15.5868    9.8949  -20.6083 N   0  0  0  0  0  0  0  0  0  0  0  0
  -15.2429   10.4058  -21.7953 C   0  0  0  0  0  0  0  0  0  0  0  0
  -15.7869   11.5435  -22.2488 N   0  0  0  0  0  0  0  0  0  0  0  0
  -16.7072   12.2085  -21.5079 C   0  0  0  0  0  0  0  0  0  0  0  0
  -17.3910   13.3517  -21.7111 N   0  0  0  0  0  0  0  0  0  0  0  0
  -18.1803   13.5871  -20.6633 C   0  0  0  0  0  0  0  0  0  0  0  0
  -18.0242   12.5617  -19.7142 C   0  0  0  0  0  0  0  0  0  0  0  0
  -17.0985   11.7169  -20.2667 C   0  0  0  0  0  0  0  0  0  0  0  0
  -16.5992   10.5557  -17.7229 H   0  0  0  0  0  0  0  0  0  0  0  0
  -17.4121    9.1543  -18.5125 H   0  0  0  0  0  0  0  0  0  0  0  0
  -18.7612   12.4623  -18.4572 C   0  0  0  0  0  0  0  0  0  0  0  0
  -19.6104   11.4339  -18.1298 C   0  0  0  0  0  0  0  0  0  0  0  0
  -20.2586   11.4060  -16.9211 C   0  0  0  0  0  0  0  0  0  0  0  0
  -20.0707   12.4159  -16.0035 C   0  0  0  0  0  0  0  0  0  0  0  0
  -19.2245   13.4617  -16.3042 C   0  0  0  0  0  0  0  0  0  0  0  0
  -18.5874   13.4693  -17.5167 C   0  0  0  0  0  0  0  0  0  0  0  0
  -20.7463   12.3362  -14.8079 O   0  0  0  0  0  0  0  0  0  0  0  0
  -21.9563   13.0279  -14.6214 C   0  0  0  0  0  0  0  0  0  0  0  0
  -22.2206   14.2033  -15.2842 C   0  0  0  0  0  0  0  0  0  0  0  0
  -23.4040   14.8946  -15.1119 C   0  0  0  0  0  0  0  0  0  0  0  0
  -24.3677   14.3981  -14.2439 C   0  0  0  0  0  0  0  0  0  0  0  0
  -24.0998   13.2193  -13.5807 C   0  0  0  0  0  0  0  0  0  0  0  0
  -22.9104   12.5465  -13.7689 C   0  0  0  0  0  0  0  0  0  0  0  0
  -17.2123   14.1254  -22.9263 C   0  0  0  0  0  0  0  0  0  0  0  0
  -16.0499   15.0906  -22.8003 C   0  0  0  0  0  0  0  0  0  0  0  0
  -16.2862   15.9987  -24.0113 C   0  0  0  0  0  0  0  0  0  0  0  0
  -17.7799   15.9779  -24.2515 C   0  0  0  0  0  0  0  0  0  0  0  0
  -18.3645   15.0403  -23.2093 C   0  0  0  0  0  0  0  0  0  0  0  0
  1  2  1  0  0  0
  2  3  2  0  0  0
  3  4  1  0  0  0
  4  5  2  0  0  0
  5  6  1  0  0  0
  6  7  1  0  0  0
  7  8  1  0  0  0
  8  9  2  0  0  0
  9 13  1  0  0  0
 13 14  2  0  0  0
 14 15  1  0  0  0
 15 16  2  0  0  0
 16 19  1  0  0  0
 19 20  1  0  0  0
 20 21  2  0  0  0
 21 22  1  0  0  0
 22 23  2  0  0  0
 23 24  1  0  0  0
 24 25  2  0  0  0
 16 17  1  0  0  0
 17 18  2  0  0  0
  9 10  1  0  0  0
  7 26  1  0  0  0
 26 27  1  0  0  0
 27 28  1  0  0  0
 28 29  1  0  0  0
 29 30  1  0  0  0
 10  2  1  0  0  0
 30 26  1  0  0  0
 10  6  2  0  0  0
 18 13  1  0  0  0
 25 20  1  0  0  0
  1 11  1  0  0  0
  1 12  1  0  0  0
M  END
> <minimizedAffinity>
-7.49861

> <CNNscore>
0.7519383430

> <CNNaffinity>
6.9096498489

> <CNN_VS>
5.1956305504

> <CNNaffinity_variance>
0.1744066030

$$$$
[H]c1nc(N([H])[H])c2c(-c3c([H])c([H])c(Oc4c([H])c([H])c([H])c([H])c4[H])c([H])c3[H])c([H])n(C3([H])C([H])([H])C([H])([H])C([H])([H])C3([H])[H])c2n1


 30 34  0  0  0  0  0  0  0  0999 V2000
  -16.5587    9.7503  -19.5597 N   0  0  0  0  0  0  0  0  0  0  0  0
  -16.3825   10.6840  -20.6093 C   0  0  0  0  0  0  0  0  0  0  0  0
  -15.4511   10.4651  -21.5817 N   0  0  0  0  0  0  0  0  0  0  0  0
  -15.2866   11.3748  -22.5480 C   0  0  0  0  0  0  0  0  0  0  0  0
  -16.0179   12.4973  -22.5808 N   0  0  0  0  0  0  0  0  0  0  0  0
  -16.9502   12.7385  -21.6265 C   0  0  0  0  0  0  0  0  0  0  0  0
  -17.7978   13.7645  -21.4156 N   0  0  0  0  0  0  0  0  0  0  0  0
  -18.5153   13.5269  -20.3179 C   0  0  0  0  0  0  0  0  0  0  0  0
  -18.1379   12.2906  -19.7650 C   0  0  0  0  0  0  0  0  0  0  0  0
  -17.1592   11.8222  -20.6008 C   0  0  0  0  0  0  0  0  0  0  0  0
  -16.2828   10.0050  -18.6012 H   0  0  0  0  0  0  0  0  0  0  0  0
  -16.9654    8.8187  -19.7738 H   0  0  0  0  0  0  0  0  0  0  0  0
  -18.7398   11.6816  -18.5818 C   0  0  0  0  0  0  0  0  0  0  0  0
  -18.5578   10.3756  -18.1981 C   0  0  0  0  0  0  0  0  0  0  0  0
  -19.1492    9.8799  -17.0641 C   0  0  0  0  0  0  0  0  0  0  0  0
  -19.9443   10.6866  -16.2802 C   0  0  0  0  0  0  0  0  0  0  0  0
  -20.1458   12.0020  -16.6402 C   0  0  0  0  0  0  0  0  0  0  0  0
  -19.5455   12.4761  -17.7764 C   0  0  0  0  0  0  0  0  0  0  0  0
  -20.5118   10.1364  -15.1545 O   0  0  0  0  0  0  0  0  0  0  0  0
  -21.8981   10.2239  -14.9354 C   0  0  0  0  0  0  0  0  0  0  0  0
  -22.4175   10.9983  -13.9248 C   0  0  0  0  0  0  0  0  0  0  0  0
  -23.7764   11.0947  -13.6967 C   0  0  0  0  0  0  0  0  0  0  0  0
  -24.6590   10.3919  -14.5065 C   0  0  0  0  0  0  0  0  0  0  0  0
  -24.1351    9.6162  -15.5190 C   0  0  0  0  0  0  0  0  0  0  0  0
  -22.7740    9.5355  -15.7276 C   0  0  0  0  0  0  0  0  0  0  0  0
  -17.8345   14.9028  -22.3158 C   0  0  0  0  0  0  0  0  0  0  0  0
  -18.9185   15.8857  -21.9187 C   0  0  0  0  0  0  0  0  0  0  0  0
  -18.9917   16.7673  -23.1694 C   0  0  0  0  0  0  0  0  0  0  0  0
  -18.5700   15.8793  -24.3197 C   0  0  0  0  0  0  0  0  0  0  0  0
  -18.2306   14.5295  -23.7116 C   0  0  0  0  0  0  0  0  0  0  0  0
  1  2  1  0  0  0
  2  3  2  0  0  0
  3  4  1  0  0  0
  4  5  2  0  0  0
  5  6  1  0  0  0
  6  7  1  0  0  0
  7  8  1  0  0  0
  8  9  2  0  0  0
  9 13  1  0  0  0
 13 14  2  0  0  0
 14 15  1  0  0  0
 15 16  2  0  0  0
 16 19  1  0  0  0
 19 20  1  0  0  0
 20 21  2  0  0  0
 21 22  1  0  0  0
 22 23  2  0  0  0
 23 24  1  0  0  0
 24 25  2  0  0  0
 16 17  1  0  0  0
 17 18  2  0  0  0
  9 10  1  0  0  0
  7 26  1  0  0  0
 26 27  1  0  0  0
 27 28  1  0  0  0
 28 29  1  0  0  0
 29 30  1  0  0  0
 10  2  1  0  0  0
 30 26  1  0  0  0
 10  6  2  0  0  0
 18 13  1  0  0  0
 25 20  1  0  0  0
  1 11  1  0  0  0
  1 12  1  0  0  0
M  END
> <minimizedAffinity>
-8.20453

> <CNNscore>
0.7272725105

> <CNNaffinity>
7.0045599937

> <CNN_VS>
5.0942239761

> <CNNaffinity_variance>
0.3479512334

$$$$
[H]c1nc(N([H])[H])c2c(-c3c([H])c([H])c(Oc4c([H])c([H])c([H])c([H])c4[H])c([H])c3[H])c([H])n(C3([H])C([H])([H])C([H])([H])C([H])([H])C3([H])[H])c2n1


 30 34  0  0  0  0  0  0  0  0999 V2000
  -17.5810   11.3066  -18.9934 N   0  0  0  0  0  0  0  0  0  0  0  0
  -16.8646   11.2792  -20.2142 C   0  0  0  0  0  0  0  0  0  0  0  0
  -15.9816   10.2729  -20.4765 N   0  0  0  0  0  0  0  0  0  0  0  0
  -15.2985   10.2836  -21.6261 C   0  0  0  0  0  0  0  0  0  0  0  0
  -15.4633   11.2629  -22.5260 N   0  0  0  0  0  0  0  0  0  0  0  0
  -16.3347   12.2742  -22.2896 C   0  0  0  0  0  0  0  0  0  0  0  0
  -16.6815   13.3662  -22.9987 N   0  0  0  0  0  0  0  0  0  0  0  0
  -17.5888   14.0659  -22.3178 C   0  0  0  0  0  0  0  0  0  0  0  0
  -17.8668   13.4207  -21.1001 C   0  0  0  0  0  0  0  0  0  0  0  0
  -17.0694   12.3072  -21.1087 C   0  0  0  0  0  0  0  0  0  0  0  0
  -17.3714   12.0354  -18.2973 H   0  0  0  0  0  0  0  0  0  0  0  0
  -18.3103   10.5878  -18.8181 H   0  0  0  0  0  0  0  0  0  0  0  0
  -18.8433   13.8747  -20.1136 C   0  0  0  0  0  0  0  0  0  0  0  0
  -20.1845   13.5820  -20.1512 C   0  0  0  0  0  0  0  0  0  0  0  0
  -21.0379   14.0368  -19.1783 C   0  0  0  0  0  0  0  0  0  0  0  0
  -20.5651   14.8024  -18.1354 C   0  0  0  0  0  0  0  0  0  0  0  0
  -19.2235   15.1129  -18.0711 C   0  0  0  0  0  0  0  0  0  0  0  0
  -18.3894   14.6482  -19.0531 C   0  0  0  0  0  0  0  0  0  0  0  0
  -21.4660   15.2310  -17.1884 O   0  0  0  0  0  0  0  0  0  0  0  0
  -21.4139   16.5463  -16.6938 C   0  0  0  0  0  0  0  0  0  0  0  0
  -21.0141   16.8133  -15.4055 C   0  0  0  0  0  0  0  0  0  0  0  0
  -20.9576   18.0994  -14.9048 C   0  0  0  0  0  0  0  0  0  0  0  0
  -21.3136   19.1677  -15.7175 C   0  0  0  0  0  0  0  0  0  0  0  0
  -21.7141   18.8968  -17.0088 C   0  0  0  0  0  0  0  0  0  0  0  0
  -21.7625   17.6037  -17.4868 C   0  0  0  0  0  0  0  0  0  0  0  0
  -16.0896   13.6356  -24.2966 C   0  0  0  0  0  0  0  0  0  0  0  0
  -14.8676   14.5245  -24.1721 C   0  0  0  0  0  0  0  0  0  0  0  0
  -14.6537   14.9401  -25.6310 C   0  0  0  0  0  0  0  0  0  0  0  0
  -16.0244   14.9040  -26.2707 C   0  0  0  0  0  0  0  0  0  0  0  0
  -16.9850   14.4382  -25.1902 C   0  0  0  0  0  0  0  0  0  0  0  0
  1  2  1  0  0  0
  2  3  2  0  0  0
  3  4  1  0  0  0
  4  5  2  0  0  0
  5  6  1  0  0  0
  6  7  1  0  0  0
  7  8  1  0  0  0
  8  9  2  0  0  0
  9 13  1  0  0  0
 13 14  2  0  0  0
 14 15  1  0  0  0
 15 16  2  0  0  0
 16 19  1  0  0  0
 19 20  1  0  0  0
 20 21  2  0  0  0
 21 22  1  0  0  0
 22 23  2  0  0  0
 23 24  1  0  0  0
 24 25  2  0  0  0
 16 17  1  0  0  0
 17 18  2  0  0  0
  9 10  1  0  0  0
  7 26  1  0  0  0
 26 27  1  0  0  0
 27 28  1  0  0  0
 28 29  1  0  0  0
 29 30  1  0  0  0
 10  2  1  0  0  0
 30 26  1  0  0  0
 10  6  2  0  0  0
 18 13  1  0  0  0
 25 20  1  0  0  0
  1 11  1  0  0  0
  1 12  1  0  0  0
M  END
> <minimizedAffinity>
-8.17048

> <CNNscore>
0.6812921166

> <CNNaffinity>
7.0875883102

> <CNN_VS>
4.8287181854

> <CNNaffinity_variance>
0.3128967881

$$$$
[H]c1nc(N([H])[H])c2c(-c3c([H])c([H])c(Oc4c([H])c([H])c([H])c([H])c4[H])c([H])c3[H])c([H])n(C3([H])C([H])([H])C([H])([H])C([H])([H])C3([H])[H])c2n1


 30 34  0  0  0  0  0  0  0  0999 V2000
  -17.6656    9.5625  -17.7491 N   0  0  0  0  0  0  0  0  0  0  0  0
  -17.7944   10.4778  -18.8215 C   0  0  0  0  0  0  0  0  0  0  0  0
  -17.0301   10.3421  -19.9433 N   0  0  0  0  0  0  0  0  0  0  0  0
  -17.1526   11.2348  -20.9315 C   0  0  0  0  0  0  0  0  0  0  0  0
  -18.0107   12.2602  -20.8424 N   0  0  0  0  0  0  0  0  0  0  0  0
  -18.7818   12.4174  -19.7384 C   0  0  0  0  0  0  0  0  0  0  0  0
  -19.6985   13.3407  -19.3880 N   0  0  0  0  0  0  0  0  0  0  0  0
  -20.1755   13.0528  -18.1772 C   0  0  0  0  0  0  0  0  0  0  0  0
  -19.5569   11.8882  -17.6901 C   0  0  0  0  0  0  0  0  0  0  0  0
  -18.6915   11.5147  -18.6838 C   0  0  0  0  0  0  0  0  0  0  0  0
  -17.2578    9.8776  -16.8580 H   0  0  0  0  0  0  0  0  0  0  0  0
  -17.9858    8.5828  -17.8785 H   0  0  0  0  0  0  0  0  0  0  0  0
  -19.8601   11.2482  -16.4128 C   0  0  0  0  0  0  0  0  0  0  0  0
  -19.5521   11.7761  -15.1829 C   0  0  0  0  0  0  0  0  0  0  0  0
  -19.8817   11.1180  -14.0253 C   0  0  0  0  0  0  0  0  0  0  0  0
  -20.5329    9.9051  -14.0715 C   0  0  0  0  0  0  0  0  0  0  0  0
  -20.8548    9.3501  -15.2917 C   0  0  0  0  0  0  0  0  0  0  0  0
  -20.5164   10.0244  -16.4348 C   0  0  0  0  0  0  0  0  0  0  0  0
  -20.8387    9.2903  -12.8796 O   0  0  0  0  0  0  0  0  0  0  0  0
  -19.8247    8.9613  -11.9626 C   0  0  0  0  0  0  0  0  0  0  0  0
  -18.9335    7.9443  -12.2123 C   0  0  0  0  0  0  0  0  0  0  0  0
  -17.9322    7.6090  -11.3219 C   0  0  0  0  0  0  0  0  0  0  0  0
  -17.8094    8.3133  -10.1313 C   0  0  0  0  0  0  0  0  0  0  0  0
  -18.7045    9.3325   -9.8837 C   0  0  0  0  0  0  0  0  0  0  0  0
  -19.6966    9.6493  -10.7883 C   0  0  0  0  0  0  0  0  0  0  0  0
  -20.0339   14.4382  -20.2769 C   0  0  0  0  0  0  0  0  0  0  0  0
  -18.9695   15.5176  -20.2473 C   0  0  0  0  0  0  0  0  0  0  0  0
  -19.6956   16.6691  -20.9499 C   0  0  0  0  0  0  0  0  0  0  0  0
  -21.1668   16.4568  -20.6671 C   0  0  0  0  0  0  0  0  0  0  0  0
  -21.2618   15.1816  -19.8475 C   0  0  0  0  0  0  0  0  0  0  0  0
  1  2  1  0  0  0
  2  3  2  0  0  0
  3  4  1  0  0  0
  4  5  2  0  0  0
  5  6  1  0  0  0
  6  7  1  0  0  0
  7  8  1  0  0  0
  8  9  2  0  0  0
  9 13  1  0  0  0
 13 14  2  0  0  0
 14 15  1  0  0  0
 15 16  2  0  0  0
 16 19  1  0  0  0
 19 20  1  0  0  0
 20 21  2  0  0  0
 21 22  1  0  0  0
 22 23  2  0  0  0
 23 24  1  0  0  0
 24 25  2  0  0  0
 16 17  1  0  0  0
 17 18  2  0  0  0
  9 10  1  0  0  0
  7 26  1  0  0  0
 26 27  1  0  0  0
 27 28  1  0  0  0
 28 29  1  0  0  0
 29 30  1  0  0  0
 10  2  1  0  0  0
 30 26  1  0  0  0
 10  6  2  0  0  0
 18 13  1  0  0  0
 25 20  1  0  0  0
  1 11  1  0  0  0
  1 12  1  0  0  0
M  END
> <minimizedAffinity>
-7.20583

> <CNNscore>
0.6420018673

> <CNNaffinity>
6.7046976089

> <CNN_VS>
4.3044285774

> <CNNaffinity_variance>
0.3810425103

$$$$
[H]c1nc(N([H])[H])c2c(-c3c([H])c([H])c(Oc4c([H])c([H])c([H])c([H])c4[H])c([H])c3[H])c([H])n(C3([H])C([H])([H])C([H])([H])C([H])([H])C3([H])[H])c2n1


 30 34  0  0  0  0  0  0  0  0999 V2000
  -17.5503   11.2764  -19.0629 N   0  0  0  0  0  0  0  0  0  0  0  0
  -16.8236   11.2721  -20.2780 C   0  0  0  0  0  0  0  0  0  0  0  0
  -15.9375   10.2715  -20.5514 N   0  0  0  0  0  0  0  0  0  0  0  0
  -15.2449   10.3041  -21.6948 C   0  0  0  0  0  0  0  0  0  0  0  0
  -15.4031   11.2996  -22.5778 N   0  0  0  0  0  0  0  0  0  0  0  0
  -16.2775   12.3057  -22.3301 C   0  0  0  0  0  0  0  0  0  0  0  0
  -16.6194   13.4104  -23.0218 N   0  0  0  0  0  0  0  0  0  0  0  0
  -17.5330   14.0966  -22.3357 C   0  0  0  0  0  0  0  0  0  0  0  0
  -17.8205   13.4289  -21.1324 C   0  0  0  0  0  0  0  0  0  0  0  0
  -17.0220   12.3163  -21.1549 C   0  0  0  0  0  0  0  0  0  0  0  0
  -17.3471   11.9923  -18.3517 H   0  0  0  0  0  0  0  0  0  0  0  0
  -18.2802   10.5539  -18.9070 H   0  0  0  0  0  0  0  0  0  0  0  0
  -18.8056   13.8638  -20.1459 C   0  0  0  0  0  0  0  0  0  0  0  0
  -20.1449   13.5641  -20.1959 C   0  0  0  0  0  0  0  0  0  0  0  0
  -21.0068   14.0006  -19.2221 C   0  0  0  0  0  0  0  0  0  0  0  0
  -20.5448   14.7545  -18.1659 C   0  0  0  0  0  0  0  0  0  0  0  0
  -19.2054   15.0715  -18.0889 C   0  0  0  0  0  0  0  0  0  0  0  0
  -18.3626   14.6250  -19.0720 C   0  0  0  0  0  0  0  0  0  0  0  0
  -21.4539   15.1649  -17.2187 O   0  0  0  0  0  0  0  0  0  0  0  0
  -21.7019   14.3820  -16.0773 C   0  0  0  0  0  0  0  0  0  0  0  0
  -21.2072   13.1041  -15.9622 C   0  0  0  0  0  0  0  0  0  0  0  0
  -21.4418   12.3224  -14.8478 C   0  0  0  0  0  0  0  0  0  0  0  0
  -22.2006   12.8305  -13.8015 C   0  0  0  0  0  0  0  0  0  0  0  0
  -22.6953   14.1121  -13.9199 C   0  0  0  0  0  0  0  0  0  0  0  0
  -22.4477   14.8741  -15.0428 C   0  0  0  0  0  0  0  0  0  0  0  0
  -16.0169   13.7042  -24.3094 C   0  0  0  0  0  0  0  0  0  0  0  0
  -14.7859   14.5761  -24.1567 C   0  0  0  0  0  0  0  0  0  0  0  0
  -14.5589   15.0242  -25.6040 C   0  0  0  0  0  0  0  0  0  0  0  0
  -15.9262   15.0188  -26.2520 C   0  0  0  0  0  0  0  0  0  0  0  0
  -16.8981   14.5380  -25.1885 C   0  0  0  0  0  0  0  0  0  0  0  0
  1  2  1  0  0  0
  2  3  2  0  0  0
  3  4  1  0  0  0
  4  5  2  0  0  0
  5  6  1  0  0  0
  6  7  1  0  0  0
  7  8  1  0  0  0
  8  9  2  0  0  0
  9 13  1  0  0  0
 13 14  2  0  0  0
 14 15  1  0  0  0
 15 16  2  0  0  0
 16 19  1  0  0  0
 19 20  1  0  0  0
 20 21  2  0  0  0
 21 22  1  0  0  0
 22 23  2  0  0  0
 23 24  1  0  0  0
 24 25  2  0  0  0
 16 17  1  0  0  0
 17 18  2  0  0  0
  9 10  1  0  0  0
  7 26  1  0  0  0
 26 27  1  0  0  0
 27 28  1  0  0  0
 28 29  1  0  0  0
 29 30  1  0  0  0
 10  2  1  0  0  0
 30 26  1  0  0  0
 10  6  2  0  0  0
 18 13  1  0  0  0
 25 20  1  0  0  0
  1 11  1  0  0  0
  1 12  1  0  0  0
M  END
> <minimizedAffinity>
-8.52498

> <CNNscore>
0.6264430881

> <CNNaffinity>
6.9342718124

> <CNN_VS>
4.3439264297

> <CNNaffinity_variance>
0.2212493122

$$$$
[H]c1nc(N([H])[H])c2c(-c3c([H])c([H])c(Oc4c([H])c([H])c([H])c([H])c4[H])c([H])c3[H])c([H])n(C3([H])C([H])([H])C([H])([H])C([H])([H])C3([H])[H])c2n1


 30 34  0  0  0  0  0  0  0  0999 V2000
  -18.2354   11.7244  -18.2951 N   0  0  0  0  0  0  0  0  0  0  0  0
  -17.5353   11.4899  -19.5031 C   0  0  0  0  0  0  0  0  0  0  0  0
  -16.7885   10.3593  -19.6625 N   0  0  0  0  0  0  0  0  0  0  0  0
  -16.1162   10.1736  -20.8034 C   0  0  0  0  0  0  0  0  0  0  0  0
  -16.1607   11.0754  -21.7937 N   0  0  0  0  0  0  0  0  0  0  0  0
  -16.8955   12.2069  -21.6605 C   0  0  0  0  0  0  0  0  0  0  0  0
  -17.1051   13.2613  -22.4729 N   0  0  0  0  0  0  0  0  0  0  0  0
  -17.9124   14.1322  -21.8678 C   0  0  0  0  0  0  0  0  0  0  0  0
  -18.2629   13.6468  -20.5958 C   0  0  0  0  0  0  0  0  0  0  0  0
  -17.6132   12.4454  -20.4929 C   0  0  0  0  0  0  0  0  0  0  0  0
  -17.9311   12.4838  -17.6704 H   0  0  0  0  0  0  0  0  0  0  0  0
  -19.0489   11.1239  -18.0567 H   0  0  0  0  0  0  0  0  0  0  0  0
  -19.1683   14.3130  -19.6634 C   0  0  0  0  0  0  0  0  0  0  0  0
  -20.5238   14.1003  -19.6053 C   0  0  0  0  0  0  0  0  0  0  0  0
  -21.3069   14.7577  -18.6908 C   0  0  0  0  0  0  0  0  0  0  0  0
  -20.7471   15.6516  -17.8050 C   0  0  0  0  0  0  0  0  0  0  0  0
  -19.3891   15.8860  -17.8396 C   0  0  0  0  0  0  0  0  0  0  0  0
  -18.6261   15.2187  -18.7608 C   0  0  0  0  0  0  0  0  0  0  0  0
  -21.5801   16.2818  -16.9100 O   0  0  0  0  0  0  0  0  0  0  0  0
  -21.1137   17.3556  -16.1310 C   0  0  0  0  0  0  0  0  0  0  0  0
  -21.0562   18.6346  -16.6329 C   0  0  0  0  0  0  0  0  0  0  0  0
  -20.6006   19.6997  -15.8808 C   0  0  0  0  0  0  0  0  0  0  0  0
  -20.1835   19.4871  -14.5733 C   0  0  0  0  0  0  0  0  0  0  0  0
  -20.2423   18.2036  -14.0729 C   0  0  0  0  0  0  0  0  0  0  0  0
  -20.7012   17.1553  -14.8433 C   0  0  0  0  0  0  0  0  0  0  0  0
  -16.4912   13.3284  -23.7867 C   0  0  0  0  0  0  0  0  0  0  0  0
  -15.3211   14.2924  -23.8007 C   0  0  0  0  0  0  0  0  0  0  0  0
  -15.0876   14.4532  -25.3062 C   0  0  0  0  0  0  0  0  0  0  0  0
  -16.4359   14.2269  -25.9546 C   0  0  0  0  0  0  0  0  0  0  0  0
  -17.4013   13.9076  -24.8263 C   0  0  0  0  0  0  0  0  0  0  0  0
  1  2  1  0  0  0
  2  3  2  0  0  0
  3  4  1  0  0  0
  4  5  2  0  0  0
  5  6  1  0  0  0
  6  7  1  0  0  0
  7  8  1  0  0  0
  8  9  2  0  0  0
  9 13  1  0  0  0
 13 14  2  0  0  0
 14 15  1  0  0  0
 15 16  2  0  0  0
 16 19  1  0  0  0
 19 20  1  0  0  0
 20 21  2  0  0  0
 21 22  1  0  0  0
 22 23  2  0  0  0
 23 24  1  0  0  0
 24 25  2  0  0  0
 16 17  1  0  0  0
 17 18  2  0  0  0
  9 10  1  0  0  0
  7 26  1  0  0  0
 26 27  1  0  0  0
 27 28  1  0  0  0
 28 29  1  0  0  0
 29 30  1  0  0  0
 10  2  1  0  0  0
 30 26  1  0  0  0
 10  6  2  0  0  0
 18 13  1  0  0  0
 25 20  1  0  0  0
  1 11  1  0  0  0
  1 12  1  0  0  0
M  END
> <minimizedAffinity>
-8.28157

> <CNNscore>
0.5870069265

> <CNNaffinity>
7.0192198753

> <CNN_VS>
4.1203308105

> <CNNaffinity_variance>
0.3805948794

$$$$
[H]c1nc(N([H])[H])c2c(-c3c([H])c([H])c(Oc4c([H])c([H])c([H])c([H])c4[H])c([H])c3[H])c([H])n(C3([H])C([H])([H])C([H])([H])C([H])([H])C3([H])[H])c2n1


 30 34  0  0  0  0  0  0  0  0999 V2000
  -17.2545   10.3877  -20.7616 N   0  0  0  0  0  0  0  0  0  0  0  0
  -17.0611   11.6620  -21.3476 C   0  0  0  0  0  0  0  0  0  0  0  0
  -16.4181   11.7834  -22.5446 N   0  0  0  0  0  0  0  0  0  0  0  0
  -16.2256   13.0003  -23.0645 C   0  0  0  0  0  0  0  0  0  0  0  0
  -16.6513   14.1034  -22.4336 N   0  0  0  0  0  0  0  0  0  0  0  0
  -17.2931   14.0100  -21.2431 C   0  0  0  0  0  0  0  0  0  0  0  0
  -17.8059   14.9334  -20.4065 N   0  0  0  0  0  0  0  0  0  0  0  0
  -18.3335   14.3240  -19.3451 C   0  0  0  0  0  0  0  0  0  0  0  0
  -18.1713   12.9331  -19.4695 C   0  0  0  0  0  0  0  0  0  0  0  0
  -17.5181   12.7663  -20.6617 C   0  0  0  0  0  0  0  0  0  0  0  0
  -16.7446   10.1408  -19.9022 H   0  0  0  0  0  0  0  0  0  0  0  0
  -17.9107    9.7187  -21.2099 H   0  0  0  0  0  0  0  0  0  0  0  0
  -18.6636   11.9422  -18.5163 C   0  0  0  0  0  0  0  0  0  0  0  0
  -19.8544   12.0355  -17.8385 C   0  0  0  0  0  0  0  0  0  0  0  0
  -20.2536   11.0548  -16.9664 C   0  0  0  0  0  0  0  0  0  0  0  0
  -19.4632    9.9477  -16.7497 C   0  0  0  0  0  0  0  0  0  0  0  0
  -18.2622    9.8264  -17.4154 C   0  0  0  0  0  0  0  0  0  0  0  0
  -17.8834   10.8173  -18.2818 C   0  0  0  0  0  0  0  0  0  0  0  0
  -19.9134    8.9960  -15.8644 O   0  0  0  0  0  0  0  0  0  0  0  0
  -19.6411    9.1107  -14.4896 C   0  0  0  0  0  0  0  0  0  0  0  0
  -19.6104   10.3347  -13.8638 C   0  0  0  0  0  0  0  0  0  0  0  0
  -19.3445   10.4642  -12.5145 C   0  0  0  0  0  0  0  0  0  0  0  0
  -19.0979    9.3297  -11.7525 C   0  0  0  0  0  0  0  0  0  0  0  0
  -19.1293    8.1037  -12.3829 C   0  0  0  0  0  0  0  0  0  0  0  0
  -19.3972    7.9993  -13.7320 C   0  0  0  0  0  0  0  0  0  0  0  0
  -17.7357   16.3492  -20.7197 C   0  0  0  0  0  0  0  0  0  0  0  0
  -16.3584   16.9115  -20.4270 C   0  0  0  0  0  0  0  0  0  0  0  0
  -16.6337   18.4172  -20.4898 C   0  0  0  0  0  0  0  0  0  0  0  0
  -18.0838   18.5838  -20.0910 C   0  0  0  0  0  0  0  0  0  0  0  0
  -18.6198   17.1842  -19.8447 C   0  0  0  0  0  0  0  0  0  0  0  0
  1  2  1  0  0  0
  2  3  2  0  0  0
  3  4  1  0  0  0
  4  5  2  0  0  0
  5  6  1  0  0  0
  6  7  1  0  0  0
  7  8  1  0  0  0
  8  9  2  0  0  0
  9 13  1  0  0  0
 13 14  2  0  0  0
 14 15  1  0  0  0
 15 16  2  0  0  0
 16 19  1  0  0  0
 19 20  1  0  0  0
 20 21  2  0  0  0
 21 22  1  0  0  0
 22 23  2  0  0  0
 23 24  1  0  0  0
 24 25  2  0  0  0
 16 17  1  0  0  0
 17 18  2  0  0  0
  9 10  1  0  0  0
  7 26  1  0  0  0
 26 27  1  0  0  0
 27 28  1  0  0  0
 28 29  1  0  0  0
 29 30  1  0  0  0
 10  2  1  0  0  0
 30 26  1  0  0  0
 10  6  2  0  0  0
 18 13  1  0  0  0
 25 20  1  0  0  0
  1 11  1  0  0  0
  1 12  1  0  0  0
M  END
> <minimizedAffinity>
-8.15840

> <CNNscore>
0.5412225723

> <CNNaffinity>
6.8112802505

> <CNN_VS>
3.6864185333

> <CNNaffinity_variance>
0.3005910516

$$$$
[H]c1nc(N([H])[H])c2c(-c3c([H])c([H])c(Oc4c([H])c([H])c([H])c([H])c4[H])c([H])c3[H])c([H])n(C3([H])C([H])([H])C([H])([H])C([H])([H])C3([H])[H])c2n1


 30 34  0  0  0  0  0  0  0  0999 V2000
  -17.9552    9.3728  -17.5502 N   0  0  0  0  0  0  0  0  0  0  0  0
  -17.7233   10.2995  -18.5952 C   0  0  0  0  0  0  0  0  0  0  0  0
  -16.8511   10.0043  -19.6017 N   0  0  0  0  0  0  0  0  0  0  0  0
  -16.6303   10.9071  -20.5633 C   0  0  0  0  0  0  0  0  0  0  0  0
  -17.2483   12.0962  -20.5584 N   0  0  0  0  0  0  0  0  0  0  0  0
  -18.1198   12.4140  -19.5697 C   0  0  0  0  0  0  0  0  0  0  0  0
  -18.8549   13.5150  -19.3184 N   0  0  0  0  0  0  0  0  0  0  0  0
  -19.5550   13.3332  -18.1991 C   0  0  0  0  0  0  0  0  0  0  0  0
  -19.2828   12.0582  -17.6730 C   0  0  0  0  0  0  0  0  0  0  0  0
  -18.3835   11.5081  -18.5474 C   0  0  0  0  0  0  0  0  0  0  0  0
  -17.6236    9.5856  -16.5992 H   0  0  0  0  0  0  0  0  0  0  0  0
  -18.4585    8.4886  -17.7602 H   0  0  0  0  0  0  0  0  0  0  0  0
  -19.9017   11.4944  -16.4764 C   0  0  0  0  0  0  0  0  0  0  0  0
  -19.5109   11.7744  -15.1899 C   0  0  0  0  0  0  0  0  0  0  0  0
  -20.1519   11.2125  -14.1151 C   0  0  0  0  0  0  0  0  0  0  0  0
  -21.2084   10.3492  -14.3040 C   0  0  0  0  0  0  0  0  0  0  0  0
  -21.6231   10.0488  -15.5839 C   0  0  0  0  0  0  0  0  0  0  0  0
  -20.9689   10.6212  -16.6424 C   0  0  0  0  0  0  0  0  0  0  0  0
  -21.8136    9.8155  -13.1900 O   0  0  0  0  0  0  0  0  0  0  0  0
  -21.7227    8.4394  -12.9154 C   0  0  0  0  0  0  0  0  0  0  0  0
  -20.5733    7.8840  -12.4041 C   0  0  0  0  0  0  0  0  0  0  0  0
  -20.4681    6.5345  -12.1291 C   0  0  0  0  0  0  0  0  0  0  0  0
  -21.5504    5.6990  -12.3719 C   0  0  0  0  0  0  0  0  0  0  0  0
  -22.7016    6.2588  -12.8846 C   0  0  0  0  0  0  0  0  0  0  0  0
  -22.7831    7.6097  -13.1514 C   0  0  0  0  0  0  0  0  0  0  0  0
  -18.8095   14.6641  -20.2044 C   0  0  0  0  0  0  0  0  0  0  0  0
  -18.6389   14.2401  -21.6500 C   0  0  0  0  0  0  0  0  0  0  0  0
  -18.2704   15.5734  -22.3083 C   0  0  0  0  0  0  0  0  0  0  0  0
  -17.5871   16.3857  -21.2299 C   0  0  0  0  0  0  0  0  0  0  0  0
  -17.6078   15.5290  -19.9759 C   0  0  0  0  0  0  0  0  0  0  0  0
  1  2  1  0  0  0
  2  3  2  0  0  0
  3  4  1  0  0  0
  4  5  2  0  0  0
  5  6  1  0  0  0
  6  7  1  0  0  0
  7  8  1  0  0  0
  8  9  2  0  0  0
  9 13  1  0  0  0
 13 14  2  0  0  0
 14 15  1  0  0  0
 15 16  2  0  0  0
 16 19  1  0  0  0
 19 20  1  0  0  0
 20 21  2  0  0  0
 21 22  1  0  0  0
 22 23  2  0  0  0
 23 24  1  0  0  0
 24 25  2  0  0  0
 16 17  1  0  0  0
 17 18  2  0  0  0
  9 10  1  0  0  0
  7 26  1  0  0  0
 26 27  1  0  0  0
 27 28  1  0  0  0
 28 29  1  0  0  0
 29 30  1  0  0  0
 10  2  1  0  0  0
 30 26  1  0  0  0
 10  6  2  0  0  0
 18 13  1  0  0  0
 25 20  1  0  0  0
  1 11  1  0  0  0
  1 12  1  0  0  0
M  END
> <minimizedAffinity>
-6.63549

> <CNNscore>
0.5153540969

> <CNNaffinity>
6.6230430603

> <CNN_VS>
3.4132122993

> <CNNaffinity_variance>
0.4432808757

$$$$
[H]Oc1c([H])c([H])c([H])c2c3c(Br)c([H])c([H])c([H])c3n([C@]3([H])O[C@]([H])(C([H])([H])O[H])[C@@]([H])(O[H])[C@]([H])(O[H])[C@@]3([H])O[H])c12


 31 34  0  0  0  0  0  0  0  0999 V2000
  -19.1865   13.2840  -18.4895 N   0  0  0  0  0  0  0  0  0  0  0  0
  -19.1381   12.0344  -17.9537 C   0  0  0  0  0  0  0  0  0  0  0  0
  -19.7294   11.5163  -16.8432 C   0  0  0  0  0  0  0  0  0  0  0  0
  -20.5365   12.3374  -16.0668 O   0  0  0  0  0  0  0  0  0  0  0  0
  -19.5593   10.1891  -16.4489 C   0  0  0  0  0  0  0  0  0  0  0  0
  -18.7556    9.4028  -17.2382 C   0  0  0  0  0  0  0  0  0  0  0  0
  -18.1364    9.8883  -18.3739 C   0  0  0  0  0  0  0  0  0  0  0  0
  -18.3324   11.2048  -18.7252 C   0  0  0  0  0  0  0  0  0  0  0  0
  -17.8675   11.9522  -19.7661 C   0  0  0  0  0  0  0  0  0  0  0  0
  -17.0437   11.6876  -20.8412 C   0  0  0  0  0  0  0  0  0  0  0  0
  -16.2939    9.9445  -21.0873 Br  0  0  0  0  0  0  0  0  0  0  0  0
  -16.7399   12.6845  -21.7711 C   0  0  0  0  0  0  0  0  0  0  0  0
  -17.2749   13.9322  -21.5974 C   0  0  0  0  0  0  0  0  0  0  0  0
  -18.0991   14.1786  -20.5129 C   0  0  0  0  0  0  0  0  0  0  0  0
  -18.4074   13.2035  -19.5870 C   0  0  0  0  0  0  0  0  0  0  0  0
  -20.9964   11.9975  -15.2337 H   0  0  0  0  0  0  0  0  0  0  0  0
  -21.5354   15.9468  -18.3807 C   0  0  0  0  0  0  0  0  0  0  0  0
  -20.5784   15.1546  -19.0270 O   0  0  0  0  0  0  0  0  0  0  0  0
  -19.8841   14.4656  -18.0452 C   0  0  0  0  0  0  0  0  0  0  0  0
  -19.1276   15.3271  -17.0863 C   0  0  0  0  0  0  0  0  0  0  0  0
  -18.4105   14.5228  -16.2098 O   0  0  0  0  0  0  0  0  0  0  0  0
  -20.1844   16.1485  -16.3261 C   0  0  0  0  0  0  0  0  0  0  0  0
  -19.6020   16.9792  -15.4032 O   0  0  0  0  0  0  0  0  0  0  0  0
  -20.9098   16.9347  -17.4266 C   0  0  0  0  0  0  0  0  0  0  0  0
  -21.9038   17.7263  -16.9014 O   0  0  0  0  0  0  0  0  0  0  0  0
  -18.1245   15.0793  -15.4474 H   0  0  0  0  0  0  0  0  0  0  0  0
  -19.8349   16.7386  -14.4554 H   0  0  0  0  0  0  0  0  0  0  0  0
  -21.8976   17.6874  -15.8943 H   0  0  0  0  0  0  0  0  0  0  0  0
  -21.5888   17.8377  -19.8171 O   0  0  0  0  0  0  0  0  0  0  0  0
  -22.3045   16.7166  -19.4439 C   0  0  0  0  0  0  0  0  0  0  0  0
  -21.8014   18.5770  -19.1957 H   0  0  0  0  0  0  0  0  0  0  0  0
 29 30  1  0  0  0
 30 17  1  0  0  0
 17 18  1  0  0  0
 18 19  1  0  0  0
 19 20  1  0  0  0
 20 21  1  0  0  0
 20 22  1  0  0  0
 22 23  1  0  0  0
 22 24  1  0  0  0
 24 25  1  0  0  0
 19  1  1  0  0  0
  1  2  1  0  0  0
  2  3  2  0  0  0
  3  4  1  0  0  0
  3  5  1  0  0  0
  5  6  2  0  0  0
  6  7  1  0  0  0
  7  8  2  0  0  0
  8  9  1  0  0  0
  9 10  2  0  0  0
 10 11  1  0  0  0
 10 12  1  0  0  0
 12 13  2  0  0  0
 13 14  1  0  0  0
 14 15  2  0  0  0
 24 17  1  0  0  0
 15  1  1  0  0  0
  8  2  1  0  0  0
 15  9  1  0  0  0
 29 31  1  0  0  0
 21 26  1  0  0  0
 23 27  1  0  0  0
 25 28  1  0  0  0
  4 16  1  0  0  0
M  END
> <minimizedAffinity>
-8.48273

> <CNNscore>
0.6495020390

> <CNNaffinity>
5.4752769470

> <CNN_VS>
3.5562036037

> <CNNaffinity_variance>
0.1493144184

$$$$
[H]Oc1c([H])c([H])c([H])c2c3c(Br)c([H])c([H])c([H])c3n([C@]3([H])O[C@]([H])(C([H])([H])O[H])[C@@]([H])(O[H])[C@]([H])(O[H])[C@@]3([H])O[H])c12


 31 34  0  0  0  0  0  0  0  0999 V2000
  -19.0134   14.1935  -19.0342 N   0  0  0  0  0  0  0  0  0  0  0  0
  -18.2975   14.4047  -20.1716 C   0  0  0  0  0  0  0  0  0  0  0  0
  -18.1378   15.5225  -20.9308 C   0  0  0  0  0  0  0  0  0  0  0  0
  -18.7831   16.6915  -20.5492 O   0  0  0  0  0  0  0  0  0  0  0  0
  -17.3496   15.5453  -22.0815 C   0  0  0  0  0  0  0  0  0  0  0  0
  -16.7243   14.3734  -22.4316 C   0  0  0  0  0  0  0  0  0  0  0  0
  -16.8591   13.2159  -21.6894 C   0  0  0  0  0  0  0  0  0  0  0  0
  -17.6471   13.2393  -20.5609 C   0  0  0  0  0  0  0  0  0  0  0  0
  -17.9632   12.2790  -19.6464 C   0  0  0  0  0  0  0  0  0  0  0  0
  -17.6262   10.9488  -19.5006 C   0  0  0  0  0  0  0  0  0  0  0  0
  -16.4734   10.0922  -20.7650 Br  0  0  0  0  0  0  0  0  0  0  0  0
  -18.1183   10.2002  -18.4289 C   0  0  0  0  0  0  0  0  0  0  0  0
  -18.9431   10.8105  -17.5232 C   0  0  0  0  0  0  0  0  0  0  0  0
  -19.2699   12.1457  -17.6861 C   0  0  0  0  0  0  0  0  0  0  0  0
  -18.7912   12.8967  -18.7396 C   0  0  0  0  0  0  0  0  0  0  0  0
  -18.6945   17.5460  -21.0811 H   0  0  0  0  0  0  0  0  0  0  0  0
  -21.7645   16.2306  -18.0844 C   0  0  0  0  0  0  0  0  0  0  0  0
  -20.7900   15.7959  -18.9913 O   0  0  0  0  0  0  0  0  0  0  0  0
  -19.8385   15.0947  -18.2677 C   0  0  0  0  0  0  0  0  0  0  0  0
  -19.1137   15.8976  -17.2362 C   0  0  0  0  0  0  0  0  0  0  0  0
  -18.1352   15.1108  -16.6422 O   0  0  0  0  0  0  0  0  0  0  0  0
  -20.1730   16.3175  -16.2012 C   0  0  0  0  0  0  0  0  0  0  0  0
  -19.6172   17.0611  -15.1916 O   0  0  0  0  0  0  0  0  0  0  0  0
  -21.1908   17.1279  -17.0153 C   0  0  0  0  0  0  0  0  0  0  0  0
  -22.2198   17.5772  -16.2217 O   0  0  0  0  0  0  0  0  0  0  0  0
  -17.8418   15.5594  -15.8144 H   0  0  0  0  0  0  0  0  0  0  0  0
  -19.6533   16.6007  -14.2986 H   0  0  0  0  0  0  0  0  0  0  0  0
  -22.0514   17.3495  -15.2545 H   0  0  0  0  0  0  0  0  0  0  0  0
  -22.3613   18.2901  -19.1060 O   0  0  0  0  0  0  0  0  0  0  0  0
  -22.8160   17.0089  -18.8611 C   0  0  0  0  0  0  0  0  0  0  0  0
  -22.5789   18.8630  -18.3298 H   0  0  0  0  0  0  0  0  0  0  0  0
 29 30  1  0  0  0
 30 17  1  0  0  0
 17 18  1  0  0  0
 18 19  1  0  0  0
 19 20  1  0  0  0
 20 21  1  0  0  0
 20 22  1  0  0  0
 22 23  1  0  0  0
 22 24  1  0  0  0
 24 25  1  0  0  0
 19  1  1  0  0  0
  1  2  1  0  0  0
  2  3  2  0  0  0
  3  4  1  0  0  0
  3  5  1  0  0  0
  5  6  2  0  0  0
  6  7  1  0  0  0
  7  8  2  0  0  0
  8  9  1  0  0  0
  9 10  2  0  0  0
 10 11  1  0  0  0
 10 12  1  0  0  0
 12 13  2  0  0  0
 13 14  1  0  0  0
 14 15  2  0  0  0
 24 17  1  0  0  0
 15  1  1  0  0  0
  8  2  1  0  0  0
 15  9  1  0  0  0
 29 31  1  0  0  0
 21 26  1  0  0  0
 23 27  1  0  0  0
 25 28  1  0  0  0
  4 16  1  0  0  0
M  END
> <minimizedAffinity>
-7.93863

> <CNNscore>
0.4683402181

> <CNNaffinity>
5.3243350983

> <CNN_VS>
2.4936003685

> <CNNaffinity_variance>
0.1099738702

$$$$
[H]Oc1c([H])c([H])c([H])c2c3c(Br)c([H])c([H])c([H])c3n([C@]3([H])O[C@]([H])(C([H])([H])O[H])[C@@]([H])(O[H])[C@]([H])(O[H])[C@@]3([H])O[H])c12


 31 34  0  0  0  0  0  0  0  0999 V2000
  -19.2607   13.8144  -18.4667 N   0  0  0  0  0  0  0  0  0  0  0  0
  -19.3311   12.6398  -17.7839 C   0  0  0  0  0  0  0  0  0  0  0  0
  -19.9573   12.3212  -16.6186 C   0  0  0  0  0  0  0  0  0  0  0  0
  -20.6682   13.3069  -15.9469 O   0  0  0  0  0  0  0  0  0  0  0  0
  -19.9162   11.0406  -16.0671 C   0  0  0  0  0  0  0  0  0  0  0  0
  -19.2053   10.0880  -16.7560 C   0  0  0  0  0  0  0  0  0  0  0  0
  -18.5549   10.3686  -17.9422 C   0  0  0  0  0  0  0  0  0  0  0  0
  -18.6223   11.6464  -18.4498 C   0  0  0  0  0  0  0  0  0  0  0  0
  -18.0980   12.2125  -19.5736 C   0  0  0  0  0  0  0  0  0  0  0  0
  -17.3185   11.7388  -20.6092 C   0  0  0  0  0  0  0  0  0  0  0  0
  -16.7503    9.9120  -20.6432 Br  0  0  0  0  0  0  0  0  0  0  0  0
  -16.9280   12.5810  -21.6528 C   0  0  0  0  0  0  0  0  0  0  0  0
  -17.3331   13.8881  -21.6308 C   0  0  0  0  0  0  0  0  0  0  0  0
  -18.1147   14.3450  -20.5837 C   0  0  0  0  0  0  0  0  0  0  0  0
  -18.5074   13.5244  -19.5467 C   0  0  0  0  0  0  0  0  0  0  0  0
  -21.1492   13.1178  -15.0786 H   0  0  0  0  0  0  0  0  0  0  0  0
  -19.6516   17.0700  -17.0998 C   0  0  0  0  0  0  0  0  0  0  0  0
  -19.3856   15.6989  -16.9974 O   0  0  0  0  0  0  0  0  0  0  0  0
  -19.8307   15.1052  -18.1680 C   0  0  0  0  0  0  0  0  0  0  0  0
  -21.2999   15.2235  -18.4151 C   0  0  0  0  0  0  0  0  0  0  0  0
  -21.6325   14.5209  -19.5664 O   0  0  0  0  0  0  0  0  0  0  0  0
  -21.5820   16.7257  -18.5971 C   0  0  0  0  0  0  0  0  0  0  0  0
  -22.9117   16.9582  -18.8399 O   0  0  0  0  0  0  0  0  0  0  0  0
  -21.1231   17.3553  -17.2748 C   0  0  0  0  0  0  0  0  0  0  0  0
  -21.3076   18.7178  -17.2807 O   0  0  0  0  0  0  0  0  0  0  0  0
  -22.5328   14.8064  -19.8503 H   0  0  0  0  0  0  0  0  0  0  0  0
  -23.0850   17.3263  -19.7592 H   0  0  0  0  0  0  0  0  0  0  0  0
  -21.7802   19.0113  -18.1210 H   0  0  0  0  0  0  0  0  0  0  0  0
  -19.8422   17.2006  -14.7359 O   0  0  0  0  0  0  0  0  0  0  0  0
  -19.1747   17.7385  -15.8190 C   0  0  0  0  0  0  0  0  0  0  0  0
  -20.6971   17.6822  -14.6128 H   0  0  0  0  0  0  0  0  0  0  0  0
 29 30  1  0  0  0
 30 17  1  0  0  0
 17 18  1  0  0  0
 18 19  1  0  0  0
 19 20  1  0  0  0
 20 21  1  0  0  0
 20 22  1  0  0  0
 22 23  1  0  0  0
 22 24  1  0  0  0
 24 25  1  0  0  0
 19  1  1  0  0  0
  1  2  1  0  0  0
  2  3  2  0  0  0
  3  4  1  0  0  0
  3  5  1  0  0  0
  5  6  2  0  0  0
  6  7  1  0  0  0
  7  8  2  0  0  0
  8  9  1  0  0  0
  9 10  2  0  0  0
 10 11  1  0  0  0
 10 12  1  0  0  0
 12 13  2  0  0  0
 13 14  1  0  0  0
 14 15  2  0  0  0
 24 17  1  0  0  0
 15  1  1  0  0  0
  8  2  1  0  0  0
 15  9  1  0  0  0
 29 31  1  0  0  0
 21 26  1  0  0  0
 23 27  1  0  0  0
 25 28  1  0  0  0
  4 16  1  0  0  0
M  END
> <minimizedAffinity>
-8.43453

> <CNNscore>
0.4301549196

> <CNNaffinity>
5.1193432808

> <CNN_VS>
2.2021107674

> <CNNaffinity_variance>
0.1833623201

$$$$
[H]Oc1c([H])c([H])c([H])c2c3c(Br)c([H])c([H])c([H])c3n([C@]3([H])O[C@]([H])(C([H])([H])O[H])[C@@]([H])(O[H])[C@]([H])(O[H])[C@@]3([H])O[H])c12


 31 34  0  0  0  0  0  0  0  0999 V2000
  -19.8832   11.6526  -17.2356 N   0  0  0  0  0  0  0  0  0  0  0  0
  -18.8915   11.3101  -18.1017 C   0  0  0  0  0  0  0  0  0  0  0  0
  -18.0991   10.2055  -18.1591 C   0  0  0  0  0  0  0  0  0  0  0  0
  -18.2660    9.2088  -17.2067 O   0  0  0  0  0  0  0  0  0  0  0  0
  -17.1216   10.0298  -19.1387 C   0  0  0  0  0  0  0  0  0  0  0  0
  -16.9818   11.0333  -20.0665 C   0  0  0  0  0  0  0  0  0  0  0  0
  -17.7652   12.1711  -20.0449 C   0  0  0  0  0  0  0  0  0  0  0  0
  -18.7177   12.3024  -19.0597 C   0  0  0  0  0  0  0  0  0  0  0  0
  -19.6210   13.2862  -18.7866 C   0  0  0  0  0  0  0  0  0  0  0  0
  -19.9230   14.4978  -19.3742 C   0  0  0  0  0  0  0  0  0  0  0  0
  -18.9665   15.0955  -20.9199 Br  0  0  0  0  0  0  0  0  0  0  0  0
  -20.9314   15.3125  -18.8543 C   0  0  0  0  0  0  0  0  0  0  0  0
  -21.6170   14.8874  -17.7488 C   0  0  0  0  0  0  0  0  0  0  0  0
  -21.2998   13.6691  -17.1732 C   0  0  0  0  0  0  0  0  0  0  0  0
  -20.3064   12.8546  -17.6761 C   0  0  0  0  0  0  0  0  0  0  0  0
  -17.7013    8.3709  -17.2089 H   0  0  0  0  0  0  0  0  0  0  0  0
  -21.8111    9.3880  -15.2927 C   0  0  0  0  0  0  0  0  0  0  0  0
  -21.6655   10.3837  -16.2666 O   0  0  0  0  0  0  0  0  0  0  0  0
  -20.4117   10.9482  -16.0933 C   0  0  0  0  0  0  0  0  0  0  0  0
  -20.2018   11.6244  -14.7770 C   0  0  0  0  0  0  0  0  0  0  0  0
  -18.9467   12.2192  -14.7585 O   0  0  0  0  0  0  0  0  0  0  0  0
  -20.2926   10.5184  -13.7104 C   0  0  0  0  0  0  0  0  0  0  0  0
  -20.1061   11.0244  -12.4493 O   0  0  0  0  0  0  0  0  0  0  0  0
  -21.7019    9.9385  -13.8917 C   0  0  0  0  0  0  0  0  0  0  0  0
  -21.9403    8.9190  -13.0005 O   0  0  0  0  0  0  0  0  0  0  0  0
  -18.7256   12.4394  -13.8229 H   0  0  0  0  0  0  0  0  0  0  0  0
  -19.2685   10.6847  -12.0092 H   0  0  0  0  0  0  0  0  0  0  0  0
  -21.1696    8.8168  -12.3592 H   0  0  0  0  0  0  0  0  0  0  0  0
  -23.1042    7.3960  -15.2639 O   0  0  0  0  0  0  0  0  0  0  0  0
  -23.1863    8.7603  -15.4636 C   0  0  0  0  0  0  0  0  0  0  0  0
  -22.8519    6.9605  -16.1152 H   0  0  0  0  0  0  0  0  0  0  0  0
 29 30  1  0  0  0
 30 17  1  0  0  0
 17 18  1  0  0  0
 18 19  1  0  0  0
 19 20  1  0  0  0
 20 21  1  0  0  0
 20 22  1  0  0  0
 22 23  1  0  0  0
 22 24  1  0  0  0
 24 25  1  0  0  0
 19  1  1  0  0  0
  1  2  1  0  0  0
  2  3  2  0  0  0
  3  4  1  0  0  0
  3  5  1  0  0  0
  5  6  2  0  0  0
  6  7  1  0  0  0
  7  8  2  0  0  0
  8  9  1  0  0  0
  9 10  2  0  0  0
 10 11  1  0  0  0
 10 12  1  0  0  0
 12 13  2  0  0  0
 13 14  1  0  0  0
 14 15  2  0  0  0
 24 17  1  0  0  0
 15  1  1  0  0  0
  8  2  1  0  0  0
 15  9  1  0  0  0
 29 31  1  0  0  0
 21 26  1  0  0  0
 23 27  1  0  0  0
 25 28  1  0  0  0
  4 16  1  0  0  0
M  END
> <minimizedAffinity>
-7.46612

> <CNNscore>
0.4045664370

> <CNNaffinity>
5.1164531708

> <CNN_VS>
2.0699453354

> <CNNaffinity_variance>
0.0155081870

$$$$
[H]Oc1c([H])c([H])c([H])c2c3c(Br)c([H])c([H])c([H])c3n([C@]3([H])O[C@]([H])(C([H])([H])O[H])[C@@]([H])(O[H])[C@]([H])(O[H])[C@@]3([H])O[H])c12


 31 34  0  0  0  0  0  0  0  0999 V2000
  -17.1993   13.4184  -22.3441 N   0  0  0  0  0  0  0  0  0  0  0  0
  -16.7195   12.2928  -21.7492 C   0  0  0  0  0  0  0  0  0  0  0  0
  -15.7316   11.4364  -22.1257 C   0  0  0  0  0  0  0  0  0  0  0  0
  -15.0455   11.6806  -23.3081 O   0  0  0  0  0  0  0  0  0  0  0  0
  -15.3758   10.3183  -21.3713 C   0  0  0  0  0  0  0  0  0  0  0  0
  -16.0728   10.1050  -20.2068 C   0  0  0  0  0  0  0  0  0  0  0  0
  -17.0828   10.9492  -19.7873 C   0  0  0  0  0  0  0  0  0  0  0  0
  -17.4004   12.0408  -20.5636 C   0  0  0  0  0  0  0  0  0  0  0  0
  -18.3255   13.0309  -20.4141 C   0  0  0  0  0  0  0  0  0  0  0  0
  -19.2756   13.3156  -19.4546 C   0  0  0  0  0  0  0  0  0  0  0  0
  -19.4877   12.1819  -17.9279 Br  0  0  0  0  0  0  0  0  0  0  0  0
  -20.1016   14.4353  -19.5770 C   0  0  0  0  0  0  0  0  0  0  0  0
  -19.9520   15.2478  -20.6681 C   0  0  0  0  0  0  0  0  0  0  0  0
  -18.9934   14.9460  -21.6200 C   0  0  0  0  0  0  0  0  0  0  0  0
  -18.1712   13.8436  -21.5118 C   0  0  0  0  0  0  0  0  0  0  0  0
  -14.3045   11.0729  -23.6285 H   0  0  0  0  0  0  0  0  0  0  0  0
  -15.8444   15.8183  -24.5856 C   0  0  0  0  0  0  0  0  0  0  0  0
  -16.6432   15.4383  -23.5000 O   0  0  0  0  0  0  0  0  0  0  0  0
  -16.8105   14.0645  -23.5736 C   0  0  0  0  0  0  0  0  0  0  0  0
  -17.5196   13.5809  -24.7971 C   0  0  0  0  0  0  0  0  0  0  0  0
  -17.6995   12.2061  -24.7134 O   0  0  0  0  0  0  0  0  0  0  0  0
  -16.6089   13.9364  -25.9861 C   0  0  0  0  0  0  0  0  0  0  0  0
  -17.1586   13.5297  -27.1750 O   0  0  0  0  0  0  0  0  0  0  0  0
  -16.4740   15.4633  -25.9105 C   0  0  0  0  0  0  0  0  0  0  0  0
  -15.6726   15.9437  -26.9192 O   0  0  0  0  0  0  0  0  0  0  0  0
  -17.9350   11.8725  -25.6112 H   0  0  0  0  0  0  0  0  0  0  0  0
  -16.6248   12.8087  -27.6287 H   0  0  0  0  0  0  0  0  0  0  0  0
  -15.4046   15.2024  -27.5471 H   0  0  0  0  0  0  0  0  0  0  0  0
  -16.7596   17.9574  -25.0632 O   0  0  0  0  0  0  0  0  0  0  0  0
  -15.6548   17.3266  -24.5250 C   0  0  0  0  0  0  0  0  0  0  0  0
  -16.6437   18.0299  -26.0426 H   0  0  0  0  0  0  0  0  0  0  0  0
 29 30  1  0  0  0
 30 17  1  0  0  0
 17 18  1  0  0  0
 18 19  1  0  0  0
 19 20  1  0  0  0
 20 21  1  0  0  0
 20 22  1  0  0  0
 22 23  1  0  0  0
 22 24  1  0  0  0
 24 25  1  0  0  0
 19  1  1  0  0  0
  1  2  1  0  0  0
  2  3  2  0  0  0
  3  4  1  0  0  0
  3  5  1  0  0  0
  5  6  2  0  0  0
  6  7  1  0  0  0
  7  8  2  0  0  0
  8  9  1  0  0  0
  9 10  2  0  0  0
 10 11  1  0  0  0
 10 12  1  0  0  0
 12 13  2  0  0  0
 13 14  1  0  0  0
 14 15  2  0  0  0
 24 17  1  0  0  0
 15  1  1  0  0  0
  8  2  1  0  0  0
 15  9  1  0  0  0
 29 31  1  0  0  0
 21 26  1  0  0  0
 23 27  1  0  0  0
 25 28  1  0  0  0
  4 16  1  0  0  0
M  END
> <minimizedAffinity>
-9.72146

> <CNNscore>
0.3856389225

> <CNNaffinity>
5.8567438126

> <CNN_VS>
2.2585883141

> <CNNaffinity_variance>
0.0555996113

$$$$
[H]Oc1c([H])c([H])c([H])c2c3c(Br)c([H])c([H])c([H])c3n([C@]3([H])O[C@]([H])(C([H])([H])O[H])[C@@]([H])(O[H])[C@]([H])(O[H])[C@@]3([H])O[H])c12


 31 34  0  0  0  0  0  0  0  0999 V2000
  -18.8973   14.6118  -19.4060 N   0  0  0  0  0  0  0  0  0  0  0  0
  -18.2062   14.6043  -20.5778 C   0  0  0  0  0  0  0  0  0  0  0  0
  -17.9933   15.5870  -21.4945 C   0  0  0  0  0  0  0  0  0  0  0  0
  -18.5416   16.8433  -21.2719 O   0  0  0  0  0  0  0  0  0  0  0  0
  -17.2439   15.3863  -22.6538 C   0  0  0  0  0  0  0  0  0  0  0  0
  -16.7147   14.1330  -22.8443 C   0  0  0  0  0  0  0  0  0  0  0  0
  -16.9062   13.1068  -21.9393 C   0  0  0  0  0  0  0  0  0  0  0  0
  -17.6529   13.3500  -20.8086 C   0  0  0  0  0  0  0  0  0  0  0  0
  -18.0055   12.5565  -19.7577 C   0  0  0  0  0  0  0  0  0  0  0  0
  -17.7584   11.2394  -19.4281 C   0  0  0  0  0  0  0  0  0  0  0  0
  -16.7113   10.1274  -20.5806 Br  0  0  0  0  0  0  0  0  0  0  0  0
  -18.2665   10.6905  -18.2485 C   0  0  0  0  0  0  0  0  0  0  0  0
  -19.0157   11.4837  -17.4225 C   0  0  0  0  0  0  0  0  0  0  0  0
  -19.2529   12.8025  -17.7699 C   0  0  0  0  0  0  0  0  0  0  0  0
  -18.7574   13.3574  -18.9316 C   0  0  0  0  0  0  0  0  0  0  0  0
  -18.4106   17.6040  -21.9240 H   0  0  0  0  0  0  0  0  0  0  0  0
  -19.6394   17.3666  -17.2893 C   0  0  0  0  0  0  0  0  0  0  0  0
  -19.1308   16.0852  -17.5351 O   0  0  0  0  0  0  0  0  0  0  0  0
  -19.6310   15.6722  -18.7599 C   0  0  0  0  0  0  0  0  0  0  0  0
  -21.1188   15.5448  -18.8220 C   0  0  0  0  0  0  0  0  0  0  0  0
  -21.4879   15.0459  -20.0647 O   0  0  0  0  0  0  0  0  0  0  0  0
  -21.6771   16.9651  -18.6212 C   0  0  0  0  0  0  0  0  0  0  0  0
  -23.0478   16.9739  -18.6669 O   0  0  0  0  0  0  0  0  0  0  0  0
  -21.1477   17.3837  -17.2428 C   0  0  0  0  0  0  0  0  0  0  0  0
  -21.5616   18.6529  -16.9139 O   0  0  0  0  0  0  0  0  0  0  0  0
  -22.4551   15.1994  -20.1817 H   0  0  0  0  0  0  0  0  0  0  0  0
  -23.4117   17.4836  -19.4533 H   0  0  0  0  0  0  0  0  0  0  0  0
  -22.1932   19.0152  -17.6107 H   0  0  0  0  0  0  0  0  0  0  0  0
  -19.7157   17.1255  -14.9276 O   0  0  0  0  0  0  0  0  0  0  0  0
  -19.1052   17.8346  -15.9439 C   0  0  0  0  0  0  0  0  0  0  0  0
  -20.5667   17.5701  -14.6909 H   0  0  0  0  0  0  0  0  0  0  0  0
 29 30  1  0  0  0
 30 17  1  0  0  0
 17 18  1  0  0  0
 18 19  1  0  0  0
 19 20  1  0  0  0
 20 21  1  0  0  0
 20 22  1  0  0  0
 22 23  1  0  0  0
 22 24  1  0  0  0
 24 25  1  0  0  0
 19  1  1  0  0  0
  1  2  1  0  0  0
  2  3  2  0  0  0
  3  4  1  0  0  0
  3  5  1  0  0  0
  5  6  2  0  0  0
  6  7  1  0  0  0
  7  8  2  0  0  0
  8  9  1  0  0  0
  9 10  2  0  0  0
 10 11  1  0  0  0
 10 12  1  0  0  0
 12 13  2  0  0  0
 13 14  1  0  0  0
 14 15  2  0  0  0
 24 17  1  0  0  0
 15  1  1  0  0  0
  8  2  1  0  0  0
 15  9  1  0  0  0
 29 31  1  0  0  0
 21 26  1  0  0  0
 23 27  1  0  0  0
 25 28  1  0  0  0
  4 16  1  0  0  0
M  END
> <minimizedAffinity>
-7.93611

> <CNNscore>
0.3721015155

> <CNNaffinity>
5.1008315086

> <CNN_VS>
1.8980271816

> <CNNaffinity_variance>
0.1817152798

$$$$
[H]Oc1c([H])c([H])c([H])c2c3c(Br)c([H])c([H])c([H])c3n([C@]3([H])O[C@]([H])(C([H])([H])O[H])[C@@]([H])(O[H])[C@]([H])(O[H])[C@@]3([H])O[H])c12


 31 34  0  0  0  0  0  0  0  0999 V2000
  -17.3330   13.5091  -22.3803 N   0  0  0  0  0  0  0  0  0  0  0  0
  -18.3170   13.8717  -21.5135 C   0  0  0  0  0  0  0  0  0  0  0  0
  -19.1822   14.9216  -21.5345 C   0  0  0  0  0  0  0  0  0  0  0  0
  -19.1157   15.8259  -22.5862 O   0  0  0  0  0  0  0  0  0  0  0  0
  -20.1383   15.1297  -20.5403 C   0  0  0  0  0  0  0  0  0  0  0  0
  -20.1789   14.2172  -19.5141 C   0  0  0  0  0  0  0  0  0  0  0  0
  -19.3193   13.1373  -19.4540 C   0  0  0  0  0  0  0  0  0  0  0  0
  -18.3913   12.9711  -20.4571 C   0  0  0  0  0  0  0  0  0  0  0  0
  -17.4332   12.0248  -20.6686 C   0  0  0  0  0  0  0  0  0  0  0  0
  -17.0325   10.8982  -19.9796 C   0  0  0  0  0  0  0  0  0  0  0  0
  -17.8945   10.3980  -18.3461 Br  0  0  0  0  0  0  0  0  0  0  0  0
  -15.9909   10.1003  -20.4585 C   0  0  0  0  0  0  0  0  0  0  0  0
  -15.3727   10.4559  -21.6266 C   0  0  0  0  0  0  0  0  0  0  0  0
  -15.7885   11.5893  -22.3037 C   0  0  0  0  0  0  0  0  0  0  0  0
  -16.8155   12.3863  -21.8421 C   0  0  0  0  0  0  0  0  0  0  0  0
  -19.7372   16.6206  -22.6447 H   0  0  0  0  0  0  0  0  0  0  0  0
  -15.8335   15.8357  -24.6070 C   0  0  0  0  0  0  0  0  0  0  0  0
  -16.6720   15.4961  -23.5381 O   0  0  0  0  0  0  0  0  0  0  0  0
  -16.8904   14.1292  -23.6050 C   0  0  0  0  0  0  0  0  0  0  0  0
  -17.5883   13.6625  -24.8415 C   0  0  0  0  0  0  0  0  0  0  0  0
  -17.8231   12.2964  -24.7516 O   0  0  0  0  0  0  0  0  0  0  0  0
  -16.6365   13.9725  -26.0109 C   0  0  0  0  0  0  0  0  0  0  0  0
  -17.1729   13.5769  -27.2096 O   0  0  0  0  0  0  0  0  0  0  0  0
  -16.4446   15.4937  -25.9439 C   0  0  0  0  0  0  0  0  0  0  0  0
  -15.6014   15.9343  -26.9366 O   0  0  0  0  0  0  0  0  0  0  0  0
  -18.0497   11.9644  -25.6521 H   0  0  0  0  0  0  0  0  0  0  0  0
  -16.6567   12.8320  -27.6446 H   0  0  0  0  0  0  0  0  0  0  0  0
  -15.3474   15.1778  -27.5521 H   0  0  0  0  0  0  0  0  0  0  0  0
  -16.6724   18.0058  -25.0847 O   0  0  0  0  0  0  0  0  0  0  0  0
  -15.5874   17.3361  -24.5535 C   0  0  0  0  0  0  0  0  0  0  0  0
  -16.5623   18.0707  -26.0653 H   0  0  0  0  0  0  0  0  0  0  0  0
 29 30  1  0  0  0
 30 17  1  0  0  0
 17 18  1  0  0  0
 18 19  1  0  0  0
 19 20  1  0  0  0
 20 21  1  0  0  0
 20 22  1  0  0  0
 22 23  1  0  0  0
 22 24  1  0  0  0
 24 25  1  0  0  0
 19  1  1  0  0  0
  1  2  1  0  0  0
  2  3  2  0  0  0
  3  4  1  0  0  0
  3  5  1  0  0  0
  5  6  2  0  0  0
  6  7  1  0  0  0
  7  8  2  0  0  0
  8  9  1  0  0  0
  9 10  2  0  0  0
 10 11  1  0  0  0
 10 12  1  0  0  0
 12 13  2  0  0  0
 13 14  1  0  0  0
 14 15  2  0  0  0
 24 17  1  0  0  0
 15  1  1  0  0  0
  8  2  1  0  0  0
 15  9  1  0  0  0
 29 31  1  0  0  0
 21 26  1  0  0  0
 23 27  1  0  0  0
 25 28  1  0  0  0
  4 16  1  0  0  0
M  END
> <minimizedAffinity>
-9.28565

> <CNNscore>
0.3410932422

> <CNNaffinity>
5.6781110764

> <CNN_VS>
1.9367653131

> <CNNaffinity_variance>
0.2067630738

$$$$
[H]Oc1c([H])c([H])c([H])c2c3c(Br)c([H])c([H])c([H])c3n([C@]3([H])O[C@]([H])(C([H])([H])O[H])[C@@]([H])(O[H])[C@]([H])(O[H])[C@@]3([H])O[H])c12


 31 34  0  0  0  0  0  0  0  0999 V2000
  -18.7224   14.9144  -20.7835 N   0  0  0  0  0  0  0  0  0  0  0  0
  -18.2571   14.5322  -22.0035 C   0  0  0  0  0  0  0  0  0  0  0  0
  -18.3267   15.1443  -23.2167 C   0  0  0  0  0  0  0  0  0  0  0  0
  -18.9663   16.3730  -23.3135 O   0  0  0  0  0  0  0  0  0  0  0  0
  -17.7800   14.5882  -24.3734 C   0  0  0  0  0  0  0  0  0  0  0  0
  -17.1535   13.3724  -24.2442 C   0  0  0  0  0  0  0  0  0  0  0  0
  -17.0602   12.7167  -23.0317 C   0  0  0  0  0  0  0  0  0  0  0  0
  -17.6142   13.3027  -21.9160 C   0  0  0  0  0  0  0  0  0  0  0  0
  -17.6787   12.9082  -20.6128 C   0  0  0  0  0  0  0  0  0  0  0  0
  -17.2271   11.8003  -19.9250 C   0  0  0  0  0  0  0  0  0  0  0  0
  -16.2839   10.4067  -20.8358 Br  0  0  0  0  0  0  0  0  0  0  0  0
  -17.4483   11.6724  -18.5518 C   0  0  0  0  0  0  0  0  0  0  0  0
  -18.1227   12.6677  -17.8980 C   0  0  0  0  0  0  0  0  0  0  0  0
  -18.5681   13.7714  -18.6048 C   0  0  0  0  0  0  0  0  0  0  0  0
  -18.3566   13.9106  -19.9609 C   0  0  0  0  0  0  0  0  0  0  0  0
  -19.0429   16.8652  -24.1927 H   0  0  0  0  0  0  0  0  0  0  0  0
  -19.4029   18.2914  -19.9161 C   0  0  0  0  0  0  0  0  0  0  0  0
  -18.6810   17.0967  -19.8031 O   0  0  0  0  0  0  0  0  0  0  0  0
  -19.4445   16.0983  -20.3870 C   0  0  0  0  0  0  0  0  0  0  0  0
  -20.7631   15.8477  -19.7295 C   0  0  0  0  0  0  0  0  0  0  0  0
  -21.3919   14.7755  -20.3496 O   0  0  0  0  0  0  0  0  0  0  0  0
  -21.5834   17.1370  -19.9142 C   0  0  0  0  0  0  0  0  0  0  0  0
  -22.8289   17.0213  -19.3516 O   0  0  0  0  0  0  0  0  0  0  0  0
  -20.7415   18.2182  -19.2230 C   0  0  0  0  0  0  0  0  0  0  0  0
  -21.3461   19.4503  -19.3064 O   0  0  0  0  0  0  0  0  0  0  0  0
  -22.3410   14.7798  -20.0813 H   0  0  0  0  0  0  0  0  0  0  0  0
  -23.5706   17.0488  -20.0297 H   0  0  0  0  0  0  0  0  0  0  0  0
  -22.2554   19.3744  -19.7342 H   0  0  0  0  0  0  0  0  0  0  0  0
  -18.7006   19.3311  -17.8993 O   0  0  0  0  0  0  0  0  0  0  0  0
  -18.5818   19.3996  -19.2739 C   0  0  0  0  0  0  0  0  0  0  0  0
  -19.5066   19.8315  -17.6204 H   0  0  0  0  0  0  0  0  0  0  0  0
 29 30  1  0  0  0
 30 17  1  0  0  0
 17 18  1  0  0  0
 18 19  1  0  0  0
 19 20  1  0  0  0
 20 21  1  0  0  0
 20 22  1  0  0  0
 22 23  1  0  0  0
 22 24  1  0  0  0
 24 25  1  0  0  0
 19  1  1  0  0  0
  1  2  1  0  0  0
  2  3  2  0  0  0
  3  4  1  0  0  0
  3  5  1  0  0  0
  5  6  2  0  0  0
  6  7  1  0  0  0
  7  8  2  0  0  0
  8  9  1  0  0  0
  9 10  2  0  0  0
 10 11  1  0  0  0
 10 12  1  0  0  0
 12 13  2  0  0  0
 13 14  1  0  0  0
 14 15  2  0  0  0
 24 17  1  0  0  0
 15  1  1  0  0  0
  8  2  1  0  0  0
 15  9  1  0  0  0
 29 31  1  0  0  0
 21 26  1  0  0  0
 23 27  1  0  0  0
 25 28  1  0  0  0
  4 16  1  0  0  0
M  END
> <minimizedAffinity>
-8.25836

> <CNNscore>
0.3187353909

> <CNNaffinity>
5.1784682274

> <CNN_VS>
1.6505610943

> <CNNaffinity_variance>
0.0851615891

$$$$
[H]Oc1c([H])c([H])c([H])c2c3c(Br)c([H])c([H])c([H])c3n([C@]3([H])O[C@]([H])(C([H])([H])O[H])[C@@]([H])(O[H])[C@]([H])(O[H])[C@@]3([H])O[H])c12


 31 34  0  0  0  0  0  0  0  0999 V2000
  -17.6183   13.4232  -22.0066 N   0  0  0  0  0  0  0  0  0  0  0  0
  -18.5712   13.8452  -21.1320 C   0  0  0  0  0  0  0  0  0  0  0  0
  -19.3866   14.9341  -21.1577 C   0  0  0  0  0  0  0  0  0  0  0  0
  -19.2937   15.8177  -22.2249 O   0  0  0  0  0  0  0  0  0  0  0  0
  -20.3169   15.2024  -20.1535 C   0  0  0  0  0  0  0  0  0  0  0  0
  -20.3846   14.3091  -19.1121 C   0  0  0  0  0  0  0  0  0  0  0  0
  -19.5757   13.1910  -19.0466 C   0  0  0  0  0  0  0  0  0  0  0  0
  -18.6716   12.9657  -20.0600 C   0  0  0  0  0  0  0  0  0  0  0  0
  -17.7621   11.9722  -20.2697 C   0  0  0  0  0  0  0  0  0  0  0  0
  -17.4042   10.8390  -19.5681 C   0  0  0  0  0  0  0  0  0  0  0  0
  -18.2640   10.4055  -17.9146 Br  0  0  0  0  0  0  0  0  0  0  0  0
  -16.4084    9.9856  -20.0489 C   0  0  0  0  0  0  0  0  0  0  0  0
  -15.7919   10.2934  -21.2313 C   0  0  0  0  0  0  0  0  0  0  0  0
  -16.1644   11.4344  -21.9208 C   0  0  0  0  0  0  0  0  0  0  0  0
  -17.1459   12.2860  -21.4576 C   0  0  0  0  0  0  0  0  0  0  0  0
  -19.8781   16.6397  -22.2875 H   0  0  0  0  0  0  0  0  0  0  0  0
  -17.1581   13.9448  -25.4903 C   0  0  0  0  0  0  0  0  0  0  0  0
  -17.1585   13.1481  -24.3386 O   0  0  0  0  0  0  0  0  0  0  0  0
  -17.1657   14.0026  -23.2475 C   0  0  0  0  0  0  0  0  0  0  0  0
  -15.9688   14.8905  -23.1348 C   0  0  0  0  0  0  0  0  0  0  0  0
  -16.0534   15.6330  -21.9639 O   0  0  0  0  0  0  0  0  0  0  0  0
  -16.0060   15.8143  -24.3656 C   0  0  0  0  0  0  0  0  0  0  0  0
  -14.9486   16.6878  -24.3662 O   0  0  0  0  0  0  0  0  0  0  0  0
  -15.9526   14.8502  -25.5586 C   0  0  0  0  0  0  0  0  0  0  0  0
  -15.9836   15.5318  -26.7523 O   0  0  0  0  0  0  0  0  0  0  0  0
  -15.4059   16.3745  -22.0237 H   0  0  0  0  0  0  0  0  0  0  0  0
  -15.2311   17.6470  -24.2627 H   0  0  0  0  0  0  0  0  0  0  0  0
  -15.9539   16.5271  -26.5969 H   0  0  0  0  0  0  0  0  0  0  0  0
  -17.9197   11.9083  -26.4464 O   0  0  0  0  0  0  0  0  0  0  0  0
  -17.1437   13.0226  -26.7002 C   0  0  0  0  0  0  0  0  0  0  0  0
  -17.3684   11.2307  -25.9828 H   0  0  0  0  0  0  0  0  0  0  0  0
 29 30  1  0  0  0
 30 17  1  0  0  0
 17 18  1  0  0  0
 18 19  1  0  0  0
 19 20  1  0  0  0
 20 21  1  0  0  0
 20 22  1  0  0  0
 22 23  1  0  0  0
 22 24  1  0  0  0
 24 25  1  0  0  0
 19  1  1  0  0  0
  1  2  1  0  0  0
  2  3  2  0  0  0
  3  4  1  0  0  0
  3  5  1  0  0  0
  5  6  2  0  0  0
  6  7  1  0  0  0
  7  8  2  0  0  0
  8  9  1  0  0  0
  9 10  2  0  0  0
 10 11  1  0  0  0
 10 12  1  0  0  0
 12 13  2  0  0  0
 13 14  1  0  0  0
 14 15  2  0  0  0
 24 17  1  0  0  0
 15  1  1  0  0  0
  8  2  1  0  0  0
 15  9  1  0  0  0
 29 31  1  0  0  0
 21 26  1  0  0  0
 23 27  1  0  0  0
 25 28  1  0  0  0
  4 16  1  0  0  0
M  END
> <minimizedAffinity>
-10.03794

> <CNNscore>
0.3167316914

> <CNNaffinity>
5.6069188118

> <CNN_VS>
1.7758889198

> <CNNaffinity_variance>
0.1985750943

$$$$
[H]OC(=O)C([H])([H])Oc1c([H])c([H])c([H])c2c1c(C(=O)C(=O)N([H])[H])c(C([H])([H])C([H])([H])[H])n2C([H])([H])c1c([H])c([H])c([H])c(Cl)c1[H]


 32 34  0  0  0  0  0  0  0  0999 V2000
  -17.1698   13.3673  -22.6470 C   0  0  0  0  0  0  0  0  0  0  0  0
  -17.3613   12.6997  -21.4526 C   0  0  0  0  0  0  0  0  0  0  0  0
  -17.7420   13.6299  -20.5136 C   0  0  0  0  0  0  0  0  0  0  0  0
  -18.0589   13.4642  -19.1530 C   0  0  0  0  0  0  0  0  0  0  0  0
  -18.4177   14.5819  -18.4455 C   0  0  0  0  0  0  0  0  0  0  0  0
  -18.4566   15.8272  -19.0831 C   0  0  0  0  0  0  0  0  0  0  0  0
  -18.1406   15.9600  -20.4171 C   0  0  0  0  0  0  0  0  0  0  0  0
  -17.7774   14.8399  -21.1409 C   0  0  0  0  0  0  0  0  0  0  0  0
  -17.4233   14.6712  -22.4559 N   0  0  0  0  0  0  0  0  0  0  0  0
  -17.8677   12.5308  -24.8987 C   0  0  0  0  0  0  0  0  0  0  0  0
  -16.7694   12.6290  -23.8778 C   0  0  0  0  0  0  0  0  0  0  0  0
  -17.1967   11.2750  -21.2086 C   0  0  0  0  0  0  0  0  0  0  0  0
  -18.2100   10.5406  -21.2675 O   0  0  0  0  0  0  0  0  0  0  0  0
  -15.9052   10.6778  -20.9003 C   0  0  0  0  0  0  0  0  0  0  0  0
  -14.9234   10.4484  -21.8998 N   0  0  0  0  0  0  0  0  0  0  0  0
  -15.6616   10.3597  -19.7137 O   0  0  0  0  0  0  0  0  0  0  0  0
  -14.7989    9.4440  -22.2025 H   0  0  0  0  0  0  0  0  0  0  0  0
  -14.3363   11.1609  -22.3441 H   0  0  0  0  0  0  0  0  0  0  0  0
  -17.9990   12.2076  -18.6012 O   0  0  0  0  0  0  0  0  0  0  0  0
  -19.0493   11.5421  -17.9734 C   0  0  0  0  0  0  0  0  0  0  0  0
  -18.7623   10.1518  -17.5753 C   0  0  0  0  0  0  0  0  0  0  0  0
  -17.8061    9.4373  -18.2714 O   0  0  0  0  0  0  0  0  0  0  0  0
  -19.3608    9.6055  -16.6264 O   0  0  0  0  0  0  0  0  0  0  0  0
  -16.8342    9.7399  -18.2921 H   0  0  0  0  0  0  0  0  0  0  0  0
  -17.3490   15.6792  -23.4555 C   0  0  0  0  0  0  0  0  0  0  0  0
  -16.2820   15.5876  -24.4417 C   0  0  0  0  0  0  0  0  0  0  0  0
  -14.9783   15.4027  -24.0340 C   0  0  0  0  0  0  0  0  0  0  0  0
  -13.9186   15.3164  -24.9276 C   0  0  0  0  0  0  0  0  0  0  0  0
  -14.1260   15.4128  -26.2658 C   0  0  0  0  0  0  0  0  0  0  0  0
  -15.4133   15.5978  -26.7086 C   0  0  0  0  0  0  0  0  0  0  0  0
  -15.6682   15.7210  -28.4434 Cl  0  0  0  0  0  0  0  0  0  0  0  0
  -16.4688   15.6832  -25.8122 C   0  0  0  0  0  0  0  0  0  0  0  0
 10 11  1  0  0  0
 11  1  1  0  0  0
  1  2  2  0  0  0
  2 12  1  0  0  0
 12 13  2  0  0  0
 12 14  1  0  0  0
 14 15  1  0  0  0
 14 16  2  0  0  0
  2  3  1  0  0  0
  3  4  2  0  0  0
  4 19  1  0  0  0
 19 20  1  0  0  0
 20 21  1  0  0  0
 21 22  1  0  0  0
 21 23  2  0  0  0
  4  5  1  0  0  0
  5  6  2  0  0  0
  6  7  1  0  0  0
  7  8  2  0  0  0
  8  9  1  0  0  0
  9 25  1  0  0  0
 25 26  1  0  0  0
 26 27  2  0  0  0
 27 28  1  0  0  0
 28 29  2  0  0  0
 29 30  1  0  0  0
 30 31  1  0  0  0
 30 32  2  0  0  0
  9  1  1  0  0  0
 32 26  1  0  0  0
  8  3  1  0  0  0
 15 17  1  0  0  0
 15 18  1  0  0  0
 22 24  1  0  0  0
M  END
> <minimizedAffinity>
-7.98301

> <CNNscore>
0.6560070515

> <CNNaffinity>
6.5892534256

> <CNN_VS>
4.3225965500

> <CNNaffinity_variance>
0.1023622155

$$$$
[H]OC(=O)C([H])([H])Oc1c([H])c([H])c([H])c2c1c(C(=O)C(=O)N([H])[H])c(C([H])([H])C([H])([H])[H])n2C([H])([H])c1c([H])c([H])c([H])c(Cl)c1[H]


 32 34  0  0  0  0  0  0  0  0999 V2000
  -17.9456   12.9240  -21.4520 C   0  0  0  0  0  0  0  0  0  0  0  0
  -17.9088   11.9572  -20.4657 C   0  0  0  0  0  0  0  0  0  0  0  0
  -18.6495   12.4198  -19.4031 C   0  0  0  0  0  0  0  0  0  0  0  0
  -18.9266   11.8165  -18.1628 C   0  0  0  0  0  0  0  0  0  0  0  0
  -19.7109   12.5132  -17.2807 C   0  0  0  0  0  0  0  0  0  0  0  0
  -20.2012   13.7762  -17.6318 C   0  0  0  0  0  0  0  0  0  0  0  0
  -19.9134   14.3430  -18.8536 C   0  0  0  0  0  0  0  0  0  0  0  0
  -19.1236   13.6498  -19.7515 C   0  0  0  0  0  0  0  0  0  0  0  0
  -18.6857   13.9550  -21.0157 N   0  0  0  0  0  0  0  0  0  0  0  0
  -15.9466   13.4544  -22.8590 C   0  0  0  0  0  0  0  0  0  0  0  0
  -17.2498   12.7137  -22.7527 C   0  0  0  0  0  0  0  0  0  0  0  0
  -17.2198   10.6770  -20.5185 C   0  0  0  0  0  0  0  0  0  0  0  0
  -17.8289    9.6932  -20.9991 O   0  0  0  0  0  0  0  0  0  0  0  0
  -15.8576   10.5008  -20.0357 C   0  0  0  0  0  0  0  0  0  0  0  0
  -15.4951   10.7679  -18.6893 N   0  0  0  0  0  0  0  0  0  0  0  0
  -14.9852   10.1009  -20.8404 O   0  0  0  0  0  0  0  0  0  0  0  0
  -14.9480   11.6568  -18.5263 H   0  0  0  0  0  0  0  0  0  0  0  0
  -15.7148   10.1827  -17.8776 H   0  0  0  0  0  0  0  0  0  0  0  0
  -18.4095   10.5724  -17.8945 O   0  0  0  0  0  0  0  0  0  0  0  0
  -19.1399    9.4538  -17.5005 C   0  0  0  0  0  0  0  0  0  0  0  0
  -18.8834    8.9898  -16.1247 C   0  0  0  0  0  0  0  0  0  0  0  0
  -18.4285    7.7005  -15.9242 O   0  0  0  0  0  0  0  0  0  0  0  0
  -19.0666    9.7319  -15.1385 O   0  0  0  0  0  0  0  0  0  0  0  0
  -17.5354    7.3923  -16.3037 H   0  0  0  0  0  0  0  0  0  0  0  0
  -18.9679   15.1363  -21.7543 C   0  0  0  0  0  0  0  0  0  0  0  0
  -18.3774   16.3863  -21.2978 C   0  0  0  0  0  0  0  0  0  0  0  0
  -17.0103   16.4946  -21.1594 C   0  0  0  0  0  0  0  0  0  0  0  0
  -16.3911   17.6577  -20.7204 C   0  0  0  0  0  0  0  0  0  0  0  0
  -17.1203   18.7579  -20.4027 C   0  0  0  0  0  0  0  0  0  0  0  0
  -18.4865   18.6862  -20.5284 C   0  0  0  0  0  0  0  0  0  0  0  0
  -19.4189   20.1174  -20.1138 Cl  0  0  0  0  0  0  0  0  0  0  0  0
  -19.1005   17.5222  -20.9674 C   0  0  0  0  0  0  0  0  0  0  0  0
 10 11  1  0  0  0
 11  1  1  0  0  0
  1  2  2  0  0  0
  2 12  1  0  0  0
 12 13  2  0  0  0
 12 14  1  0  0  0
 14 15  1  0  0  0
 14 16  2  0  0  0
  2  3  1  0  0  0
  3  4  2  0  0  0
  4 19  1  0  0  0
 19 20  1  0  0  0
 20 21  1  0  0  0
 21 22  1  0  0  0
 21 23  2  0  0  0
  4  5  1  0  0  0
  5  6  2  0  0  0
  6  7  1  0  0  0
  7  8  2  0  0  0
  8  9  1  0  0  0
  9 25  1  0  0  0
 25 26  1  0  0  0
 26 27  2  0  0  0
 27 28  1  0  0  0
 28 29  2  0  0  0
 29 30  1  0  0  0
 30 31  1  0  0  0
 30 32  2  0  0  0
  9  1  1  0  0  0
 32 26  1  0  0  0
  8  3  1  0  0  0
 15 17  1  0  0  0
 15 18  1  0  0  0
 22 24  1  0  0  0
M  END
> <minimizedAffinity>
-6.83654

> <CNNscore>
0.4942763746

> <CNNaffinity>
6.1628460884

> <CNN_VS>
3.0461492538

> <CNNaffinity_variance>
0.1555687189

$$$$
[H]OC(=O)C([H])([H])Oc1c([H])c([H])c([H])c2c1c(C(=O)C(=O)N([H])[H])c(C([H])([H])C([H])([H])[H])n2C([H])([H])c1c([H])c([H])c([H])c(Cl)c1[H]


 32 34  0  0  0  0  0  0  0  0999 V2000
  -17.7429   13.8877  -20.1504 C   0  0  0  0  0  0  0  0  0  0  0  0
  -17.2765   13.4835  -21.3864 C   0  0  0  0  0  0  0  0  0  0  0  0
  -16.9264   14.6136  -22.0879 C   0  0  0  0  0  0  0  0  0  0  0  0
  -16.3972   14.7457  -23.3847 C   0  0  0  0  0  0  0  0  0  0  0  0
  -16.1323   16.0130  -23.8346 C   0  0  0  0  0  0  0  0  0  0  0  0
  -16.3909   17.1134  -23.0095 C   0  0  0  0  0  0  0  0  0  0  0  0
  -16.9099   16.9544  -21.7437 C   0  0  0  0  0  0  0  0  0  0  0  0
  -17.1811   15.6812  -21.2789 C   0  0  0  0  0  0  0  0  0  0  0  0
  -17.6847   15.2269  -20.0860 N   0  0  0  0  0  0  0  0  0  0  0  0
  -19.6724   12.6712  -19.1235 C   0  0  0  0  0  0  0  0  0  0  0  0
  -18.1854   12.8880  -19.1378 C   0  0  0  0  0  0  0  0  0  0  0  0
  -17.1665   12.1188  -21.8784 C   0  0  0  0  0  0  0  0  0  0  0  0
  -18.1632   11.6062  -22.4383 O   0  0  0  0  0  0  0  0  0  0  0  0
  -15.9475   11.3341  -21.7434 C   0  0  0  0  0  0  0  0  0  0  0  0
  -14.9352   11.3374  -22.7387 N   0  0  0  0  0  0  0  0  0  0  0  0
  -15.7961   10.6373  -20.7137 O   0  0  0  0  0  0  0  0  0  0  0  0
  -14.8781   10.4720  -23.3418 H   0  0  0  0  0  0  0  0  0  0  0  0
  -14.2678   12.0937  -22.9184 H   0  0  0  0  0  0  0  0  0  0  0  0
  -16.1693   13.6156  -24.1317 O   0  0  0  0  0  0  0  0  0  0  0  0
  -16.3154   13.5081  -25.5127 C   0  0  0  0  0  0  0  0  0  0  0  0
  -17.4865   12.7328  -25.9612 C   0  0  0  0  0  0  0  0  0  0  0  0
  -17.3216   11.7727  -26.9411 O   0  0  0  0  0  0  0  0  0  0  0  0
  -18.6213   12.9222  -25.4780 O   0  0  0  0  0  0  0  0  0  0  0  0
  -16.7171   10.9671  -26.7924 H   0  0  0  0  0  0  0  0  0  0  0  0
  -18.0656   16.0143  -18.9656 C   0  0  0  0  0  0  0  0  0  0  0  0
  -19.4867   16.2196  -18.7247 C   0  0  0  0  0  0  0  0  0  0  0  0
  -19.9954   16.1010  -17.4492 C   0  0  0  0  0  0  0  0  0  0  0  0
  -21.3425   16.2770  -17.1601 C   0  0  0  0  0  0  0  0  0  0  0  0
  -22.2318   16.5787  -18.1404 C   0  0  0  0  0  0  0  0  0  0  0  0
  -21.7601   16.7045  -19.4246 C   0  0  0  0  0  0  0  0  0  0  0  0
  -22.9219   17.0953  -20.6845 Cl  0  0  0  0  0  0  0  0  0  0  0  0
  -20.4137   16.5279  -19.7086 C   0  0  0  0  0  0  0  0  0  0  0  0
 10 11  1  0  0  0
 11  1  1  0  0  0
  1  2  2  0  0  0
  2 12  1  0  0  0
 12 13  2  0  0  0
 12 14  1  0  0  0
 14 15  1  0  0  0
 14 16  2  0  0  0
  2  3  1  0  0  0
  3  4  2  0  0  0
  4 19  1  0  0  0
 19 20  1  0  0  0
 20 21  1  0  0  0
 21 22  1  0  0  0
 21 23  2  0  0  0
  4  5  1  0  0  0
  5  6  2  0  0  0
  6  7  1  0  0  0
  7  8  2  0  0  0
  8  9  1  0  0  0
  9 25  1  0  0  0
 25 26  1  0  0  0
 26 27  2  0  0  0
 27 28  1  0  0  0
 28 29  2  0  0  0
 29 30  1  0  0  0
 30 31  1  0  0  0
 30 32  2  0  0  0
  9  1  1  0  0  0
 32 26  1  0  0  0
  8  3  1  0  0  0
 15 17  1  0  0  0
 15 18  1  0  0  0
 22 24  1  0  0  0
M  END
> <minimizedAffinity>
-6.93443

> <CNNscore>
0.4389891624

> <CNNaffinity>
6.4308862686

> <CNN_VS>
2.8230893612

> <CNNaffinity_variance>
0.1372217238

$$$$
[H]OC(=O)C([H])([H])Oc1c([H])c([H])c([H])c2c1c(C(=O)C(=O)N([H])[H])c(C([H])([H])C([H])([H])[H])n2C([H])([H])c1c([H])c([H])c([H])c(Cl)c1[H]


 32 34  0  0  0  0  0  0  0  0999 V2000
  -19.4848   15.0579  -20.4739 C   0  0  0  0  0  0  0  0  0  0  0  0
  -19.2103   14.0031  -19.6250 C   0  0  0  0  0  0  0  0  0  0  0  0
  -18.3688   13.1426  -20.2908 C   0  0  0  0  0  0  0  0  0  0  0  0
  -17.7959   11.9295  -19.8675 C   0  0  0  0  0  0  0  0  0  0  0  0
  -16.9770   11.2738  -20.7497 C   0  0  0  0  0  0  0  0  0  0  0  0
  -16.7409   11.8181  -22.0173 C   0  0  0  0  0  0  0  0  0  0  0  0
  -17.3159   13.0079  -22.4053 C   0  0  0  0  0  0  0  0  0  0  0  0
  -18.1434   13.6783  -21.5242 C   0  0  0  0  0  0  0  0  0  0  0  0
  -18.8347   14.8589  -21.6309 N   0  0  0  0  0  0  0  0  0  0  0  0
  -19.5968   17.3538  -19.4871 C   0  0  0  0  0  0  0  0  0  0  0  0
  -20.3602   16.1815  -20.0361 C   0  0  0  0  0  0  0  0  0  0  0  0
  -19.7080   13.8152  -18.2709 C   0  0  0  0  0  0  0  0  0  0  0  0
  -20.6990   13.0679  -18.0999 O   0  0  0  0  0  0  0  0  0  0  0  0
  -19.0991   14.4607  -17.1166 C   0  0  0  0  0  0  0  0  0  0  0  0
  -19.8270   15.3430  -16.2758 N   0  0  0  0  0  0  0  0  0  0  0  0
  -17.8951   14.2243  -16.8656 O   0  0  0  0  0  0  0  0  0  0  0  0
  -19.6098   16.3708  -16.3871 H   0  0  0  0  0  0  0  0  0  0  0  0
  -20.5319   15.0727  -15.5832 H   0  0  0  0  0  0  0  0  0  0  0  0
  -18.0752   11.4628  -18.6060 O   0  0  0  0  0  0  0  0  0  0  0  0
  -17.8744   10.1601  -18.1558 C   0  0  0  0  0  0  0  0  0  0  0  0
  -18.9439    9.6220  -17.2953 C   0  0  0  0  0  0  0  0  0  0  0  0
  -19.9958   10.4436  -16.9376 O   0  0  0  0  0  0  0  0  0  0  0  0
  -18.9225    8.4445  -16.8830 O   0  0  0  0  0  0  0  0  0  0  0  0
  -20.6187   10.8373  -17.6401 H   0  0  0  0  0  0  0  0  0  0  0  0
  -18.8575   15.7360  -22.7492 C   0  0  0  0  0  0  0  0  0  0  0  0
  -17.6896   15.7682  -23.6177 C   0  0  0  0  0  0  0  0  0  0  0  0
  -16.5204   16.3539  -23.1819 C   0  0  0  0  0  0  0  0  0  0  0  0
  -15.3776   16.4220  -23.9683 C   0  0  0  0  0  0  0  0  0  0  0  0
  -15.3637   15.9048  -25.2234 C   0  0  0  0  0  0  0  0  0  0  0  0
  -16.5120   15.3132  -25.6914 C   0  0  0  0  0  0  0  0  0  0  0  0
  -16.4808   14.6477  -27.3180 Cl  0  0  0  0  0  0  0  0  0  0  0  0
  -17.6511   15.2475  -24.9022 C   0  0  0  0  0  0  0  0  0  0  0  0
 10 11  1  0  0  0
 11  1  1  0  0  0
  1  2  2  0  0  0
  2 12  1  0  0  0
 12 13  2  0  0  0
 12 14  1  0  0  0
 14 15  1  0  0  0
 14 16  2  0  0  0
  2  3  1  0  0  0
  3  4  2  0  0  0
  4 19  1  0  0  0
 19 20  1  0  0  0
 20 21  1  0  0  0
 21 22  1  0  0  0
 21 23  2  0  0  0
  4  5  1  0  0  0
  5  6  2  0  0  0
  6  7  1  0  0  0
  7  8  2  0  0  0
  8  9  1  0  0  0
  9 25  1  0  0  0
 25 26  1  0  0  0
 26 27  2  0  0  0
 27 28  1  0  0  0
 28 29  2  0  0  0
 29 30  1  0  0  0
 30 31  1  0  0  0
 30 32  2  0  0  0
  9  1  1  0  0  0
 32 26  1  0  0  0
  8  3  1  0  0  0
 15 17  1  0  0  0
 15 18  1  0  0  0
 22 24  1  0  0  0
M  END
> <minimizedAffinity>
-7.99072

> <CNNscore>
0.4197317660

> <CNNaffinity>
6.2110199928

> <CNN_VS>
2.6069624424

> <CNNaffinity_variance>
0.3022381365

$$$$
[H]OC(=O)C([H])([H])Oc1c([H])c([H])c([H])c2c1c(C(=O)C(=O)N([H])[H])c(C([H])([H])C([H])([H])[H])n2C([H])([H])c1c([H])c([H])c([H])c(Cl)c1[H]


 32 34  0  0  0  0  0  0  0  0999 V2000
  -18.2166   14.4914  -22.2983 C   0  0  0  0  0  0  0  0  0  0  0  0
  -18.4313   14.5373  -20.9343 C   0  0  0  0  0  0  0  0  0  0  0  0
  -17.9337   13.3733  -20.3963 C   0  0  0  0  0  0  0  0  0  0  0  0
  -17.9014   12.9361  -19.0596 C   0  0  0  0  0  0  0  0  0  0  0  0
  -17.3298   11.7165  -18.8058 C   0  0  0  0  0  0  0  0  0  0  0  0
  -16.8076   10.9589  -19.8603 C   0  0  0  0  0  0  0  0  0  0  0  0
  -16.8534   11.4119  -21.1602 C   0  0  0  0  0  0  0  0  0  0  0  0
  -17.4272   12.6404  -21.4285 C   0  0  0  0  0  0  0  0  0  0  0  0
  -17.6051   13.3351  -22.5984 N   0  0  0  0  0  0  0  0  0  0  0  0
  -17.5692   16.6821  -23.3175 C   0  0  0  0  0  0  0  0  0  0  0  0
  -18.6276   15.6250  -23.1738 C   0  0  0  0  0  0  0  0  0  0  0  0
  -19.0651   15.6094  -20.1823 C   0  0  0  0  0  0  0  0  0  0  0  0
  -20.3080   15.5737  -20.0285 O   0  0  0  0  0  0  0  0  0  0  0  0
  -18.3109   16.7139  -19.6070 C   0  0  0  0  0  0  0  0  0  0  0  0
  -17.5915   16.5820  -18.3903 N   0  0  0  0  0  0  0  0  0  0  0  0
  -18.3023   17.8108  -20.2114 O   0  0  0  0  0  0  0  0  0  0  0  0
  -18.0262   17.0426  -17.5449 H   0  0  0  0  0  0  0  0  0  0  0  0
  -16.7031   16.0872  -18.2648 H   0  0  0  0  0  0  0  0  0  0  0  0
  -18.4333   13.7397  -18.0806 O   0  0  0  0  0  0  0  0  0  0  0  0
  -19.1230   13.3022  -16.9524 C   0  0  0  0  0  0  0  0  0  0  0  0
  -20.5219   12.9010  -17.1887 C   0  0  0  0  0  0  0  0  0  0  0  0
  -21.3293   13.7064  -17.9690 O   0  0  0  0  0  0  0  0  0  0  0  0
  -20.9939   11.8535  -16.7020 O   0  0  0  0  0  0  0  0  0  0  0  0
  -21.1079   13.8843  -18.9467 H   0  0  0  0  0  0  0  0  0  0  0  0
  -17.2058   12.9291  -23.9008 C   0  0  0  0  0  0  0  0  0  0  0  0
  -16.2302   13.7493  -24.6043 C   0  0  0  0  0  0  0  0  0  0  0  0
  -15.0383   14.0797  -23.9959 C   0  0  0  0  0  0  0  0  0  0  0  0
  -14.0739   14.8654  -24.6137 C   0  0  0  0  0  0  0  0  0  0  0  0
  -14.2683   15.3505  -25.8666 C   0  0  0  0  0  0  0  0  0  0  0  0
  -15.4455   15.0415  -26.5038 C   0  0  0  0  0  0  0  0  0  0  0  0
  -15.6849   15.6759  -28.1255 Cl  0  0  0  0  0  0  0  0  0  0  0  0
  -16.4060   14.2563  -25.8828 C   0  0  0  0  0  0  0  0  0  0  0  0
 10 11  1  0  0  0
 11  1  1  0  0  0
  1  2  2  0  0  0
  2 12  1  0  0  0
 12 13  2  0  0  0
 12 14  1  0  0  0
 14 15  1  0  0  0
 14 16  2  0  0  0
  2  3  1  0  0  0
  3  4  2  0  0  0
  4 19  1  0  0  0
 19 20  1  0  0  0
 20 21  1  0  0  0
 21 22  1  0  0  0
 21 23  2  0  0  0
  4  5  1  0  0  0
  5  6  2  0  0  0
  6  7  1  0  0  0
  7  8  2  0  0  0
  8  9  1  0  0  0
  9 25  1  0  0  0
 25 26  1  0  0  0
 26 27  2  0  0  0
 27 28  1  0  0  0
 28 29  2  0  0  0
 29 30  1  0  0  0
 30 31  1  0  0  0
 30 32  2  0  0  0
  9  1  1  0  0  0
 32 26  1  0  0  0
  8  3  1  0  0  0
 15 17  1  0  0  0
 15 18  1  0  0  0
 22 24  1  0  0  0
M  END
> <minimizedAffinity>
-8.62028

> <CNNscore>
0.3881033957

> <CNNaffinity>
6.1611623764

> <CNN_VS>
2.3911681175

> <CNNaffinity_variance>
0.3689027131

$$$$
[H]OC(=O)C([H])([H])Oc1c([H])c([H])c([H])c2c1c(C(=O)C(=O)N([H])[H])c(C([H])([H])C([H])([H])[H])n2C([H])([H])c1c([H])c([H])c([H])c(Cl)c1[H]


 32 34  0  0  0  0  0  0  0  0999 V2000
  -17.3772   12.0435  -21.2389 C   0  0  0  0  0  0  0  0  0  0  0  0
  -17.7316   12.6694  -20.0593 C   0  0  0  0  0  0  0  0  0  0  0  0
  -18.1019   13.9577  -20.3681 C   0  0  0  0  0  0  0  0  0  0  0  0
  -18.5478   14.9961  -19.5302 C   0  0  0  0  0  0  0  0  0  0  0  0
  -18.8591   16.1946  -20.1178 C   0  0  0  0  0  0  0  0  0  0  0  0
  -18.7265   16.3467  -21.5028 C   0  0  0  0  0  0  0  0  0  0  0  0
  -18.2869   15.3124  -22.2989 C   0  0  0  0  0  0  0  0  0  0  0  0
  -17.9700   14.0990  -21.7177 C   0  0  0  0  0  0  0  0  0  0  0  0
  -17.5225   12.9154  -22.2486 N   0  0  0  0  0  0  0  0  0  0  0  0
  -15.4514   10.4473  -21.2638 C   0  0  0  0  0  0  0  0  0  0  0  0
  -16.9444   10.6176  -21.2456 C   0  0  0  0  0  0  0  0  0  0  0  0
  -17.7229   12.0925  -18.7238 C   0  0  0  0  0  0  0  0  0  0  0  0
  -16.6455   12.0893  -18.0844 O   0  0  0  0  0  0  0  0  0  0  0  0
  -18.9137   11.5230  -18.1096 C   0  0  0  0  0  0  0  0  0  0  0  0
  -20.0075   12.3286  -17.6971 N   0  0  0  0  0  0  0  0  0  0  0  0
  -18.9657   10.2826  -17.9437 O   0  0  0  0  0  0  0  0  0  0  0  0
  -20.1028   12.4793  -16.6559 H   0  0  0  0  0  0  0  0  0  0  0  0
  -20.6992   12.7679  -18.3120 H   0  0  0  0  0  0  0  0  0  0  0  0
  -18.6534   14.7666  -18.1799 O   0  0  0  0  0  0  0  0  0  0  0  0
  -18.4361   15.7052  -17.1741 C   0  0  0  0  0  0  0  0  0  0  0  0
  -19.6493   16.1693  -16.4765 C   0  0  0  0  0  0  0  0  0  0  0  0
  -19.5167   16.8834  -15.3009 O   0  0  0  0  0  0  0  0  0  0  0  0
  -20.7910   15.9334  -16.9211 O   0  0  0  0  0  0  0  0  0  0  0  0
  -19.0383   17.7819  -15.2818 H   0  0  0  0  0  0  0  0  0  0  0  0
  -17.2690   12.6370  -23.6193 C   0  0  0  0  0  0  0  0  0  0  0  0
  -16.3365   13.4987  -24.3316 C   0  0  0  0  0  0  0  0  0  0  0  0
  -15.1147   13.8060  -23.7724 C   0  0  0  0  0  0  0  0  0  0  0  0
  -14.1885   14.6287  -24.4003 C   0  0  0  0  0  0  0  0  0  0  0  0
  -14.4527   15.1756  -25.6144 C   0  0  0  0  0  0  0  0  0  0  0  0
  -15.6616   14.8913  -26.2021 C   0  0  0  0  0  0  0  0  0  0  0  0
  -15.9913   15.6057  -27.7739 Cl  0  0  0  0  0  0  0  0  0  0  0  0
  -16.5836   14.0688  -25.5711 C   0  0  0  0  0  0  0  0  0  0  0  0
 10 11  1  0  0  0
 11  1  1  0  0  0
  1  2  2  0  0  0
  2 12  1  0  0  0
 12 13  2  0  0  0
 12 14  1  0  0  0
 14 15  1  0  0  0
 14 16  2  0  0  0
  2  3  1  0  0  0
  3  4  2  0  0  0
  4 19  1  0  0  0
 19 20  1  0  0  0
 20 21  1  0  0  0
 21 22  1  0  0  0
 21 23  2  0  0  0
  4  5  1  0  0  0
  5  6  2  0  0  0
  6  7  1  0  0  0
  7  8  2  0  0  0
  8  9  1  0  0  0
  9 25  1  0  0  0
 25 26  1  0  0  0
 26 27  2  0  0  0
 27 28  1  0  0  0
 28 29  2  0  0  0
 29 30  1  0  0  0
 30 31  1  0  0  0
 30 32  2  0  0  0
  9  1  1  0  0  0
 32 26  1  0  0  0
  8  3  1  0  0  0
 15 17  1  0  0  0
 15 18  1  0  0  0
 22 24  1  0  0  0
M  END
> <minimizedAffinity>
-8.20658

> <CNNscore>
0.3559418321

> <CNNaffinity>
6.2283544540

> <CNN_VS>
2.2169318199

> <CNNaffinity_variance>
0.2113308161

$$$$
[H]OC(=O)C([H])([H])Oc1c([H])c([H])c([H])c2c1c(C(=O)C(=O)N([H])[H])c(C([H])([H])C([H])([H])[H])n2C([H])([H])c1c([H])c([H])c([H])c(Cl)c1[H]


 32 34  0  0  0  0  0  0  0  0999 V2000
  -17.8385   12.4956  -20.0201 C   0  0  0  0  0  0  0  0  0  0  0  0
  -18.4393   13.4911  -19.2740 C   0  0  0  0  0  0  0  0  0  0  0  0
  -18.6008   14.5839  -20.0935 C   0  0  0  0  0  0  0  0  0  0  0  0
  -19.1625   15.8444  -19.8203 C   0  0  0  0  0  0  0  0  0  0  0  0
  -19.2006   16.7561  -20.8430 C   0  0  0  0  0  0  0  0  0  0  0  0
  -18.6904   16.4140  -22.1005 C   0  0  0  0  0  0  0  0  0  0  0  0
  -18.1455   15.1719  -22.3396 C   0  0  0  0  0  0  0  0  0  0  0  0
  -18.1016   14.2441  -21.3160 C   0  0  0  0  0  0  0  0  0  0  0  0
  -17.6329   12.9554  -21.2640 N   0  0  0  0  0  0  0  0  0  0  0  0
  -16.1455   11.0464  -18.8839 C   0  0  0  0  0  0  0  0  0  0  0  0
  -17.5448   11.1640  -19.4192 C   0  0  0  0  0  0  0  0  0  0  0  0
  -18.8375   13.4200  -17.8765 C   0  0  0  0  0  0  0  0  0  0  0  0
  -18.0292   13.8199  -17.0068 O   0  0  0  0  0  0  0  0  0  0  0  0
  -20.1327   12.9040  -17.4570 C   0  0  0  0  0  0  0  0  0  0  0  0
  -21.3101   13.6957  -17.5035 N   0  0  0  0  0  0  0  0  0  0  0  0
  -20.2004   11.7237  -17.0436 O   0  0  0  0  0  0  0  0  0  0  0  0
  -21.6652   14.0497  -16.5737 H   0  0  0  0  0  0  0  0  0  0  0  0
  -21.8349   13.9483  -18.3464 H   0  0  0  0  0  0  0  0  0  0  0  0
  -19.6442   16.1023  -18.5598 O   0  0  0  0  0  0  0  0  0  0  0  0
  -19.1800   17.0918  -17.6964 C   0  0  0  0  0  0  0  0  0  0  0  0
  -19.6495   16.9794  -16.3033 C   0  0  0  0  0  0  0  0  0  0  0  0
  -19.0695   17.7737  -15.3327 O   0  0  0  0  0  0  0  0  0  0  0  0
  -20.5566   16.1859  -15.9799 O   0  0  0  0  0  0  0  0  0  0  0  0
  -19.1290   18.7890  -15.3785 H   0  0  0  0  0  0  0  0  0  0  0  0
  -17.0478   12.2168  -22.3282 C   0  0  0  0  0  0  0  0  0  0  0  0
  -16.6898   12.9343  -23.5434 C   0  0  0  0  0  0  0  0  0  0  0  0
  -17.5767   12.9946  -24.5968 C   0  0  0  0  0  0  0  0  0  0  0  0
  -17.2876   13.6565  -25.7831 C   0  0  0  0  0  0  0  0  0  0  0  0
  -16.0965   14.2837  -25.9586 C   0  0  0  0  0  0  0  0  0  0  0  0
  -15.1874   14.2441  -24.9293 C   0  0  0  0  0  0  0  0  0  0  0  0
  -13.6491   15.0600  -25.1694 Cl  0  0  0  0  0  0  0  0  0  0  0  0
  -15.4806   13.5817  -23.7461 C   0  0  0  0  0  0  0  0  0  0  0  0
 10 11  1  0  0  0
 11  1  1  0  0  0
  1  2  2  0  0  0
  2 12  1  0  0  0
 12 13  2  0  0  0
 12 14  1  0  0  0
 14 15  1  0  0  0
 14 16  2  0  0  0
  2  3  1  0  0  0
  3  4  2  0  0  0
  4 19  1  0  0  0
 19 20  1  0  0  0
 20 21  1  0  0  0
 21 22  1  0  0  0
 21 23  2  0  0  0
  4  5  1  0  0  0
  5  6  2  0  0  0
  6  7  1  0  0  0
  7  8  2  0  0  0
  8  9  1  0  0  0
  9 25  1  0  0  0
 25 26  1  0  0  0
 26 27  2  0  0  0
 27 28  1  0  0  0
 28 29  2  0  0  0
 29 30  1  0  0  0
 30 31  1  0  0  0
 30 32  2  0  0  0
  9  1  1  0  0  0
 32 26  1  0  0  0
  8  3  1  0  0  0
 15 17  1  0  0  0
 15 18  1  0  0  0
 22 24  1  0  0  0
M  END
> <minimizedAffinity>
-8.13125

> <CNNscore>
0.3454954326

> <CNNaffinity>
6.1188735962

> <CNN_VS>
2.1140429974

> <CNNaffinity_variance>
0.3134442866

$$$$
[H]OC(=O)C([H])([H])Oc1c([H])c([H])c([H])c2c1c(C(=O)C(=O)N([H])[H])c(C([H])([H])C([H])([H])[H])n2C([H])([H])c1c([H])c([H])c([H])c(Cl)c1[H]


 32 34  0  0  0  0  0  0  0  0999 V2000
  -18.1680   14.5378  -21.1395 C   0  0  0  0  0  0  0  0  0  0  0  0
  -19.3055   15.1768  -20.6852 C   0  0  0  0  0  0  0  0  0  0  0  0
  -19.5380   16.2497  -21.5139 C   0  0  0  0  0  0  0  0  0  0  0  0
  -20.5663   17.2093  -21.4846 C   0  0  0  0  0  0  0  0  0  0  0  0
  -20.5556   18.1791  -22.4530 C   0  0  0  0  0  0  0  0  0  0  0  0
  -19.5442   18.1862  -23.4204 C   0  0  0  0  0  0  0  0  0  0  0  0
  -18.5491   17.2340  -23.4247 C   0  0  0  0  0  0  0  0  0  0  0  0
  -18.5495   16.2509  -22.4531 C   0  0  0  0  0  0  0  0  0  0  0  0
  -17.7079   15.1932  -22.2164 N   0  0  0  0  0  0  0  0  0  0  0  0
  -18.0788   12.0380  -21.1366 C   0  0  0  0  0  0  0  0  0  0  0  0
  -17.6587   13.3128  -20.4609 C   0  0  0  0  0  0  0  0  0  0  0  0
  -20.1242   14.8023  -19.5423 C   0  0  0  0  0  0  0  0  0  0  0  0
  -21.0625   13.9921  -19.7230 O   0  0  0  0  0  0  0  0  0  0  0  0
  -19.8925   15.3326  -18.2063 C   0  0  0  0  0  0  0  0  0  0  0  0
  -20.8498   16.1427  -17.5408 N   0  0  0  0  0  0  0  0  0  0  0  0
  -18.8121   15.0605  -17.6343 O   0  0  0  0  0  0  0  0  0  0  0  0
  -20.6260   17.1738  -17.4895 H   0  0  0  0  0  0  0  0  0  0  0  0
  -21.7229   15.8182  -17.1142 H   0  0  0  0  0  0  0  0  0  0  0  0
  -21.5243   17.1322  -20.5030 O   0  0  0  0  0  0  0  0  0  0  0  0
  -22.4135   18.1447  -20.1505 C   0  0  0  0  0  0  0  0  0  0  0  0
  -23.8385   17.8282  -20.3575 C   0  0  0  0  0  0  0  0  0  0  0  0
  -24.6831   17.7860  -19.2646 O   0  0  0  0  0  0  0  0  0  0  0  0
  -24.2999   17.5978  -21.4937 O   0  0  0  0  0  0  0  0  0  0  0  0
  -24.8444   18.6121  -18.6918 H   0  0  0  0  0  0  0  0  0  0  0  0
  -16.5609   14.8298  -22.9732 C   0  0  0  0  0  0  0  0  0  0  0  0
  -16.7614   14.3571  -24.3355 C   0  0  0  0  0  0  0  0  0  0  0  0
  -17.3632   13.1379  -24.5623 C   0  0  0  0  0  0  0  0  0  0  0  0
  -17.5732   12.6315  -25.8384 C   0  0  0  0  0  0  0  0  0  0  0  0
  -17.1871   13.3290  -26.9371 C   0  0  0  0  0  0  0  0  0  0  0  0
  -16.5834   14.5488  -26.7491 C   0  0  0  0  0  0  0  0  0  0  0  0
  -16.0882   15.4418  -28.1798 Cl  0  0  0  0  0  0  0  0  0  0  0  0
  -16.3758   15.0507  -25.4724 C   0  0  0  0  0  0  0  0  0  0  0  0
 10 11  1  0  0  0
 11  1  1  0  0  0
  1  2  2  0  0  0
  2 12  1  0  0  0
 12 13  2  0  0  0
 12 14  1  0  0  0
 14 15  1  0  0  0
 14 16  2  0  0  0
  2  3  1  0  0  0
  3  4  2  0  0  0
  4 19  1  0  0  0
 19 20  1  0  0  0
 20 21  1  0  0  0
 21 22  1  0  0  0
 21 23  2  0  0  0
  4  5  1  0  0  0
  5  6  2  0  0  0
  6  7  1  0  0  0
  7  8  2  0  0  0
  8  9  1  0  0  0
  9 25  1  0  0  0
 25 26  1  0  0  0
 26 27  2  0  0  0
 27 28  1  0  0  0
 28 29  2  0  0  0
 29 30  1  0  0  0
 30 31  1  0  0  0
 30 32  2  0  0  0
  9  1  1  0  0  0
 32 26  1  0  0  0
  8  3  1  0  0  0
 15 17  1  0  0  0
 15 18  1  0  0  0
 22 24  1  0  0  0
M  END
> <minimizedAffinity>
-7.63334

> <CNNscore>
0.3405337036

> <CNNaffinity>
5.8886251450

> <CNN_VS>
2.0052752495

> <CNNaffinity_variance>
0.3570069671

$$$$
[H]OC(=O)C([H])([H])Oc1c([H])c([H])c([H])c2c1c(C(=O)C(=O)N([H])[H])c(C([H])([H])C([H])([H])[H])n2C([H])([H])c1c([H])c([H])c([H])c(Cl)c1[H]


 32 34  0  0  0  0  0  0  0  0999 V2000
  -19.2683   13.7502  -19.9690 C   0  0  0  0  0  0  0  0  0  0  0  0
  -19.0733   12.7210  -19.0682 C   0  0  0  0  0  0  0  0  0  0  0  0
  -18.0970   11.8993  -19.5816 C   0  0  0  0  0  0  0  0  0  0  0  0
  -17.5344   10.7233  -19.0529 C   0  0  0  0  0  0  0  0  0  0  0  0
  -16.5577   10.1027  -19.7874 C   0  0  0  0  0  0  0  0  0  0  0  0
  -16.1585   10.6447  -21.0144 C   0  0  0  0  0  0  0  0  0  0  0  0
  -16.7273   11.7977  -21.5081 C   0  0  0  0  0  0  0  0  0  0  0  0
  -17.7132   12.4326  -20.7763 C   0  0  0  0  0  0  0  0  0  0  0  0
  -18.4393   13.5734  -21.0095 N   0  0  0  0  0  0  0  0  0  0  0  0
  -19.6806   15.9809  -18.9150 C   0  0  0  0  0  0  0  0  0  0  0  0
  -20.2566   14.8302  -19.6911 C   0  0  0  0  0  0  0  0  0  0  0  0
  -19.7622   12.5217  -17.8024 C   0  0  0  0  0  0  0  0  0  0  0  0
  -20.8475   11.8959  -17.8080 O   0  0  0  0  0  0  0  0  0  0  0  0
  -19.2381   13.0208  -16.5391 C   0  0  0  0  0  0  0  0  0  0  0  0
  -19.6998   12.5355  -15.2874 N   0  0  0  0  0  0  0  0  0  0  0  0
  -18.3526   13.9061  -16.5673 O   0  0  0  0  0  0  0  0  0  0  0  0
  -20.3392   13.1816  -14.7493 H   0  0  0  0  0  0  0  0  0  0  0  0
  -19.4700   11.6287  -14.8696 H   0  0  0  0  0  0  0  0  0  0  0  0
  -17.9793   10.2564  -17.8400 O   0  0  0  0  0  0  0  0  0  0  0  0
  -18.4369    8.9666  -17.5811 C   0  0  0  0  0  0  0  0  0  0  0  0
  -19.1020    8.7868  -16.2776 C   0  0  0  0  0  0  0  0  0  0  0  0
  -19.9591    7.7171  -16.1024 O   0  0  0  0  0  0  0  0  0  0  0  0
  -18.9099    9.5757  -15.3301 O   0  0  0  0  0  0  0  0  0  0  0  0
  -19.6267    6.7580  -16.1803 H   0  0  0  0  0  0  0  0  0  0  0  0
  -18.3355   14.4356  -22.1348 C   0  0  0  0  0  0  0  0  0  0  0  0
  -17.8668   15.7961  -21.9136 C   0  0  0  0  0  0  0  0  0  0  0  0
  -16.7433   16.0239  -21.1482 C   0  0  0  0  0  0  0  0  0  0  0  0
  -16.2542   17.2991  -20.8958 C   0  0  0  0  0  0  0  0  0  0  0  0
  -16.8741   18.3958  -21.4017 C   0  0  0  0  0  0  0  0  0  0  0  0
  -17.9976   18.2067  -22.1694 C   0  0  0  0  0  0  0  0  0  0  0  0
  -18.7907   19.6349  -22.8183 Cl  0  0  0  0  0  0  0  0  0  0  0  0
  -18.4824   16.9310  -22.4189 C   0  0  0  0  0  0  0  0  0  0  0  0
 10 11  1  0  0  0
 11  1  1  0  0  0
  1  2  2  0  0  0
  2 12  1  0  0  0
 12 13  2  0  0  0
 12 14  1  0  0  0
 14 15  1  0  0  0
 14 16  2  0  0  0
  2  3  1  0  0  0
  3  4  2  0  0  0
  4 19  1  0  0  0
 19 20  1  0  0  0
 20 21  1  0  0  0
 21 22  1  0  0  0
 21 23  2  0  0  0
  4  5  1  0  0  0
  5  6  2  0  0  0
  6  7  1  0  0  0
  7  8  2  0  0  0
  8  9  1  0  0  0
  9 25  1  0  0  0
 25 26  1  0  0  0
 26 27  2  0  0  0
 27 28  1  0  0  0
 28 29  2  0  0  0
 29 30  1  0  0  0
 30 31  1  0  0  0
 30 32  2  0  0  0
  9  1  1  0  0  0
 32 26  1  0  0  0
  8  3  1  0  0  0
 15 17  1  0  0  0
 15 18  1  0  0  0
 22 24  1  0  0  0
M  END
> <minimizedAffinity>
-7.10450

> <CNNscore>
0.3402856290

> <CNNaffinity>
5.7158212662

> <CNN_VS>
1.9450118542

> <CNNaffinity_variance>
0.3069649339

$$$$
[H]c1nc([H])c(-c2c([H])c3nc(N([H])C(=O)N([H])C([H])([H])C([H])([H])[H])sc3n(C3([H])C([H])([H])OC([H])([H])C3([H])[H])c2=O)c([H])c1[H]


 29 32  0  0  0  0  0  0  0  0999 V2000
  -18.3006   11.8473  -18.5350 C   0  0  0  0  0  0  0  0  0  0  0  0
  -17.9116   11.8050  -19.8283 N   0  0  0  0  0  0  0  0  0  0  0  0
  -17.7990   12.8961  -20.4930 C   0  0  0  0  0  0  0  0  0  0  0  0
  -17.4154   13.0190  -21.8570 C   0  0  0  0  0  0  0  0  0  0  0  0
  -17.3296   14.2156  -22.5034 C   0  0  0  0  0  0  0  0  0  0  0  0
  -17.6267   15.3609  -21.8148 C   0  0  0  0  0  0  0  0  0  0  0  0
  -17.5617   16.4767  -22.3695 O   0  0  0  0  0  0  0  0  0  0  0  0
  -18.0011   15.2618  -20.4957 N   0  0  0  0  0  0  0  0  0  0  0  0
  -18.0805   14.0825  -19.8612 C   0  0  0  0  0  0  0  0  0  0  0  0
  -18.5011   13.5020  -18.2865 S   0  0  0  0  0  0  0  0  0  0  0  0
  -19.6246    9.2145  -16.3302 N   0  0  0  0  0  0  0  0  0  0  0  0
  -19.5747   10.3754  -16.9229 C   0  0  0  0  0  0  0  0  0  0  0  0
  -20.4249   11.3116  -16.7850 O   0  0  0  0  0  0  0  0  0  0  0  0
  -18.4833   10.6375  -17.7931 N   0  0  0  0  0  0  0  0  0  0  0  0
  -20.8634    9.4673  -15.7538 H   0  0  0  0  0  0  0  0  0  0  0  0
  -17.7757    9.8586  -17.8982 H   0  0  0  0  0  0  0  0  0  0  0  0
  -20.0038    7.9355  -14.2274 C   0  0  0  0  0  0  0  0  0  0  0  0
  -19.6873    7.9410  -15.6750 C   0  0  0  0  0  0  0  0  0  0  0  0
  -16.9270   14.2112  -23.9246 C   0  0  0  0  0  0  0  0  0  0  0  0
  -17.7695   13.4914  -24.7990 C   0  0  0  0  0  0  0  0  0  0  0  0
  -17.4344   13.5111  -26.1216 C   0  0  0  0  0  0  0  0  0  0  0  0
  -16.3223   14.2052  -26.5920 C   0  0  0  0  0  0  0  0  0  0  0  0
  -15.5380   14.8811  -25.7362 N   0  0  0  0  0  0  0  0  0  0  0  0
  -15.8531   14.8719  -24.4355 C   0  0  0  0  0  0  0  0  0  0  0  0
  -18.2977   16.4650  -19.8344 C   0  0  0  0  0  0  0  0  0  0  0  0
  -17.3306   17.6023  -20.0302 C   0  0  0  0  0  0  0  0  0  0  0  0
  -18.2894   18.7731  -19.7170 C   0  0  0  0  0  0  0  0  0  0  0  0
  -19.4254   18.4402  -20.4494 O   0  0  0  0  0  0  0  0  0  0  0  0
  -19.5973   17.0680  -20.2950 C   0  0  0  0  0  0  0  0  0  0  0  0
 17 18  1  0  0  0
 18 11  1  0  0  0
 11 12  1  0  0  0
 12 13  2  0  0  0
 12 14  1  0  0  0
 14  1  1  0  0  0
  1  2  2  0  0  0
  2  3  1  0  0  0
  3  4  1  0  0  0
  4  5  2  0  0  0
  5 19  1  0  0  0
 19 20  2  0  0  0
 20 21  1  0  0  0
 21 22  2  0  0  0
 22 23  1  0  0  0
 23 24  2  0  0  0
  5  6  1  0  0  0
  6  7  2  0  0  0
  6  8  1  0  0  0
  8 25  1  0  0  0
 25 26  1  0  0  0
 26 27  1  0  0  0
 27 28  1  0  0  0
 28 29  1  0  0  0
  8  9  1  0  0  0
  9 10  1  0  0  0
 10  1  1  0  0  0
  9  3  2  0  0  0
 24 19  1  0  0  0
 29 25  1  0  0  0
 11 15  1  0  0  0
 14 16  1  0  0  0
M  END
> <minimizedAffinity>
-7.52425

> <CNNscore>
0.4137833118

> <CNNaffinity>
6.6245145798

> <CNN_VS>
2.7411136627

> <CNNaffinity_variance>
0.4569323063

$$$$
[H]c1nc([H])c(-c2c([H])c3nc(N([H])C(=O)N([H])C([H])([H])C([H])([H])[H])sc3n(C3([H])C([H])([H])OC([H])([H])C3([H])[H])c2=O)c([H])c1[H]


 29 32  0  0  0  0  0  0  0  0999 V2000
  -17.9010   12.6875  -19.8470 C   0  0  0  0  0  0  0  0  0  0  0  0
  -17.3026   12.7251  -21.0580 N   0  0  0  0  0  0  0  0  0  0  0  0
  -17.3514   13.7994  -21.7566 C   0  0  0  0  0  0  0  0  0  0  0  0
  -16.7869   13.9945  -23.0475 C   0  0  0  0  0  0  0  0  0  0  0  0
  -16.8902   15.1646  -23.7383 C   0  0  0  0  0  0  0  0  0  0  0  0
  -17.5700   16.2087  -23.1709 C   0  0  0  0  0  0  0  0  0  0  0  0
  -17.6886   17.2966  -23.7701 O   0  0  0  0  0  0  0  0  0  0  0  0
  -18.1240   16.0383  -21.9243 N   0  0  0  0  0  0  0  0  0  0  0  0
  -18.0168   14.8864  -21.2451 C   0  0  0  0  0  0  0  0  0  0  0  0
  -18.5398   14.2423  -19.7268 S   0  0  0  0  0  0  0  0  0  0  0  0
  -18.7227   10.0299  -17.4372 N   0  0  0  0  0  0  0  0  0  0  0  0
  -18.8249   11.1829  -18.0383 C   0  0  0  0  0  0  0  0  0  0  0  0
  -19.6849   12.0812  -17.7705 O   0  0  0  0  0  0  0  0  0  0  0  0
  -17.9031   11.4818  -19.0766 N   0  0  0  0  0  0  0  0  0  0  0  0
  -19.8620   10.2342  -16.6685 H   0  0  0  0  0  0  0  0  0  0  0  0
  -17.1856   10.7346  -19.2900 H   0  0  0  0  0  0  0  0  0  0  0  0
  -19.7663    8.3363  -15.9391 C   0  0  0  0  0  0  0  0  0  0  0  0
  -18.6175    8.7646  -16.7714 C   0  0  0  0  0  0  0  0  0  0  0  0
  -16.2667   15.2403  -25.0753 C   0  0  0  0  0  0  0  0  0  0  0  0
  -16.9777   14.6123  -26.1205 C   0  0  0  0  0  0  0  0  0  0  0  0
  -16.4359   14.7080  -27.3693 C   0  0  0  0  0  0  0  0  0  0  0  0
  -15.2454   15.3904  -27.6081 C   0  0  0  0  0  0  0  0  0  0  0  0
  -14.5901   15.9781  -26.5934 N   0  0  0  0  0  0  0  0  0  0  0  0
  -15.1084   15.8935  -25.3624 C   0  0  0  0  0  0  0  0  0  0  0  0
  -18.8129   17.1382  -21.3870 C   0  0  0  0  0  0  0  0  0  0  0  0
  -20.2411   16.9060  -20.9707 C   0  0  0  0  0  0  0  0  0  0  0  0
  -20.3673   18.0517  -19.9412 C   0  0  0  0  0  0  0  0  0  0  0  0
  -19.1965   17.9242  -19.1992 O   0  0  0  0  0  0  0  0  0  0  0  0
  -18.1870   17.6416  -20.1143 C   0  0  0  0  0  0  0  0  0  0  0  0
 17 18  1  0  0  0
 18 11  1  0  0  0
 11 12  1  0  0  0
 12 13  2  0  0  0
 12 14  1  0  0  0
 14  1  1  0  0  0
  1  2  2  0  0  0
  2  3  1  0  0  0
  3  4  1  0  0  0
  4  5  2  0  0  0
  5 19  1  0  0  0
 19 20  2  0  0  0
 20 21  1  0  0  0
 21 22  2  0  0  0
 22 23  1  0  0  0
 23 24  2  0  0  0
  5  6  1  0  0  0
  6  7  2  0  0  0
  6  8  1  0  0  0
  8 25  1  0  0  0
 25 26  1  0  0  0
 26 27  1  0  0  0
 27 28  1  0  0  0
 28 29  1  0  0  0
  8  9  1  0  0  0
  9 10  1  0  0  0
 10  1  1  0  0  0
  9  3  2  0  0  0
 24 19  1  0  0  0
 29 25  1  0  0  0
 11 15  1  0  0  0
 14 16  1  0  0  0
M  END
> <minimizedAffinity>
-7.84050

> <CNNscore>
0.3906311393

> <CNNaffinity>
6.7116632462

> <CNN_VS>
2.6217846870

> <CNNaffinity_variance>
0.2881232798

$$$$
[H]c1nc([H])c(-c2c([H])c3nc(N([H])C(=O)N([H])C([H])([H])C([H])([H])[H])sc3n(C3([H])C([H])([H])OC([H])([H])C3([H])[H])c2=O)c([H])c1[H]


 29 32  0  0  0  0  0  0  0  0999 V2000
  -17.8510   11.4228  -19.5548 C   0  0  0  0  0  0  0  0  0  0  0  0
  -18.2341   12.7051  -19.3688 N   0  0  0  0  0  0  0  0  0  0  0  0
  -18.1660   13.5354  -20.3439 C   0  0  0  0  0  0  0  0  0  0  0  0
  -18.5168   14.9132  -20.3067 C   0  0  0  0  0  0  0  0  0  0  0  0
  -18.4055   15.7412  -21.3833 C   0  0  0  0  0  0  0  0  0  0  0  0
  -17.9323   15.2313  -22.5623 C   0  0  0  0  0  0  0  0  0  0  0  0
  -17.8140   15.9555  -23.5715 O   0  0  0  0  0  0  0  0  0  0  0  0
  -17.5864   13.9019  -22.6170 N   0  0  0  0  0  0  0  0  0  0  0  0
  -17.7013   13.0885  -21.5564 C   0  0  0  0  0  0  0  0  0  0  0  0
  -17.3886   11.4300  -21.1754 S   0  0  0  0  0  0  0  0  0  0  0  0
  -18.8174    9.4579  -16.5967 N   0  0  0  0  0  0  0  0  0  0  0  0
  -18.9259   10.3676  -17.5251 C   0  0  0  0  0  0  0  0  0  0  0  0
  -19.9050   11.1681  -17.6632 O   0  0  0  0  0  0  0  0  0  0  0  0
  -17.8693   10.4953  -18.4654 N   0  0  0  0  0  0  0  0  0  0  0  0
  -20.0894    9.6998  -16.0925 H   0  0  0  0  0  0  0  0  0  0  0  0
  -17.0546    9.8324  -18.3414 H   0  0  0  0  0  0  0  0  0  0  0  0
  -19.1909    8.8180  -14.2192 C   0  0  0  0  0  0  0  0  0  0  0  0
  -18.7063    8.4604  -15.5731 C   0  0  0  0  0  0  0  0  0  0  0  0
  -18.7953   17.1562  -21.2158 C   0  0  0  0  0  0  0  0  0  0  0  0
  -20.1676   17.4390  -21.3866 C   0  0  0  0  0  0  0  0  0  0  0  0
  -20.5510   18.7346  -21.1952 C   0  0  0  0  0  0  0  0  0  0  0  0
  -19.6418   19.7306  -20.8468 C   0  0  0  0  0  0  0  0  0  0  0  0
  -18.3414   19.4320  -20.6917 N   0  0  0  0  0  0  0  0  0  0  0  0
  -17.9492   18.1656  -20.8757 C   0  0  0  0  0  0  0  0  0  0  0  0
  -17.1043   13.4280  -23.8483 C   0  0  0  0  0  0  0  0  0  0  0  0
  -17.8870   13.8118  -25.0758 C   0  0  0  0  0  0  0  0  0  0  0  0
  -16.7579   13.6659  -26.1208 C   0  0  0  0  0  0  0  0  0  0  0  0
  -15.6917   14.3197  -25.5098 O   0  0  0  0  0  0  0  0  0  0  0  0
  -15.7309   13.9539  -24.1678 C   0  0  0  0  0  0  0  0  0  0  0  0
 17 18  1  0  0  0
 18 11  1  0  0  0
 11 12  1  0  0  0
 12 13  2  0  0  0
 12 14  1  0  0  0
 14  1  1  0  0  0
  1  2  2  0  0  0
  2  3  1  0  0  0
  3  4  1  0  0  0
  4  5  2  0  0  0
  5 19  1  0  0  0
 19 20  2  0  0  0
 20 21  1  0  0  0
 21 22  2  0  0  0
 22 23  1  0  0  0
 23 24  2  0  0  0
  5  6  1  0  0  0
  6  7  2  0  0  0
  6  8  1  0  0  0
  8 25  1  0  0  0
 25 26  1  0  0  0
 26 27  1  0  0  0
 27 28  1  0  0  0
 28 29  1  0  0  0
  8  9  1  0  0  0
  9 10  1  0  0  0
 10  1  1  0  0  0
  9  3  2  0  0  0
 24 19  1  0  0  0
 29 25  1  0  0  0
 11 15  1  0  0  0
 14 16  1  0  0  0
M  END
> <minimizedAffinity>
-7.34010

> <CNNscore>
0.3379077017

> <CNNaffinity>
6.6135888100

> <CNN_VS>
2.2347826958

> <CNNaffinity_variance>
0.4996690154

$$$$
[H]c1nc([H])c(-c2c([H])c3nc(N([H])C(=O)N([H])C([H])([H])C([H])([H])[H])sc3n(C3([H])C([H])([H])OC([H])([H])C3([H])[H])c2=O)c([H])c1[H]


 29 32  0  0  0  0  0  0  0  0999 V2000
  -17.6391   13.9069  -22.3132 C   0  0  0  0  0  0  0  0  0  0  0  0
  -17.8357   12.7698  -21.6103 N   0  0  0  0  0  0  0  0  0  0  0  0
  -18.2510   12.8366  -20.3988 C   0  0  0  0  0  0  0  0  0  0  0  0
  -18.4930   11.7395  -19.5266 C   0  0  0  0  0  0  0  0  0  0  0  0
  -18.9231   11.8878  -18.2420 C   0  0  0  0  0  0  0  0  0  0  0  0
  -19.1339   13.1509  -17.7579 C   0  0  0  0  0  0  0  0  0  0  0  0
  -19.5266   13.3307  -16.5874 O   0  0  0  0  0  0  0  0  0  0  0  0
  -18.9037   14.2240  -18.5859 N   0  0  0  0  0  0  0  0  0  0  0  0
  -18.4843   14.0742  -19.8513 C   0  0  0  0  0  0  0  0  0  0  0  0
  -18.0697   15.0879  -21.1908 S   0  0  0  0  0  0  0  0  0  0  0  0
  -17.0965   14.4133  -25.9180 N   0  0  0  0  0  0  0  0  0  0  0  0
  -17.6885   14.5319  -24.7619 C   0  0  0  0  0  0  0  0  0  0  0  0
  -18.7451   15.2045  -24.5393 O   0  0  0  0  0  0  0  0  0  0  0  0
  -17.1254   13.8547  -23.6477 N   0  0  0  0  0  0  0  0  0  0  0  0
  -17.9528   15.3109  -26.5437 H   0  0  0  0  0  0  0  0  0  0  0  0
  -16.2515   13.2910  -23.8400 H   0  0  0  0  0  0  0  0  0  0  0  0
  -16.0581   15.5400  -27.8812 C   0  0  0  0  0  0  0  0  0  0  0  0
  -16.4519   14.2885  -27.1924 C   0  0  0  0  0  0  0  0  0  0  0  0
  -19.1310   10.6695  -17.4331 C   0  0  0  0  0  0  0  0  0  0  0  0
  -20.2652   10.6768  -16.5928 C   0  0  0  0  0  0  0  0  0  0  0  0
  -20.4945    9.5429  -15.8691 C   0  0  0  0  0  0  0  0  0  0  0  0
  -19.6591    8.4316  -15.9521 C   0  0  0  0  0  0  0  0  0  0  0  0
  -18.5862    8.4536  -16.7600 N   0  0  0  0  0  0  0  0  0  0  0  0
  -18.3474    9.5583  -17.4768 C   0  0  0  0  0  0  0  0  0  0  0  0
  -19.1325   15.4984  -18.0413 C   0  0  0  0  0  0  0  0  0  0  0  0
  -18.0969   16.5534  -18.3267 C   0  0  0  0  0  0  0  0  0  0  0  0
  -18.9858   17.8029  -18.1349 C   0  0  0  0  0  0  0  0  0  0  0  0
  -20.1337   17.4721  -18.8496 O   0  0  0  0  0  0  0  0  0  0  0  0
  -20.3894   16.1326  -18.5730 C   0  0  0  0  0  0  0  0  0  0  0  0
 17 18  1  0  0  0
 18 11  1  0  0  0
 11 12  1  0  0  0
 12 13  2  0  0  0
 12 14  1  0  0  0
 14  1  1  0  0  0
  1  2  2  0  0  0
  2  3  1  0  0  0
  3  4  1  0  0  0
  4  5  2  0  0  0
  5 19  1  0  0  0
 19 20  2  0  0  0
 20 21  1  0  0  0
 21 22  2  0  0  0
 22 23  1  0  0  0
 23 24  2  0  0  0
  5  6  1  0  0  0
  6  7  2  0  0  0
  6  8  1  0  0  0
  8 25  1  0  0  0
 25 26  1  0  0  0
 26 27  1  0  0  0
 27 28  1  0  0  0
 28 29  1  0  0  0
  8  9  1  0  0  0
  9 10  1  0  0  0
 10  1  1  0  0  0
  9  3  2  0  0  0
 24 19  1  0  0  0
 29 25  1  0  0  0
 11 15  1  0  0  0
 14 16  1  0  0  0
M  END
> <minimizedAffinity>
-8.16414

> <CNNscore>
0.2762361169

> <CNNaffinity>
6.5582289696

> <CNN_VS>
1.8116197586

> <CNNaffinity_variance>
0.2028420419

$$$$
[H]c1nc([H])c(-c2c([H])c3nc(N([H])C(=O)N([H])C([H])([H])C([H])([H])[H])sc3n(C3([H])C([H])([H])OC([H])([H])C3([H])[H])c2=O)c([H])c1[H]


 29 32  0  0  0  0  0  0  0  0999 V2000
  -18.1939   12.4476  -19.0990 C   0  0  0  0  0  0  0  0  0  0  0  0
  -17.5539   12.4924  -20.2881 N   0  0  0  0  0  0  0  0  0  0  0  0
  -17.5367   13.5855  -20.9586 C   0  0  0  0  0  0  0  0  0  0  0  0
  -16.9216   13.7910  -22.2245 C   0  0  0  0  0  0  0  0  0  0  0  0
  -16.9553   14.9816  -22.8864 C   0  0  0  0  0  0  0  0  0  0  0  0
  -17.6124   16.0372  -22.3135 C   0  0  0  0  0  0  0  0  0  0  0  0
  -17.6678   17.1442  -22.8866 O   0  0  0  0  0  0  0  0  0  0  0  0
  -18.2146   15.8571  -21.0908 N   0  0  0  0  0  0  0  0  0  0  0  0
  -18.1758   14.6847  -20.4400 C   0  0  0  0  0  0  0  0  0  0  0  0
  -18.7748   14.0233  -18.9577 S   0  0  0  0  0  0  0  0  0  0  0  0
  -19.2418    9.7340  -16.8443 N   0  0  0  0  0  0  0  0  0  0  0  0
  -19.2862   10.9016  -17.4240 C   0  0  0  0  0  0  0  0  0  0  0  0
  -20.1679   11.7951  -17.2175 O   0  0  0  0  0  0  0  0  0  0  0  0
  -18.2695   11.2235  -18.3619 N   0  0  0  0  0  0  0  0  0  0  0  0
  -20.4492    9.9222  -16.1830 H   0  0  0  0  0  0  0  0  0  0  0  0
  -17.5350   10.4801  -18.5242 H   0  0  0  0  0  0  0  0  0  0  0  0
  -20.4339    7.9927  -15.5220 C   0  0  0  0  0  0  0  0  0  0  0  0
  -19.2006    8.4527  -16.2026 C   0  0  0  0  0  0  0  0  0  0  0  0
  -16.2844   15.0667  -24.1996 C   0  0  0  0  0  0  0  0  0  0  0  0
  -14.8767   15.1650  -24.1645 C   0  0  0  0  0  0  0  0  0  0  0  0
  -14.2384   15.2033  -25.3700 C   0  0  0  0  0  0  0  0  0  0  0  0
  -14.9327   15.1461  -26.5760 C   0  0  0  0  0  0  0  0  0  0  0  0
  -16.2728   15.0534  -26.5786 N   0  0  0  0  0  0  0  0  0  0  0  0
  -16.9139   15.0145  -25.4045 C   0  0  0  0  0  0  0  0  0  0  0  0
  -18.8775   16.9697  -20.5468 C   0  0  0  0  0  0  0  0  0  0  0  0
  -20.3384   16.7980  -20.2258 C   0  0  0  0  0  0  0  0  0  0  0  0
  -20.4682   17.9056  -19.1559 C   0  0  0  0  0  0  0  0  0  0  0  0
  -19.3529   17.6847  -18.3527 O   0  0  0  0  0  0  0  0  0  0  0  0
  -18.3054   17.3857  -19.2185 C   0  0  0  0  0  0  0  0  0  0  0  0
 17 18  1  0  0  0
 18 11  1  0  0  0
 11 12  1  0  0  0
 12 13  2  0  0  0
 12 14  1  0  0  0
 14  1  1  0  0  0
  1  2  2  0  0  0
  2  3  1  0  0  0
  3  4  1  0  0  0
  4  5  2  0  0  0
  5 19  1  0  0  0
 19 20  2  0  0  0
 20 21  1  0  0  0
 21 22  2  0  0  0
 22 23  1  0  0  0
 23 24  2  0  0  0
  5  6  1  0  0  0
  6  7  2  0  0  0
  6  8  1  0  0  0
  8 25  1  0  0  0
 25 26  1  0  0  0
 26 27  1  0  0  0
 27 28  1  0  0  0
 28 29  1  0  0  0
  8  9  1  0  0  0
  9 10  1  0  0  0
 10  1  1  0  0  0
  9  3  2  0  0  0
 24 19  1  0  0  0
 29 25  1  0  0  0
 11 15  1  0  0  0
 14 16  1  0  0  0
M  END
> <minimizedAffinity>
-7.60118

> <CNNscore>
0.2373650670

> <CNNaffinity>
6.5222616196

> <CNN_VS>
1.5481570959

> <CNNaffinity_variance>
0.3877166510

$$$$
[H]c1nc([H])c(-c2c([H])c3nc(N([H])C(=O)N([H])C([H])([H])C([H])([H])[H])sc3n(C3([H])C([H])([H])OC([H])([H])C3([H])[H])c2=O)c([H])c1[H]


 29 32  0  0  0  0  0  0  0  0999 V2000
  -20.9364   14.7837  -19.8181 C   0  0  0  0  0  0  0  0  0  0  0  0
  -21.3059   14.1004  -18.7125 N   0  0  0  0  0  0  0  0  0  0  0  0
  -20.5612   13.1530  -18.2738 C   0  0  0  0  0  0  0  0  0  0  0  0
  -20.8149   12.3355  -17.1378 C   0  0  0  0  0  0  0  0  0  0  0  0
  -19.9813   11.3347  -16.7371 C   0  0  0  0  0  0  0  0  0  0  0  0
  -18.8422   11.0958  -17.4579 C   0  0  0  0  0  0  0  0  0  0  0  0
  -18.0528   10.1885  -17.1257 O   0  0  0  0  0  0  0  0  0  0  0  0
  -18.5810   11.8747  -18.5603 N   0  0  0  0  0  0  0  0  0  0  0  0
  -19.4016   12.8619  -18.9495 C   0  0  0  0  0  0  0  0  0  0  0  0
  -19.4813   14.0343  -20.2195 S   0  0  0  0  0  0  0  0  0  0  0  0
  -22.4209   18.0237  -20.7368 N   0  0  0  0  0  0  0  0  0  0  0  0
  -21.5838   17.2021  -20.1664 C   0  0  0  0  0  0  0  0  0  0  0  0
  -20.5952   17.5412  -19.4410 O   0  0  0  0  0  0  0  0  0  0  0  0
  -21.7802   15.8080  -20.3532 N   0  0  0  0  0  0  0  0  0  0  0  0
  -21.7176   19.1528  -20.3353 H   0  0  0  0  0  0  0  0  0  0  0  0
  -22.6078   15.5315  -20.9508 H   0  0  0  0  0  0  0  0  0  0  0  0
  -24.2899   19.6494  -20.4803 C   0  0  0  0  0  0  0  0  0  0  0  0
  -23.3363   18.9338  -21.3604 C   0  0  0  0  0  0  0  0  0  0  0  0
  -20.3595   10.5503  -15.5440 C   0  0  0  0  0  0  0  0  0  0  0  0
  -20.0253   11.1265  -14.2994 C   0  0  0  0  0  0  0  0  0  0  0  0
  -20.4041   10.4341  -13.1862 C   0  0  0  0  0  0  0  0  0  0  0  0
  -21.0873    9.2230  -13.2660 C   0  0  0  0  0  0  0  0  0  0  0  0
  -21.3915    8.6983  -14.4646 N   0  0  0  0  0  0  0  0  0  0  0  0
  -21.0271    9.3652  -15.5663 C   0  0  0  0  0  0  0  0  0  0  0  0
  -17.4013   11.5882  -19.2669 C   0  0  0  0  0  0  0  0  0  0  0  0
  -17.2335   10.1762  -19.7618 C   0  0  0  0  0  0  0  0  0  0  0  0
  -16.2477   10.4560  -20.9186 C   0  0  0  0  0  0  0  0  0  0  0  0
  -16.8246   11.5537  -21.5511 O   0  0  0  0  0  0  0  0  0  0  0  0
  -17.2841   12.3878  -20.5365 C   0  0  0  0  0  0  0  0  0  0  0  0
 17 18  1  0  0  0
 18 11  1  0  0  0
 11 12  1  0  0  0
 12 13  2  0  0  0
 12 14  1  0  0  0
 14  1  1  0  0  0
  1  2  2  0  0  0
  2  3  1  0  0  0
  3  4  1  0  0  0
  4  5  2  0  0  0
  5 19  1  0  0  0
 19 20  2  0  0  0
 20 21  1  0  0  0
 21 22  2  0  0  0
 22 23  1  0  0  0
 23 24  2  0  0  0
  5  6  1  0  0  0
  6  7  2  0  0  0
  6  8  1  0  0  0
  8 25  1  0  0  0
 25 26  1  0  0  0
 26 27  1  0  0  0
 27 28  1  0  0  0
 28 29  1  0  0  0
  8  9  1  0  0  0
  9 10  1  0  0  0
 10  1  1  0  0  0
  9  3  2  0  0  0
 24 19  1  0  0  0
 29 25  1  0  0  0
 11 15  1  0  0  0
 14 16  1  0  0  0
M  END
> <minimizedAffinity>
-6.35663

> <CNNscore>
0.1478434801

> <CNNaffinity>
5.7963414192

> <CNN_VS>
0.8569512963

> <CNNaffinity_variance>
0.1171670184

$$$$
[H]c1nc([H])c(-c2c([H])c3nc(N([H])C(=O)N([H])C([H])([H])C([H])([H])[H])sc3n(C3([H])C([H])([H])OC([H])([H])C3([H])[H])c2=O)c([H])c1[H]


 29 32  0  0  0  0  0  0  0  0999 V2000
  -18.8239   11.4222  -17.8507 C   0  0  0  0  0  0  0  0  0  0  0  0
  -18.3423   11.3951  -19.1128 N   0  0  0  0  0  0  0  0  0  0  0  0
  -18.1693   12.4947  -19.7497 C   0  0  0  0  0  0  0  0  0  0  0  0
  -17.6862   12.6340  -21.0801 C   0  0  0  0  0  0  0  0  0  0  0  0
  -17.5400   13.8392  -21.6990 C   0  0  0  0  0  0  0  0  0  0  0  0
  -17.8735   14.9774  -21.0152 C   0  0  0  0  0  0  0  0  0  0  0  0
  -17.7556   16.1006  -21.5455 O   0  0  0  0  0  0  0  0  0  0  0  0
  -18.3440   14.8625  -19.7286 N   0  0  0  0  0  0  0  0  0  0  0  0
  -18.4826   13.6747  -19.1208 C   0  0  0  0  0  0  0  0  0  0  0  0
  -19.0233   13.0753  -17.5904 S   0  0  0  0  0  0  0  0  0  0  0  0
  -20.3476    8.7606  -15.8161 N   0  0  0  0  0  0  0  0  0  0  0  0
  -20.2444    9.9283  -16.3881 C   0  0  0  0  0  0  0  0  0  0  0  0
  -21.1078   10.8604  -16.3241 O   0  0  0  0  0  0  0  0  0  0  0  0
  -19.0738   10.2035  -17.1437 N   0  0  0  0  0  0  0  0  0  0  0  0
  -21.6381    9.0031  -15.3616 H   0  0  0  0  0  0  0  0  0  0  0  0
  -18.3561    9.4280  -17.1873 H   0  0  0  0  0  0  0  0  0  0  0  0
  -21.6223    6.6348  -15.5755 C   0  0  0  0  0  0  0  0  0  0  0  0
  -20.4693    7.4795  -15.1844 C   0  0  0  0  0  0  0  0  0  0  0  0
  -17.0351   13.8517  -23.0871 C   0  0  0  0  0  0  0  0  0  0  0  0
  -17.9837   14.1711  -24.0824 C   0  0  0  0  0  0  0  0  0  0  0  0
  -17.5244   14.2269  -25.3662 C   0  0  0  0  0  0  0  0  0  0  0  0
  -16.1903   13.9853  -25.6850 C   0  0  0  0  0  0  0  0  0  0  0  0
  -15.3099   13.6829  -24.7167 N   0  0  0  0  0  0  0  0  0  0  0  0
  -15.7445   13.6242  -23.4521 C   0  0  0  0  0  0  0  0  0  0  0  0
  -18.6742   16.0591  -19.0710 C   0  0  0  0  0  0  0  0  0  0  0  0
  -20.1214   16.2538  -18.7041 C   0  0  0  0  0  0  0  0  0  0  0  0
  -19.9294   17.2581  -17.5453 C   0  0  0  0  0  0  0  0  0  0  0  0
  -18.8990   16.6799  -16.8093 O   0  0  0  0  0  0  0  0  0  0  0  0
  -17.9865   16.1907  -17.7389 C   0  0  0  0  0  0  0  0  0  0  0  0
 17 18  1  0  0  0
 18 11  1  0  0  0
 11 12  1  0  0  0
 12 13  2  0  0  0
 12 14  1  0  0  0
 14  1  1  0  0  0
  1  2  2  0  0  0
  2  3  1  0  0  0
  3  4  1  0  0  0
  4  5  2  0  0  0
  5 19  1  0  0  0
 19 20  2  0  0  0
 20 21  1  0  0  0
 21 22  2  0  0  0
 22 23  1  0  0  0
 23 24  2  0  0  0
  5  6  1  0  0  0
  6  7  2  0  0  0
  6  8  1  0  0  0
  8 25  1  0  0  0
 25 26  1  0  0  0
 26 27  1  0  0  0
 27 28  1  0  0  0
 28 29  1  0  0  0
  8  9  1  0  0  0
  9 10  1  0  0  0
 10  1  1  0  0  0
  9  3  2  0  0  0
 24 19  1  0  0  0
 29 25  1  0  0  0
 11 15  1  0  0  0
 14 16  1  0  0  0
M  END
> <minimizedAffinity>
-7.84786

> <CNNscore>
0.1434838772

> <CNNaffinity>
6.3247218132

> <CNN_VS>
0.9074956179

> <CNNaffinity_variance>
0.4252410531

$$$$
[H]c1nc([H])c(-c2c([H])c3nc(N([H])C(=O)N([H])C([H])([H])C([H])([H])[H])sc3n(C3([H])C([H])([H])OC([H])([H])C3([H])[H])c2=O)c([H])c1[H]


 29 32  0  0  0  0  0  0  0  0999 V2000
  -19.1699   13.3049  -19.6139 C   0  0  0  0  0  0  0  0  0  0  0  0
  -19.1121   12.1591  -18.9001 N   0  0  0  0  0  0  0  0  0  0  0  0
  -19.7050   12.0881  -17.7651 C   0  0  0  0  0  0  0  0  0  0  0  0
  -19.7277   10.9654  -16.8922 C   0  0  0  0  0  0  0  0  0  0  0  0
  -20.3703   10.9670  -15.6905 C   0  0  0  0  0  0  0  0  0  0  0  0
  -21.0279   12.1007  -15.2948 C   0  0  0  0  0  0  0  0  0  0  0  0
  -21.6279   12.1443  -14.2018 O   0  0  0  0  0  0  0  0  0  0  0  0
  -21.0156   13.1967  -16.1247 N   0  0  0  0  0  0  0  0  0  0  0  0
  -20.3854   13.1903  -17.3090 C   0  0  0  0  0  0  0  0  0  0  0  0
  -20.1048   14.2894  -18.6154 S   0  0  0  0  0  0  0  0  0  0  0  0
  -17.0654   12.6588  -22.5633 N   0  0  0  0  0  0  0  0  0  0  0  0
  -17.6181   12.4259  -21.4051 C   0  0  0  0  0  0  0  0  0  0  0  0
  -17.4552   11.3746  -20.7076 O   0  0  0  0  0  0  0  0  0  0  0  0
  -18.4706   13.4208  -20.8568 N   0  0  0  0  0  0  0  0  0  0  0  0
  -16.4903   11.3961  -22.6377 H   0  0  0  0  0  0  0  0  0  0  0  0
  -18.5965   14.2958  -21.4374 H   0  0  0  0  0  0  0  0  0  0  0  0
  -17.3437   12.9562  -25.0201 C   0  0  0  0  0  0  0  0  0  0  0  0
  -16.4540   12.9065  -23.8361 C   0  0  0  0  0  0  0  0  0  0  0  0
  -20.3143    9.7399  -14.8701 C   0  0  0  0  0  0  0  0  0  0  0  0
  -19.2700    9.6826  -13.9222 C   0  0  0  0  0  0  0  0  0  0  0  0
  -19.2283    8.5736  -13.1280 C   0  0  0  0  0  0  0  0  0  0  0  0
  -20.1653    7.5492  -13.2395 C   0  0  0  0  0  0  0  0  0  0  0  0
  -21.1480    7.6308  -14.1515 N   0  0  0  0  0  0  0  0  0  0  0  0
  -21.2030    8.7122  -14.9381 C   0  0  0  0  0  0  0  0  0  0  0  0
  -21.7026   14.3353  -15.6724 C   0  0  0  0  0  0  0  0  0  0  0  0
  -22.2793   15.2424  -16.7266 C   0  0  0  0  0  0  0  0  0  0  0  0
  -23.3860   15.9056  -15.8759 C   0  0  0  0  0  0  0  0  0  0  0  0
  -23.9660   14.8175  -15.2298 O   0  0  0  0  0  0  0  0  0  0  0  0
  -22.9158   13.9860  -14.8532 C   0  0  0  0  0  0  0  0  0  0  0  0
 17 18  1  0  0  0
 18 11  1  0  0  0
 11 12  1  0  0  0
 12 13  2  0  0  0
 12 14  1  0  0  0
 14  1  1  0  0  0
  1  2  2  0  0  0
  2  3  1  0  0  0
  3  4  1  0  0  0
  4  5  2  0  0  0
  5 19  1  0  0  0
 19 20  2  0  0  0
 20 21  1  0  0  0
 21 22  2  0  0  0
 22 23  1  0  0  0
 23 24  2  0  0  0
  5  6  1  0  0  0
  6  7  2  0  0  0
  6  8  1  0  0  0
  8 25  1  0  0  0
 25 26  1  0  0  0
 26 27  1  0  0  0
 27 28  1  0  0  0
 28 29  1  0  0  0
  8  9  1  0  0  0
  9 10  1  0  0  0
 10  1  1  0  0  0
  9  3  2  0  0  0
 24 19  1  0  0  0
 29 25  1  0  0  0
 11 15  1  0  0  0
 14 16  1  0  0  0
M  END
> <minimizedAffinity>
-6.29745

> <CNNscore>
0.1353756189

> <CNNaffinity>
5.7076044083

> <CNN_VS>
0.7726705074

> <CNNaffinity_variance>
0.0867563486

$$$$
[H]c1nc([H])c(-c2c([H])c3nc(N([H])C(=O)N([H])C([H])([H])C([H])([H])[H])sc3n(C3([H])C([H])([H])OC([H])([H])C3([H])[H])c2=O)c([H])c1[H]


 29 32  0  0  0  0  0  0  0  0999 V2000
  -19.3485   13.7034  -20.1085 C   0  0  0  0  0  0  0  0  0  0  0  0
  -18.5175   13.5856  -21.1674 N   0  0  0  0  0  0  0  0  0  0  0  0
  -18.3216   14.5938  -21.9354 C   0  0  0  0  0  0  0  0  0  0  0  0
  -17.4925   14.6279  -23.0905 C   0  0  0  0  0  0  0  0  0  0  0  0
  -17.3421   15.7361  -23.8691 C   0  0  0  0  0  0  0  0  0  0  0  0
  -18.0196   16.8770  -23.5318 C   0  0  0  0  0  0  0  0  0  0  0  0
  -17.9106   17.9131  -24.2184 O   0  0  0  0  0  0  0  0  0  0  0  0
  -18.8273   16.8626  -22.4194 N   0  0  0  0  0  0  0  0  0  0  0  0
  -18.9697   15.7711  -21.6526 C   0  0  0  0  0  0  0  0  0  0  0  0
  -19.8471   15.3082  -20.2351 S   0  0  0  0  0  0  0  0  0  0  0  0
  -19.2829   11.2019  -17.4096 N   0  0  0  0  0  0  0  0  0  0  0  0
  -18.9056   12.2496  -18.0887 C   0  0  0  0  0  0  0  0  0  0  0  0
  -17.9355   13.0150  -17.7865 O   0  0  0  0  0  0  0  0  0  0  0  0
  -19.6209   12.5751  -19.2717 N   0  0  0  0  0  0  0  0  0  0  0  0
  -18.3735   11.4336  -16.3849 H   0  0  0  0  0  0  0  0  0  0  0  0
  -20.4217   11.9313  -19.5222 H   0  0  0  0  0  0  0  0  0  0  0  0
  -18.7788    8.8844  -16.6501 C   0  0  0  0  0  0  0  0  0  0  0  0
  -19.6912   10.0521  -16.6571 C   0  0  0  0  0  0  0  0  0  0  0  0
  -16.4576   15.6429  -25.0484 C   0  0  0  0  0  0  0  0  0  0  0  0
  -17.0049   14.9944  -26.1764 C   0  0  0  0  0  0  0  0  0  0  0  0
  -16.2155   14.9358  -27.2880 C   0  0  0  0  0  0  0  0  0  0  0  0
  -14.9369   15.4872  -27.3164 C   0  0  0  0  0  0  0  0  0  0  0  0
  -14.4418   16.0980  -26.2273 N   0  0  0  0  0  0  0  0  0  0  0  0
  -15.2035   16.1641  -25.1288 C   0  0  0  0  0  0  0  0  0  0  0  0
  -19.5022   18.0569  -22.1173 C   0  0  0  0  0  0  0  0  0  0  0  0
  -21.0007   17.9765  -21.9954 C   0  0  0  0  0  0  0  0  0  0  0  0
  -21.2230   19.2151  -21.0983 C   0  0  0  0  0  0  0  0  0  0  0  0
  -20.2452   19.0611  -20.1196 O   0  0  0  0  0  0  0  0  0  0  0  0
  -19.1027   18.6195  -20.7798 C   0  0  0  0  0  0  0  0  0  0  0  0
 17 18  1  0  0  0
 18 11  1  0  0  0
 11 12  1  0  0  0
 12 13  2  0  0  0
 12 14  1  0  0  0
 14  1  1  0  0  0
  1  2  2  0  0  0
  2  3  1  0  0  0
  3  4  1  0  0  0
  4  5  2  0  0  0
  5 19  1  0  0  0
 19 20  2  0  0  0
 20 21  1  0  0  0
 21 22  2  0  0  0
 22 23  1  0  0  0
 23 24  2  0  0  0
  5  6  1  0  0  0
  6  7  2  0  0  0
  6  8  1  0  0  0
  8 25  1  0  0  0
 25 26  1  0  0  0
 26 27  1  0  0  0
 27 28  1  0  0  0
 28 29  1  0  0  0
  8  9  1  0  0  0
  9 10  1  0  0  0
 10  1  1  0  0  0
  9  3  2  0  0  0
 24 19  1  0  0  0
 29 25  1  0  0  0
 11 15  1  0  0  0
 14 16  1  0  0  0
M  END
> <minimizedAffinity>
-7.46851

> <CNNscore>
0.1309475154

> <CNNaffinity>
6.1416902542

> <CNN_VS>
0.8042390943

> <CNNaffinity_variance>
0.2089845389

$$$$
[H]C1=C(C(=O)[O-])N2C(=O)/C(=C(\[H])c3oc4c([H])c([H])c([H])c([H])c4c3[H])[C@@]2([H])S1


 21 24  0  0  0  0  0  0  0  0999 V2000
  -16.7479   12.9876  -22.8772 C   0  0  0  0  0  0  0  0  0  0  0  0
  -17.4968   13.9802  -22.4393 C   0  0  0  0  0  0  0  0  0  0  0  0
  -18.0265   13.5043  -20.7965 S   0  0  0  0  0  0  0  0  0  0  0  0
  -17.7613   11.7013  -21.1178 C   0  0  0  0  0  0  0  0  0  0  0  0
  -16.5701   11.9332  -21.9849 N   0  0  0  0  0  0  0  0  0  0  0  0
  -15.9983   10.8288  -21.2502 C   0  0  0  0  0  0  0  0  0  0  0  0
  -15.0622   10.0262  -21.4512 O   0  0  0  0  0  0  0  0  0  0  0  0
  -16.9429   10.9957  -20.1490 C   0  0  0  0  0  0  0  0  0  0  0  0
  -17.0023   10.6569  -18.8862 C   0  0  0  0  0  0  0  0  0  0  0  0
  -18.1610   11.0144  -18.0647 C   0  0  0  0  0  0  0  0  0  0  0  0
  -19.0531   10.1477  -17.4692 C   0  0  0  0  0  0  0  0  0  0  0  0
  -19.9984   10.9043  -16.7836 C   0  0  0  0  0  0  0  0  0  0  0  0
  -21.0998   10.5712  -16.0247 C   0  0  0  0  0  0  0  0  0  0  0  0
  -21.8476   11.5943  -15.4692 C   0  0  0  0  0  0  0  0  0  0  0  0
  -21.5021   12.9242  -15.6677 C   0  0  0  0  0  0  0  0  0  0  0  0
  -20.3902   13.1995  -16.4358 C   0  0  0  0  0  0  0  0  0  0  0  0
  -19.6147   12.2104  -17.0095 C   0  0  0  0  0  0  0  0  0  0  0  0
  -18.5308   12.2354  -17.7665 O   0  0  0  0  0  0  0  0  0  0  0  0
  -16.8845   12.6359  -25.2981 O   0  0  0  0  0  0  0  0  0  0  0  0
  -16.1459   13.0450  -24.2054 C   0  0  0  0  0  0  0  0  0  0  0  0
  -14.9651   13.4547  -24.4186 O   0  0  0  0  0  0  0  0  0  0  0  0
 19 20  1  0  0  0
 20 21  2  0  0  0
 20  1  1  0  0  0
  1  2  2  0  0  0
  2  3  1  0  0  0
  3  4  1  0  0  0
  4  5  1  0  0  0
  5  6  1  0  0  0
  6  7  2  0  0  0
  6  8  1  0  0  0
  8  9  2  0  0  0
  9 10  1  0  0  0
 10 11  2  0  0  0
 11 12  1  0  0  0
 12 13  2  0  0  0
 13 14  1  0  0  0
 14 15  2  0  0  0
 15 16  1  0  0  0
 16 17  2  0  0  0
 17 18  1  0  0  0
  5  1  1  0  0  0
 18 10  1  0  0  0
  8  4  1  0  0  0
 17 12  1  0  0  0
M  CHG 1  19  -1
M  END
> <minimizedAffinity>
-8.14336

> <CNNscore>
0.5470002294

> <CNNaffinity>
5.5728087425

> <CNN_VS>
3.0483276844

> <CNNaffinity_variance>
0.0751101822

$$$$
[H]C1=C(C(=O)[O-])N2C(=O)/C(=C(\[H])c3oc4c([H])c([H])c([H])c([H])c4c3[H])[C@@]2([H])S1


 21 24  0  0  0  0  0  0  0  0999 V2000
  -19.6506   16.4670  -18.8861 C   0  0  0  0  0  0  0  0  0  0  0  0
  -18.9316   16.9104  -19.8982 C   0  0  0  0  0  0  0  0  0  0  0  0
  -20.1043   17.5793  -21.0742 S   0  0  0  0  0  0  0  0  0  0  0  0
  -21.5076   16.5736  -20.4083 C   0  0  0  0  0  0  0  0  0  0  0  0
  -21.0254   16.6582  -18.9995 N   0  0  0  0  0  0  0  0  0  0  0  0
  -22.4143   16.9056  -18.6894 C   0  0  0  0  0  0  0  0  0  0  0  0
  -23.1174   16.8182  -17.6604 O   0  0  0  0  0  0  0  0  0  0  0  0
  -22.7097   17.3092  -20.0615 C   0  0  0  0  0  0  0  0  0  0  0  0
  -23.6341   18.0077  -20.6703 C   0  0  0  0  0  0  0  0  0  0  0  0
  -23.5964   18.2031  -22.1214 C   0  0  0  0  0  0  0  0  0  0  0  0
  -23.5674   19.4062  -22.7945 C   0  0  0  0  0  0  0  0  0  0  0  0
  -23.5363   19.1370  -24.1594 C   0  0  0  0  0  0  0  0  0  0  0  0
  -23.5006   19.9430  -25.2770 C   0  0  0  0  0  0  0  0  0  0  0  0
  -23.4765   19.3386  -26.5214 C   0  0  0  0  0  0  0  0  0  0  0  0
  -23.4878   17.9560  -26.6472 C   0  0  0  0  0  0  0  0  0  0  0  0
  -23.5238   17.1985  -25.4953 C   0  0  0  0  0  0  0  0  0  0  0  0
  -23.5487   17.7591  -24.2327 C   0  0  0  0  0  0  0  0  0  0  0  0
  -23.5842   17.2450  -23.0150 O   0  0  0  0  0  0  0  0  0  0  0  0
  -19.1449   16.4265  -16.4891 O   0  0  0  0  0  0  0  0  0  0  0  0
  -19.0036   15.8468  -17.7344 C   0  0  0  0  0  0  0  0  0  0  0  0
  -18.3074   14.7898  -17.8112 O   0  0  0  0  0  0  0  0  0  0  0  0
 19 20  1  0  0  0
 20 21  2  0  0  0
 20  1  1  0  0  0
  1  2  2  0  0  0
  2  3  1  0  0  0
  3  4  1  0  0  0
  4  5  1  0  0  0
  5  6  1  0  0  0
  6  7  2  0  0  0
  6  8  1  0  0  0
  8  9  2  0  0  0
  9 10  1  0  0  0
 10 11  2  0  0  0
 11 12  1  0  0  0
 12 13  2  0  0  0
 13 14  1  0  0  0
 14 15  2  0  0  0
 15 16  1  0  0  0
 16 17  2  0  0  0
 17 18  1  0  0  0
  5  1  1  0  0  0
 18 10  1  0  0  0
  8  4  1  0  0  0
 17 12  1  0  0  0
M  CHG 1  19  -1
M  END
> <minimizedAffinity>
-5.91991

> <CNNscore>
0.5033910871

> <CNNaffinity>
4.8680272102

> <CNN_VS>
2.4505214691

> <CNNaffinity_variance>
0.0944541693

$$$$
[H]C1=C(C(=O)[O-])N2C(=O)/C(=C(\[H])c3oc4c([H])c([H])c([H])c([H])c4c3[H])[C@@]2([H])S1


 21 24  0  0  0  0  0  0  0  0999 V2000
  -18.7274   14.8358  -18.9905 C   0  0  0  0  0  0  0  0  0  0  0  0
  -19.0031   15.8669  -19.7642 C   0  0  0  0  0  0  0  0  0  0  0  0
  -18.4241   15.4197  -21.3984 S   0  0  0  0  0  0  0  0  0  0  0  0
  -17.2334   14.1612  -20.7483 C   0  0  0  0  0  0  0  0  0  0  0  0
  -18.1294   13.7518  -19.6284 N   0  0  0  0  0  0  0  0  0  0  0  0
  -17.7435   12.4102  -19.9993 C   0  0  0  0  0  0  0  0  0  0  0  0
  -17.7517   11.2999  -19.4267 O   0  0  0  0  0  0  0  0  0  0  0  0
  -17.3259   12.8359  -21.3325 C   0  0  0  0  0  0  0  0  0  0  0  0
  -17.1317   12.2682  -22.4957 C   0  0  0  0  0  0  0  0  0  0  0  0
  -16.6923   13.0526  -23.6519 C   0  0  0  0  0  0  0  0  0  0  0  0
  -17.3528   13.1975  -24.8537 C   0  0  0  0  0  0  0  0  0  0  0  0
  -16.5878   14.0248  -25.6702 C   0  0  0  0  0  0  0  0  0  0  0  0
  -16.7586   14.4998  -26.9528 C   0  0  0  0  0  0  0  0  0  0  0  0
  -15.7819   15.3243  -27.4827 C   0  0  0  0  0  0  0  0  0  0  0  0
  -14.6565   15.6678  -26.7458 C   0  0  0  0  0  0  0  0  0  0  0  0
  -14.5374   15.1638  -25.4676 C   0  0  0  0  0  0  0  0  0  0  0  0
  -15.4874   14.3376  -24.8985 C   0  0  0  0  0  0  0  0  0  0  0  0
  -15.5840   13.7482  -23.7189 O   0  0  0  0  0  0  0  0  0  0  0  0
  -18.3859   14.0380  -16.6992 O   0  0  0  0  0  0  0  0  0  0  0  0
  -19.0672   14.8637  -17.5715 C   0  0  0  0  0  0  0  0  0  0  0  0
  -19.9662   15.6134  -17.0844 O   0  0  0  0  0  0  0  0  0  0  0  0
 19 20  1  0  0  0
 20 21  2  0  0  0
 20  1  1  0  0  0
  1  2  2  0  0  0
  2  3  1  0  0  0
  3  4  1  0  0  0
  4  5  1  0  0  0
  5  6  1  0  0  0
  6  7  2  0  0  0
  6  8  1  0  0  0
  8  9  2  0  0  0
  9 10  1  0  0  0
 10 11  2  0  0  0
 11 12  1  0  0  0
 12 13  2  0  0  0
 13 14  1  0  0  0
 14 15  2  0  0  0
 15 16  1  0  0  0
 16 17  2  0  0  0
 17 18  1  0  0  0
  5  1  1  0  0  0
 18 10  1  0  0  0
  8  4  1  0  0  0
 17 12  1  0  0  0
M  CHG 1  19  -1
M  END
> <minimizedAffinity>
-8.26462

> <CNNscore>
0.3941175342

> <CNNaffinity>
5.8055062294

> <CNN_VS>
2.2880518436

> <CNNaffinity_variance>
0.2832632065

$$$$
[H]C1=C(C(=O)[O-])N2C(=O)/C(=C(\[H])c3oc4c([H])c([H])c([H])c([H])c4c3[H])[C@@]2([H])S1


 21 24  0  0  0  0  0  0  0  0999 V2000
  -18.9044   11.1748  -18.0637 C   0  0  0  0  0  0  0  0  0  0  0  0
  -19.7755   12.1570  -18.1833 C   0  0  0  0  0  0  0  0  0  0  0  0
  -19.3095   13.0449  -19.6666 S   0  0  0  0  0  0  0  0  0  0  0  0
  -17.5645   12.4316  -19.6135 C   0  0  0  0  0  0  0  0  0  0  0  0
  -17.9495   11.0953  -19.0742 N   0  0  0  0  0  0  0  0  0  0  0  0
  -17.0047   10.5906  -20.0434 C   0  0  0  0  0  0  0  0  0  0  0  0
  -16.3664    9.5256  -20.1810 O   0  0  0  0  0  0  0  0  0  0  0  0
  -17.0678   11.8185  -20.8316 C   0  0  0  0  0  0  0  0  0  0  0  0
  -16.7965   12.1752  -22.0613 C   0  0  0  0  0  0  0  0  0  0  0  0
  -16.9939   13.5570  -22.5050 C   0  0  0  0  0  0  0  0  0  0  0  0
  -16.0217   14.4365  -22.9325 C   0  0  0  0  0  0  0  0  0  0  0  0
  -16.6406   15.6390  -23.2600 C   0  0  0  0  0  0  0  0  0  0  0  0
  -16.1658   16.8438  -23.7322 C   0  0  0  0  0  0  0  0  0  0  0  0
  -17.0733   17.8633  -23.9587 C   0  0  0  0  0  0  0  0  0  0  0  0
  -18.4288   17.6832  -23.7184 C   0  0  0  0  0  0  0  0  0  0  0  0
  -18.8480   16.4571  -23.2462 C   0  0  0  0  0  0  0  0  0  0  0  0
  -17.9776   15.4113  -23.0059 C   0  0  0  0  0  0  0  0  0  0  0  0
  -18.1468   14.1768  -22.5637 O   0  0  0  0  0  0  0  0  0  0  0  0
  -18.3317    9.0311  -17.0245 O   0  0  0  0  0  0  0  0  0  0  0  0
  -18.9895   10.2427  -16.9440 C   0  0  0  0  0  0  0  0  0  0  0  0
  -19.6429   10.4834  -15.8844 O   0  0  0  0  0  0  0  0  0  0  0  0
 19 20  1  0  0  0
 20 21  2  0  0  0
 20  1  1  0  0  0
  1  2  2  0  0  0
  2  3  1  0  0  0
  3  4  1  0  0  0
  4  5  1  0  0  0
  5  6  1  0  0  0
  6  7  2  0  0  0
  6  8  1  0  0  0
  8  9  2  0  0  0
  9 10  1  0  0  0
 10 11  2  0  0  0
 11 12  1  0  0  0
 12 13  2  0  0  0
 13 14  1  0  0  0
 14 15  2  0  0  0
 15 16  1  0  0  0
 16 17  2  0  0  0
 17 18  1  0  0  0
  5  1  1  0  0  0
 18 10  1  0  0  0
  8  4  1  0  0  0
 17 12  1  0  0  0
M  CHG 1  19  -1
M  END
> <minimizedAffinity>
-7.20291

> <CNNscore>
0.3911210001

> <CNNaffinity>
5.5709524155

> <CNN_VS>
2.1789164543

> <CNNaffinity_variance>
0.1940880567

$$$$
[H]C1=C(C(=O)[O-])N2C(=O)/C(=C(\[H])c3oc4c([H])c([H])c([H])c([H])c4c3[H])[C@@]2([H])S1


 21 24  0  0  0  0  0  0  0  0999 V2000
  -19.8659   12.8197  -17.9890 C   0  0  0  0  0  0  0  0  0  0  0  0
  -20.4492   13.8201  -18.6188 C   0  0  0  0  0  0  0  0  0  0  0  0
  -19.5931   13.9778  -20.1834 S   0  0  0  0  0  0  0  0  0  0  0  0
  -18.0714   13.1313  -19.5574 C   0  0  0  0  0  0  0  0  0  0  0  0
  -18.8360   12.1928  -18.6861 N   0  0  0  0  0  0  0  0  0  0  0  0
  -17.9246   11.1976  -19.2014 C   0  0  0  0  0  0  0  0  0  0  0  0
  -17.5518   10.0654  -18.8276 O   0  0  0  0  0  0  0  0  0  0  0  0
  -17.5848   12.0226  -20.3576 C   0  0  0  0  0  0  0  0  0  0  0  0
  -17.0777   11.8295  -21.5486 C   0  0  0  0  0  0  0  0  0  0  0  0
  -16.8744   12.9493  -22.4706 C   0  0  0  0  0  0  0  0  0  0  0  0
  -17.1031   12.9545  -23.8304 C   0  0  0  0  0  0  0  0  0  0  0  0
  -16.7806   14.2172  -24.3180 C   0  0  0  0  0  0  0  0  0  0  0  0
  -16.8143   14.7766  -25.5774 C   0  0  0  0  0  0  0  0  0  0  0  0
  -16.4156   16.0937  -25.7211 C   0  0  0  0  0  0  0  0  0  0  0  0
  -15.9915   16.8378  -24.6284 C   0  0  0  0  0  0  0  0  0  0  0  0
  -15.9782   16.2274  -23.3918 C   0  0  0  0  0  0  0  0  0  0  0  0
  -16.3675   14.9154  -23.2018 C   0  0  0  0  0  0  0  0  0  0  0  0
  -16.4363   14.1375  -22.1347 O   0  0  0  0  0  0  0  0  0  0  0  0
  -21.2662   13.1818  -16.0113 O   0  0  0  0  0  0  0  0  0  0  0  0
  -20.3193   12.4157  -16.6621 C   0  0  0  0  0  0  0  0  0  0  0  0
  -19.8876   11.3859  -16.0613 O   0  0  0  0  0  0  0  0  0  0  0  0
 19 20  1  0  0  0
 20 21  2  0  0  0
 20  1  1  0  0  0
  1  2  2  0  0  0
  2  3  1  0  0  0
  3  4  1  0  0  0
  4  5  1  0  0  0
  5  6  1  0  0  0
  6  7  2  0  0  0
  6  8  1  0  0  0
  8  9  2  0  0  0
  9 10  1  0  0  0
 10 11  2  0  0  0
 11 12  1  0  0  0
 12 13  2  0  0  0
 13 14  1  0  0  0
 14 15  2  0  0  0
 15 16  1  0  0  0
 16 17  2  0  0  0
 17 18  1  0  0  0
  5  1  1  0  0  0
 18 10  1  0  0  0
  8  4  1  0  0  0
 17 12  1  0  0  0
M  CHG 1  19  -1
M  END
> <minimizedAffinity>
-7.33720

> <CNNscore>
0.3182184100

> <CNNaffinity>
5.4785242081

> <CNN_VS>
1.7433673143

> <CNNaffinity_variance>
0.2012814730

$$$$
[H]C1=C(C(=O)[O-])N2C(=O)/C(=C(\[H])c3oc4c([H])c([H])c([H])c([H])c4c3[H])[C@@]2([H])S1


 21 24  0  0  0  0  0  0  0  0999 V2000
  -18.9803   10.4250  -17.4341 C   0  0  0  0  0  0  0  0  0  0  0  0
  -19.9042   11.3436  -17.2330 C   0  0  0  0  0  0  0  0  0  0  0  0
  -19.5872   12.6274  -18.4402 S   0  0  0  0  0  0  0  0  0  0  0  0
  -17.8151   12.1385  -18.6521 C   0  0  0  0  0  0  0  0  0  0  0  0
  -18.0961   10.6840  -18.4784 N   0  0  0  0  0  0  0  0  0  0  0  0
  -17.1986   10.5226  -19.5987 C   0  0  0  0  0  0  0  0  0  0  0  0
  -16.5207    9.5785  -20.0568 O   0  0  0  0  0  0  0  0  0  0  0  0
  -17.3764   11.9107  -20.0166 C   0  0  0  0  0  0  0  0  0  0  0  0
  -17.2098   12.6028  -21.1148 C   0  0  0  0  0  0  0  0  0  0  0  0
  -17.5047   14.0371  -21.1524 C   0  0  0  0  0  0  0  0  0  0  0  0
  -18.6833   14.6300  -21.5534 C   0  0  0  0  0  0  0  0  0  0  0  0
  -18.5366   16.0084  -21.4323 C   0  0  0  0  0  0  0  0  0  0  0  0
  -19.3775   17.0704  -21.6873 C   0  0  0  0  0  0  0  0  0  0  0  0
  -18.9073   18.3505  -21.4537 C   0  0  0  0  0  0  0  0  0  0  0  0
  -17.6222   18.5659  -20.9745 C   0  0  0  0  0  0  0  0  0  0  0  0
  -16.8241   17.4666  -20.7369 C   0  0  0  0  0  0  0  0  0  0  0  0
  -17.2518   16.1712  -20.9558 C   0  0  0  0  0  0  0  0  0  0  0  0
  -16.6764   14.9904  -20.8036 O   0  0  0  0  0  0  0  0  0  0  0  0
  -20.0483    8.8855  -15.8553 O   0  0  0  0  0  0  0  0  0  0  0  0
  -18.9411    9.2220  -16.6090 C   0  0  0  0  0  0  0  0  0  0  0  0
  -17.9337    8.4551  -16.5418 O   0  0  0  0  0  0  0  0  0  0  0  0
 19 20  1  0  0  0
 20 21  2  0  0  0
 20  1  1  0  0  0
  1  2  2  0  0  0
  2  3  1  0  0  0
  3  4  1  0  0  0
  4  5  1  0  0  0
  5  6  1  0  0  0
  6  7  2  0  0  0
  6  8  1  0  0  0
  8  9  2  0  0  0
  9 10  1  0  0  0
 10 11  2  0  0  0
 11 12  1  0  0  0
 12 13  2  0  0  0
 13 14  1  0  0  0
 14 15  2  0  0  0
 15 16  1  0  0  0
 16 17  2  0  0  0
 17 18  1  0  0  0
  5  1  1  0  0  0
 18 10  1  0  0  0
  8  4  1  0  0  0
 17 12  1  0  0  0
M  CHG 1  19  -1
M  END
> <minimizedAffinity>
-7.17681

> <CNNscore>
0.2989557385

> <CNNaffinity>
5.3136782646

> <CNN_VS>
1.5885546207

> <CNNaffinity_variance>
0.1327136010

$$$$
[H]C1=C(C(=O)[O-])N2C(=O)/C(=C(\[H])c3oc4c([H])c([H])c([H])c([H])c4c3[H])[C@@]2([H])S1


 21 24  0  0  0  0  0  0  0  0999 V2000
  -18.4603   10.7128  -18.2159 C   0  0  0  0  0  0  0  0  0  0  0  0
  -17.4614   10.2145  -18.9171 C   0  0  0  0  0  0  0  0  0  0  0  0
  -17.0047   11.4883  -20.0897 S   0  0  0  0  0  0  0  0  0  0  0  0
  -18.6570   12.3161  -19.9958 C   0  0  0  0  0  0  0  0  0  0  0  0
  -18.8330   12.0135  -18.5459 N   0  0  0  0  0  0  0  0  0  0  0  0
  -19.2984   13.3784  -18.4637 C   0  0  0  0  0  0  0  0  0  0  0  0
  -19.9929   14.0261  -17.6519 O   0  0  0  0  0  0  0  0  0  0  0  0
  -18.6406   13.7402  -19.7164 C   0  0  0  0  0  0  0  0  0  0  0  0
  -18.2362   14.8420  -20.2956 C   0  0  0  0  0  0  0  0  0  0  0  0
  -17.5920   14.8083  -21.6106 C   0  0  0  0  0  0  0  0  0  0  0  0
  -18.2156   14.6992  -22.8357 C   0  0  0  0  0  0  0  0  0  0  0  0
  -17.2343   14.7059  -23.8222 C   0  0  0  0  0  0  0  0  0  0  0  0
  -17.2817   14.6248  -25.1973 C   0  0  0  0  0  0  0  0  0  0  0  0
  -16.0893   14.6606  -25.8982 C   0  0  0  0  0  0  0  0  0  0  0  0
  -14.8730   14.7752  -25.2386 C   0  0  0  0  0  0  0  0  0  0  0  0
  -14.8849   14.8527  -23.8616 C   0  0  0  0  0  0  0  0  0  0  0  0
  -16.0511   14.8209  -23.1214 C   0  0  0  0  0  0  0  0  0  0  0  0
  -16.3013   14.8784  -21.8243 O   0  0  0  0  0  0  0  0  0  0  0  0
  -18.7493    8.5945  -17.0191 O   0  0  0  0  0  0  0  0  0  0  0  0
  -19.0863    9.9264  -17.1579 C   0  0  0  0  0  0  0  0  0  0  0  0
  -19.9358   10.4018  -16.3455 O   0  0  0  0  0  0  0  0  0  0  0  0
 19 20  1  0  0  0
 20 21  2  0  0  0
 20  1  1  0  0  0
  1  2  2  0  0  0
  2  3  1  0  0  0
  3  4  1  0  0  0
  4  5  1  0  0  0
  5  6  1  0  0  0
  6  7  2  0  0  0
  6  8  1  0  0  0
  8  9  2  0  0  0
  9 10  1  0  0  0
 10 11  2  0  0  0
 11 12  1  0  0  0
 12 13  2  0  0  0
 13 14  1  0  0  0
 14 15  2  0  0  0
 15 16  1  0  0  0
 16 17  2  0  0  0
 17 18  1  0  0  0
  5  1  1  0  0  0
 18 10  1  0  0  0
  8  4  1  0  0  0
 17 12  1  0  0  0
M  CHG 1  19  -1
M  END
> <minimizedAffinity>
-7.52719

> <CNNscore>
0.2876938283

> <CNNaffinity>
5.2622222900

> <CNN_VS>
1.5139088631

> <CNNaffinity_variance>
0.2374411523

$$$$
[H]C1=C(C(=O)[O-])N2C(=O)/C(=C(\[H])c3oc4c([H])c([H])c([H])c([H])c4c3[H])[C@@]2([H])S1


 21 24  0  0  0  0  0  0  0  0999 V2000
  -16.9525   11.5753  -21.0327 C   0  0  0  0  0  0  0  0  0  0  0  0
  -16.5489   10.4175  -20.5483 C   0  0  0  0  0  0  0  0  0  0  0  0
  -17.4971   10.1570  -19.0521 S   0  0  0  0  0  0  0  0  0  0  0  0
  -17.8565   11.9597  -18.8390 C   0  0  0  0  0  0  0  0  0  0  0  0
  -17.9560   12.2110  -20.3059 N   0  0  0  0  0  0  0  0  0  0  0  0
  -19.1150   12.9955  -19.9482 C   0  0  0  0  0  0  0  0  0  0  0  0
  -19.7676   13.9068  -20.4999 O   0  0  0  0  0  0  0  0  0  0  0  0
  -19.2529   12.3141  -18.6639 C   0  0  0  0  0  0  0  0  0  0  0  0
  -20.2028   12.1258  -17.7834 C   0  0  0  0  0  0  0  0  0  0  0  0
  -19.9549   11.3564  -16.5619 C   0  0  0  0  0  0  0  0  0  0  0  0
  -19.7625    9.9944  -16.4658 C   0  0  0  0  0  0  0  0  0  0  0  0
  -19.5606    9.6801  -15.1253 C   0  0  0  0  0  0  0  0  0  0  0  0
  -19.3242    8.4953  -14.4618 C   0  0  0  0  0  0  0  0  0  0  0  0
  -19.1656    8.5330  -13.0878 C   0  0  0  0  0  0  0  0  0  0  0  0
  -19.2415    9.7309  -12.3900 C   0  0  0  0  0  0  0  0  0  0  0  0
  -19.4801   10.8859  -13.1049 C   0  0  0  0  0  0  0  0  0  0  0  0
  -19.6446   10.8951  -14.4767 C   0  0  0  0  0  0  0  0  0  0  0  0
  -19.8771   11.8571  -15.3536 O   0  0  0  0  0  0  0  0  0  0  0  0
  -16.9649   13.1954  -22.8707 O   0  0  0  0  0  0  0  0  0  0  0  0
  -16.3752   12.1037  -22.2644 C   0  0  0  0  0  0  0  0  0  0  0  0
  -15.3476   11.6111  -22.8202 O   0  0  0  0  0  0  0  0  0  0  0  0
 19 20  1  0  0  0
 20 21  2  0  0  0
 20  1  1  0  0  0
  1  2  2  0  0  0
  2  3  1  0  0  0
  3  4  1  0  0  0
  4  5  1  0  0  0
  5  6  1  0  0  0
  6  7  2  0  0  0
  6  8  1  0  0  0
  8  9  2  0  0  0
  9 10  1  0  0  0
 10 11  2  0  0  0
 11 12  1  0  0  0
 12 13  2  0  0  0
 13 14  1  0  0  0
 14 15  2  0  0  0
 15 16  1  0  0  0
 16 17  2  0  0  0
 17 18  1  0  0  0
  5  1  1  0  0  0
 18 10  1  0  0  0
  8  4  1  0  0  0
 17 12  1  0  0  0
M  CHG 1  19  -1
M  END
> <minimizedAffinity>
-6.61616

> <CNNscore>
0.2722396553

> <CNNaffinity>
5.0592188835

> <CNN_VS>
1.3773200512

> <CNNaffinity_variance>
0.1027518138

$$$$
[H]C1=C(C(=O)[O-])N2C(=O)/C(=C(\[H])c3oc4c([H])c([H])c([H])c([H])c4c3[H])[C@@]2([H])S1


 21 24  0  0  0  0  0  0  0  0999 V2000
  -17.7216   14.4514  -23.1935 C   0  0  0  0  0  0  0  0  0  0  0  0
  -18.5366   14.9998  -22.3144 C   0  0  0  0  0  0  0  0  0  0  0  0
  -18.5108   13.9213  -20.8855 S   0  0  0  0  0  0  0  0  0  0  0  0
  -17.9403   12.4595  -21.8662 C   0  0  0  0  0  0  0  0  0  0  0  0
  -17.0918   13.2812  -22.7770 N   0  0  0  0  0  0  0  0  0  0  0  0
  -16.1201   12.2293  -22.5881 C   0  0  0  0  0  0  0  0  0  0  0  0
  -15.1111   11.8381  -23.2123 O   0  0  0  0  0  0  0  0  0  0  0  0
  -16.7661   11.7726  -21.3605 C   0  0  0  0  0  0  0  0  0  0  0  0
  -16.4250   11.0710  -20.3096 C   0  0  0  0  0  0  0  0  0  0  0  0
  -17.3863   10.8073  -19.2364 C   0  0  0  0  0  0  0  0  0  0  0  0
  -18.2495   11.7131  -18.6567 C   0  0  0  0  0  0  0  0  0  0  0  0
  -18.9840   11.0465  -17.6809 C   0  0  0  0  0  0  0  0  0  0  0  0
  -19.9702   11.4492  -16.8061 C   0  0  0  0  0  0  0  0  0  0  0  0
  -20.5048   10.5097  -15.9424 C   0  0  0  0  0  0  0  0  0  0  0  0
  -20.0633    9.1935  -15.9522 C   0  0  0  0  0  0  0  0  0  0  0  0
  -19.0743    8.8461  -16.8485 C   0  0  0  0  0  0  0  0  0  0  0  0
  -18.5121    9.7506  -17.7287 C   0  0  0  0  0  0  0  0  0  0  0  0
  -17.5740    9.6483  -18.6549 O   0  0  0  0  0  0  0  0  0  0  0  0
  -17.4954   14.2900  -25.6278 O   0  0  0  0  0  0  0  0  0  0  0  0
  -17.5058   15.0779  -24.4937 C   0  0  0  0  0  0  0  0  0  0  0  0
  -17.3237   16.3234  -24.6461 O   0  0  0  0  0  0  0  0  0  0  0  0
 19 20  1  0  0  0
 20 21  2  0  0  0
 20  1  1  0  0  0
  1  2  2  0  0  0
  2  3  1  0  0  0
  3  4  1  0  0  0
  4  5  1  0  0  0
  5  6  1  0  0  0
  6  7  2  0  0  0
  6  8  1  0  0  0
  8  9  2  0  0  0
  9 10  1  0  0  0
 10 11  2  0  0  0
 11 12  1  0  0  0
 12 13  2  0  0  0
 13 14  1  0  0  0
 14 15  2  0  0  0
 15 16  1  0  0  0
 16 17  2  0  0  0
 17 18  1  0  0  0
  5  1  1  0  0  0
 18 10  1  0  0  0
  8  4  1  0  0  0
 17 12  1  0  0  0
M  CHG 1  19  -1
M  END
> <minimizedAffinity>
-7.91533

> <CNNscore>
0.2569665313

> <CNNaffinity>
5.4024624825

> <CNN_VS>
1.3882520199

> <CNNaffinity_variance>
0.1078091040

$$$$
[H]c1c([H])c([H])c(-n2nc([H])c3c(=O)n([H])c(N4C([H])([H])C([H])([H])N(c5c([H])c([H])c([H])c([H])c5OC([H])([H])[H])C([H])([H])C4([H])[H])nc32)c([H])c1[H]


 31 35  0  0  0  0  0  0  0  0999 V2000
  -18.8516   10.4892  -17.7765 C   0  0  0  0  0  0  0  0  0  0  0  0
  -19.0929   11.7296  -18.2410 N   0  0  0  0  0  0  0  0  0  0  0  0
  -18.3756   12.2906  -19.2418 C   0  0  0  0  0  0  0  0  0  0  0  0
  -18.4677   13.5122  -19.8371 N   0  0  0  0  0  0  0  0  0  0  0  0
  -17.5341   13.5761  -20.7657 N   0  0  0  0  0  0  0  0  0  0  0  0
  -16.8267   12.4240  -20.7977 C   0  0  0  0  0  0  0  0  0  0  0  0
  -17.3475   11.5838  -19.8294 C   0  0  0  0  0  0  0  0  0  0  0  0
  -17.0991   10.3219  -19.3595 C   0  0  0  0  0  0  0  0  0  0  0  0
  -16.1609    9.6686  -19.8910 O   0  0  0  0  0  0  0  0  0  0  0  0
  -17.8426    9.8082  -18.3599 N   0  0  0  0  0  0  0  0  0  0  0  0
  -17.6177    8.8282  -18.0265 H   0  0  0  0  0  0  0  0  0  0  0  0
  -19.6362    9.1535  -14.1896 N   0  0  0  0  0  0  0  0  0  0  0  0
  -18.8441    8.3750  -15.1038 C   0  0  0  0  0  0  0  0  0  0  0  0
  -19.4568    8.4858  -16.4808 C   0  0  0  0  0  0  0  0  0  0  0  0
  -19.6233    9.9204  -16.7280 N   0  0  0  0  0  0  0  0  0  0  0  0
  -20.5496   10.6450  -15.9034 C   0  0  0  0  0  0  0  0  0  0  0  0
  -20.8350    9.8153  -14.6619 C   0  0  0  0  0  0  0  0  0  0  0  0
  -18.9679    8.3095  -11.9740 C   0  0  0  0  0  0  0  0  0  0  0  0
  -18.6514    8.5077  -10.6467 C   0  0  0  0  0  0  0  0  0  0  0  0
  -18.6737    9.8073  -10.1402 C   0  0  0  0  0  0  0  0  0  0  0  0
  -19.0124   10.8397  -10.9934 C   0  0  0  0  0  0  0  0  0  0  0  0
  -19.3217   10.6092  -12.3081 C   0  0  0  0  0  0  0  0  0  0  0  0
  -19.3037    9.3189  -12.8262 C   0  0  0  0  0  0  0  0  0  0  0  0
  -19.8872    6.0247  -12.2157 C   0  0  0  0  0  0  0  0  0  0  0  0
  -18.9431    7.0204  -12.4671 O   0  0  0  0  0  0  0  0  0  0  0  0
  -19.4439   14.4795  -19.4412 C   0  0  0  0  0  0  0  0  0  0  0  0
  -20.6929   14.5645  -20.0195 C   0  0  0  0  0  0  0  0  0  0  0  0
  -21.6267   15.5109  -19.6240 C   0  0  0  0  0  0  0  0  0  0  0  0
  -21.3238   16.4085  -18.6227 C   0  0  0  0  0  0  0  0  0  0  0  0
  -20.0776   16.3280  -18.0414 C   0  0  0  0  0  0  0  0  0  0  0  0
  -19.1502   15.3811  -18.4408 C   0  0  0  0  0  0  0  0  0  0  0  0
 24 25  1  0  0  0
 25 18  1  0  0  0
 18 19  2  0  0  0
 19 20  1  0  0  0
 20 21  2  0  0  0
 21 22  1  0  0  0
 22 23  2  0  0  0
 23 12  1  0  0  0
 12 13  1  0  0  0
 13 14  1  0  0  0
 14 15  1  0  0  0
 15 16  1  0  0  0
 16 17  1  0  0  0
 15  1  1  0  0  0
  1  2  2  0  0  0
  2  3  1  0  0  0
  3  4  1  0  0  0
  4  5  1  0  0  0
  5  6  2  0  0  0
  6  7  1  0  0  0
  7  8  1  0  0  0
  8  9  2  0  0  0
  8 10  1  0  0  0
  4 26  1  0  0  0
 26 27  2  0  0  0
 27 28  1  0  0  0
 28 29  2  0  0  0
 29 30  1  0  0  0
 30 31  2  0  0  0
 23 18  1  0  0  0
 17 12  1  0  0  0
 10  1  1  0  0  0
 31 26  1  0  0  0
  7  3  2  0  0  0
 10 11  1  0  0  0
M  END
> <minimizedAffinity>
-7.33283

> <CNNscore>
0.8644882441

> <CNNaffinity>
6.9223794937

> <CNN_VS>
5.9843158722

> <CNNaffinity_variance>
0.3540717959

$$$$
[H]c1c([H])c([H])c(-n2nc([H])c3c(=O)n([H])c(N4C([H])([H])C([H])([H])N(c5c([H])c([H])c([H])c([H])c5OC([H])([H])[H])C([H])([H])C4([H])[H])nc32)c([H])c1[H]


 31 35  0  0  0  0  0  0  0  0999 V2000
  -18.1684   12.5212  -19.7997 C   0  0  0  0  0  0  0  0  0  0  0  0
  -17.7536   13.2053  -20.8825 N   0  0  0  0  0  0  0  0  0  0  0  0
  -16.8465   12.7135  -21.7578 C   0  0  0  0  0  0  0  0  0  0  0  0
  -16.3113   13.2472  -22.8910 N   0  0  0  0  0  0  0  0  0  0  0  0
  -15.4663   12.3655  -23.3877 N   0  0  0  0  0  0  0  0  0  0  0  0
  -15.4307   11.2610  -22.6083 C   0  0  0  0  0  0  0  0  0  0  0  0
  -16.3074   11.4603  -21.5564 C   0  0  0  0  0  0  0  0  0  0  0  0
  -16.7269   10.7616  -20.4561 C   0  0  0  0  0  0  0  0  0  0  0  0
  -16.2392    9.6149  -20.2642 O   0  0  0  0  0  0  0  0  0  0  0  0
  -17.6330   11.2960  -19.6140 N   0  0  0  0  0  0  0  0  0  0  0  0
  -17.9309   10.7219  -18.7751 H   0  0  0  0  0  0  0  0  0  0  0  0
  -19.7635   15.1158  -17.3524 N   0  0  0  0  0  0  0  0  0  0  0  0
  -18.6502   14.3054  -16.9365 C   0  0  0  0  0  0  0  0  0  0  0  0
  -18.8539   12.9052  -17.4670 C   0  0  0  0  0  0  0  0  0  0  0  0
  -19.1268   13.0577  -18.8986 N   0  0  0  0  0  0  0  0  0  0  0  0
  -20.3351   13.7294  -19.2881 C   0  0  0  0  0  0  0  0  0  0  0  0
  -20.8529   14.5137  -18.0932 C   0  0  0  0  0  0  0  0  0  0  0  0
  -19.5236   17.4938  -17.9485 C   0  0  0  0  0  0  0  0  0  0  0  0
  -19.6257   18.8352  -17.6461 C   0  0  0  0  0  0  0  0  0  0  0  0
  -20.0948   19.2031  -16.3850 C   0  0  0  0  0  0  0  0  0  0  0  0
  -20.4371   18.2045  -15.4938 C   0  0  0  0  0  0  0  0  0  0  0  0
  -20.3240   16.8800  -15.8253 C   0  0  0  0  0  0  0  0  0  0  0  0
  -19.8576   16.4990  -17.0787 C   0  0  0  0  0  0  0  0  0  0  0  0
  -17.7219   16.9860  -19.5672 C   0  0  0  0  0  0  0  0  0  0  0  0
  -19.0586   17.1386  -19.1988 O   0  0  0  0  0  0  0  0  0  0  0  0
  -16.6739   14.5470  -23.3644 C   0  0  0  0  0  0  0  0  0  0  0  0
  -17.9125   14.8316  -23.8998 C   0  0  0  0  0  0  0  0  0  0  0  0
  -18.2461   16.0983  -24.3562 C   0  0  0  0  0  0  0  0  0  0  0  0
  -17.3297   17.1254  -24.2845 C   0  0  0  0  0  0  0  0  0  0  0  0
  -16.0910   16.8468  -23.7505 C   0  0  0  0  0  0  0  0  0  0  0  0
  -15.7643   15.5804  -23.2968 C   0  0  0  0  0  0  0  0  0  0  0  0
 24 25  1  0  0  0
 25 18  1  0  0  0
 18 19  2  0  0  0
 19 20  1  0  0  0
 20 21  2  0  0  0
 21 22  1  0  0  0
 22 23  2  0  0  0
 23 12  1  0  0  0
 12 13  1  0  0  0
 13 14  1  0  0  0
 14 15  1  0  0  0
 15 16  1  0  0  0
 16 17  1  0  0  0
 15  1  1  0  0  0
  1  2  2  0  0  0
  2  3  1  0  0  0
  3  4  1  0  0  0
  4  5  1  0  0  0
  5  6  2  0  0  0
  6  7  1  0  0  0
  7  8  1  0  0  0
  8  9  2  0  0  0
  8 10  1  0  0  0
  4 26  1  0  0  0
 26 27  2  0  0  0
 27 28  1  0  0  0
 28 29  2  0  0  0
 29 30  1  0  0  0
 30 31  2  0  0  0
 23 18  1  0  0  0
 17 12  1  0  0  0
 10  1  1  0  0  0
 31 26  1  0  0  0
  7  3  2  0  0  0
 10 11  1  0  0  0
M  END
> <minimizedAffinity>
-8.21599

> <CNNscore>
0.5529385209

> <CNNaffinity>
6.8722467422

> <CNN_VS>
3.7999298573

> <CNNaffinity_variance>
0.1080162972

$$$$
[H]c1c([H])c([H])c(-n2nc([H])c3c(=O)n([H])c(N4C([H])([H])C([H])([H])N(c5c([H])c([H])c([H])c([H])c5OC([H])([H])[H])C([H])([H])C4([H])[H])nc32)c([H])c1[H]


 31 35  0  0  0  0  0  0  0  0999 V2000
  -18.4298   13.9488  -20.1647 C   0  0  0  0  0  0  0  0  0  0  0  0
  -18.5069   12.8426  -19.4012 N   0  0  0  0  0  0  0  0  0  0  0  0
  -17.8422   11.7011  -19.6945 C   0  0  0  0  0  0  0  0  0  0  0  0
  -17.7963   10.4993  -19.0551 N   0  0  0  0  0  0  0  0  0  0  0  0
  -16.9998    9.7085  -19.7468 N   0  0  0  0  0  0  0  0  0  0  0  0
  -16.5182   10.3606  -20.8292 C   0  0  0  0  0  0  0  0  0  0  0  0
  -17.0443   11.6404  -20.8176 C   0  0  0  0  0  0  0  0  0  0  0  0
  -16.9635   12.7636  -21.5966 C   0  0  0  0  0  0  0  0  0  0  0  0
  -16.2362   12.7169  -22.6254 O   0  0  0  0  0  0  0  0  0  0  0  0
  -17.6457   13.8762  -21.2611 N   0  0  0  0  0  0  0  0  0  0  0  0
  -17.5551   14.7233  -21.8907 H   0  0  0  0  0  0  0  0  0  0  0  0
  -19.3742   17.7380  -20.2903 N   0  0  0  0  0  0  0  0  0  0  0  0
  -18.1859   17.3019  -19.6071 C   0  0  0  0  0  0  0  0  0  0  0  0
  -18.5065   16.0312  -18.8546 C   0  0  0  0  0  0  0  0  0  0  0  0
  -19.1334   15.1373  -19.8318 N   0  0  0  0  0  0  0  0  0  0  0  0
  -20.4059   15.5190  -20.3775 C   0  0  0  0  0  0  0  0  0  0  0  0
  -20.6109   17.0033  -20.1203 C   0  0  0  0  0  0  0  0  0  0  0  0
  -19.7563   20.1258  -20.7594 C   0  0  0  0  0  0  0  0  0  0  0  0
  -19.7794   21.2033  -21.6195 C   0  0  0  0  0  0  0  0  0  0  0  0
  -19.4276   21.0017  -22.9543 C   0  0  0  0  0  0  0  0  0  0  0  0
  -19.0708   19.7288  -23.3552 C   0  0  0  0  0  0  0  0  0  0  0  0
  -19.0579   18.6787  -22.4751 C   0  0  0  0  0  0  0  0  0  0  0  0
  -19.4065   18.8652  -21.1420 C   0  0  0  0  0  0  0  0  0  0  0  0
  -19.2538   20.7588  -18.4204 C   0  0  0  0  0  0  0  0  0  0  0  0
  -20.1056   20.3342  -19.4403 O   0  0  0  0  0  0  0  0  0  0  0  0
  -18.5272   10.2496  -17.8515 C   0  0  0  0  0  0  0  0  0  0  0  0
  -18.4222    9.0726  -17.1408 C   0  0  0  0  0  0  0  0  0  0  0  0
  -19.1408    8.8469  -15.9759 C   0  0  0  0  0  0  0  0  0  0  0  0
  -19.9951    9.8131  -15.4894 C   0  0  0  0  0  0  0  0  0  0  0  0
  -20.1037   10.9909  -16.1954 C   0  0  0  0  0  0  0  0  0  0  0  0
  -19.3838   11.2098  -17.3573 C   0  0  0  0  0  0  0  0  0  0  0  0
 24 25  1  0  0  0
 25 18  1  0  0  0
 18 19  2  0  0  0
 19 20  1  0  0  0
 20 21  2  0  0  0
 21 22  1  0  0  0
 22 23  2  0  0  0
 23 12  1  0  0  0
 12 13  1  0  0  0
 13 14  1  0  0  0
 14 15  1  0  0  0
 15 16  1  0  0  0
 16 17  1  0  0  0
 15  1  1  0  0  0
  1  2  2  0  0  0
  2  3  1  0  0  0
  3  4  1  0  0  0
  4  5  1  0  0  0
  5  6  2  0  0  0
  6  7  1  0  0  0
  7  8  1  0  0  0
  8  9  2  0  0  0
  8 10  1  0  0  0
  4 26  1  0  0  0
 26 27  2  0  0  0
 27 28  1  0  0  0
 28 29  2  0  0  0
 29 30  1  0  0  0
 30 31  2  0  0  0
 23 18  1  0  0  0
 17 12  1  0  0  0
 10  1  1  0  0  0
 31 26  1  0  0  0
  7  3  2  0  0  0
 10 11  1  0  0  0
M  END
> <minimizedAffinity>
-7.88763

> <CNNscore>
0.4886740446

> <CNNaffinity>
6.7722258568

> <CNN_VS>
3.3094110489

> <CNNaffinity_variance>
0.2079264820

$$$$
[H]c1c([H])c([H])c(-n2nc([H])c3c(=O)n([H])c(N4C([H])([H])C([H])([H])N(c5c([H])c([H])c([H])c([H])c5OC([H])([H])[H])C([H])([H])C4([H])[H])nc32)c([H])c1[H]


 31 35  0  0  0  0  0  0  0  0999 V2000
  -16.9664   13.2630  -21.7157 C   0  0  0  0  0  0  0  0  0  0  0  0
  -17.6844   13.3085  -20.5777 N   0  0  0  0  0  0  0  0  0  0  0  0
  -17.7681   12.2645  -19.7210 C   0  0  0  0  0  0  0  0  0  0  0  0
  -18.4335   12.1224  -18.5411 N   0  0  0  0  0  0  0  0  0  0  0  0
  -18.1948   10.9064  -18.0913 N   0  0  0  0  0  0  0  0  0  0  0  0
  -17.3865   10.2413  -18.9474 C   0  0  0  0  0  0  0  0  0  0  0  0
  -17.0992   11.0915  -20.0007 C   0  0  0  0  0  0  0  0  0  0  0  0
  -16.3680   11.0415  -21.1573 C   0  0  0  0  0  0  0  0  0  0  0  0
  -15.7531    9.9729  -21.4209 O   0  0  0  0  0  0  0  0  0  0  0  0
  -16.3167   12.1092  -21.9779 N   0  0  0  0  0  0  0  0  0  0  0  0
  -15.7391   12.0289  -22.8622 H   0  0  0  0  0  0  0  0  0  0  0  0
  -17.7734   16.8220  -23.1114 N   0  0  0  0  0  0  0  0  0  0  0  0
  -18.7075   15.7410  -23.2784 C   0  0  0  0  0  0  0  0  0  0  0  0
  -17.9331   14.4888  -23.6189 C   0  0  0  0  0  0  0  0  0  0  0  0
  -16.8900   14.3755  -22.5962 N   0  0  0  0  0  0  0  0  0  0  0  0
  -15.8695   15.3854  -22.5574 C   0  0  0  0  0  0  0  0  0  0  0  0
  -16.3614   16.5928  -23.3392 C   0  0  0  0  0  0  0  0  0  0  0  0
  -18.0064   18.6488  -21.4754 C   0  0  0  0  0  0  0  0  0  0  0  0
  -18.3986   19.9253  -21.1319 C   0  0  0  0  0  0  0  0  0  0  0  0
  -18.9851   20.7306  -22.1083 C   0  0  0  0  0  0  0  0  0  0  0  0
  -19.1467   20.2119  -23.3785 C   0  0  0  0  0  0  0  0  0  0  0  0
  -18.7459   18.9388  -23.6877 C   0  0  0  0  0  0  0  0  0  0  0  0
  -18.1602   18.1249  -22.7243 C   0  0  0  0  0  0  0  0  0  0  0  0
  -18.0964   16.9914  -19.6398 C   0  0  0  0  0  0  0  0  0  0  0  0
  -17.4267   17.8586  -20.5032 O   0  0  0  0  0  0  0  0  0  0  0  0
  -19.2254   13.1744  -17.9830 C   0  0  0  0  0  0  0  0  0  0  0  0
  -20.5867   13.2735  -18.1795 C   0  0  0  0  0  0  0  0  0  0  0  0
  -21.3387   14.3025  -17.6319 C   0  0  0  0  0  0  0  0  0  0  0  0
  -20.7321   15.2715  -16.8618 C   0  0  0  0  0  0  0  0  0  0  0  0
  -19.3725   15.1774  -16.6622 C   0  0  0  0  0  0  0  0  0  0  0  0
  -18.6277   14.1479  -17.2116 C   0  0  0  0  0  0  0  0  0  0  0  0
 24 25  1  0  0  0
 25 18  1  0  0  0
 18 19  2  0  0  0
 19 20  1  0  0  0
 20 21  2  0  0  0
 21 22  1  0  0  0
 22 23  2  0  0  0
 23 12  1  0  0  0
 12 13  1  0  0  0
 13 14  1  0  0  0
 14 15  1  0  0  0
 15 16  1  0  0  0
 16 17  1  0  0  0
 15  1  1  0  0  0
  1  2  2  0  0  0
  2  3  1  0  0  0
  3  4  1  0  0  0
  4  5  1  0  0  0
  5  6  2  0  0  0
  6  7  1  0  0  0
  7  8  1  0  0  0
  8  9  2  0  0  0
  8 10  1  0  0  0
  4 26  1  0  0  0
 26 27  2  0  0  0
 27 28  1  0  0  0
 28 29  2  0  0  0
 29 30  1  0  0  0
 30 31  2  0  0  0
 23 18  1  0  0  0
 17 12  1  0  0  0
 10  1  1  0  0  0
 31 26  1  0  0  0
  7  3  2  0  0  0
 10 11  1  0  0  0
M  END
> <minimizedAffinity>
-7.57313

> <CNNscore>
0.4623813331

> <CNNaffinity>
7.0120000839

> <CNN_VS>
3.2422180176

> <CNNaffinity_variance>
0.2614889443

$$$$
[H]c1c([H])c([H])c(-n2nc([H])c3c(=O)n([H])c(N4C([H])([H])C([H])([H])N(c5c([H])c([H])c([H])c([H])c5OC([H])([H])[H])C([H])([H])C4([H])[H])nc32)c([H])c1[H]


 31 35  0  0  0  0  0  0  0  0999 V2000
  -18.6519   13.2642  -19.8145 C   0  0  0  0  0  0  0  0  0  0  0  0
  -17.9340   13.1910  -20.9511 N   0  0  0  0  0  0  0  0  0  0  0  0
  -17.0656   12.1853  -21.2068 C   0  0  0  0  0  0  0  0  0  0  0  0
  -16.2628   11.9434  -22.2802 N   0  0  0  0  0  0  0  0  0  0  0  0
  -15.6034   10.8267  -22.0428 N   0  0  0  0  0  0  0  0  0  0  0  0
  -15.9522   10.3250  -20.8364 C   0  0  0  0  0  0  0  0  0  0  0  0
  -16.8887   11.1789  -20.2808 C   0  0  0  0  0  0  0  0  0  0  0  0
  -17.6171   11.2500  -19.1235 C   0  0  0  0  0  0  0  0  0  0  0  0
  -17.4616   10.3340  -18.2713 O   0  0  0  0  0  0  0  0  0  0  0  0
  -18.4693   12.2731  -18.9164 N   0  0  0  0  0  0  0  0  0  0  0  0
  -19.0139   12.2899  -18.0080 H   0  0  0  0  0  0  0  0  0  0  0  0
  -20.3180   16.7660  -20.2910 N   0  0  0  0  0  0  0  0  0  0  0  0
  -19.0462   16.6441  -19.6301 C   0  0  0  0  0  0  0  0  0  0  0  0
  -19.0895   15.4305  -18.7308 C   0  0  0  0  0  0  0  0  0  0  0  0
  -19.5619   14.3280  -19.5724 N   0  0  0  0  0  0  0  0  0  0  0  0
  -20.9013   14.3966  -20.0866 C   0  0  0  0  0  0  0  0  0  0  0  0
  -21.3823   15.8347  -19.9778 C   0  0  0  0  0  0  0  0  0  0  0  0
  -20.1627   17.7434  -22.5468 C   0  0  0  0  0  0  0  0  0  0  0  0
  -20.4515   18.7350  -23.4603 C   0  0  0  0  0  0  0  0  0  0  0  0
  -21.2278   19.8185  -23.0489 C   0  0  0  0  0  0  0  0  0  0  0  0
  -21.6737   19.8492  -21.7417 C   0  0  0  0  0  0  0  0  0  0  0  0
  -21.3692   18.8473  -20.8582 C   0  0  0  0  0  0  0  0  0  0  0  0
  -20.5961   17.7615  -21.2546 C   0  0  0  0  0  0  0  0  0  0  0  0
  -18.0235   16.6978  -23.2209 C   0  0  0  0  0  0  0  0  0  0  0  0
  -19.3941   16.6747  -22.9623 O   0  0  0  0  0  0  0  0  0  0  0  0
  -16.2214   12.8174  -23.4114 C   0  0  0  0  0  0  0  0  0  0  0  0
  -17.2542   12.9183  -24.3194 C   0  0  0  0  0  0  0  0  0  0  0  0
  -17.1957   13.7704  -25.4125 C   0  0  0  0  0  0  0  0  0  0  0  0
  -16.0812   14.5537  -25.6228 C   0  0  0  0  0  0  0  0  0  0  0  0
  -15.0465   14.4570  -24.7188 C   0  0  0  0  0  0  0  0  0  0  0  0
  -15.1112   13.6046  -23.6299 C   0  0  0  0  0  0  0  0  0  0  0  0
 24 25  1  0  0  0
 25 18  1  0  0  0
 18 19  2  0  0  0
 19 20  1  0  0  0
 20 21  2  0  0  0
 21 22  1  0  0  0
 22 23  2  0  0  0
 23 12  1  0  0  0
 12 13  1  0  0  0
 13 14  1  0  0  0
 14 15  1  0  0  0
 15 16  1  0  0  0
 16 17  1  0  0  0
 15  1  1  0  0  0
  1  2  2  0  0  0
  2  3  1  0  0  0
  3  4  1  0  0  0
  4  5  1  0  0  0
  5  6  2  0  0  0
  6  7  1  0  0  0
  7  8  1  0  0  0
  8  9  2  0  0  0
  8 10  1  0  0  0
  4 26  1  0  0  0
 26 27  2  0  0  0
 27 28  1  0  0  0
 28 29  2  0  0  0
 29 30  1  0  0  0
 30 31  2  0  0  0
 23 18  1  0  0  0
 17 12  1  0  0  0
 10  1  1  0  0  0
 31 26  1  0  0  0
  7  3  2  0  0  0
 10 11  1  0  0  0
M  END
> <minimizedAffinity>
-8.52383

> <CNNscore>
0.4467886984

> <CNNaffinity>
6.8434143066

> <CNN_VS>
3.0575602055

> <CNNaffinity_variance>
0.2304643691

$$$$
[H]c1c([H])c([H])c(-n2nc([H])c3c(=O)n([H])c(N4C([H])([H])C([H])([H])N(c5c([H])c([H])c([H])c([H])c5OC([H])([H])[H])C([H])([H])C4([H])[H])nc32)c([H])c1[H]


 31 35  0  0  0  0  0  0  0  0999 V2000
  -18.1144   12.7073  -19.7266 C   0  0  0  0  0  0  0  0  0  0  0  0
  -17.6878   13.3315  -20.8407 N   0  0  0  0  0  0  0  0  0  0  0  0
  -16.8161   12.7683  -21.7089 C   0  0  0  0  0  0  0  0  0  0  0  0
  -16.2765   13.2352  -22.8691 N   0  0  0  0  0  0  0  0  0  0  0  0
  -15.4775   12.2998  -23.3433 N   0  0  0  0  0  0  0  0  0  0  0  0
  -15.4767   11.2252  -22.5225 C   0  0  0  0  0  0  0  0  0  0  0  0
  -16.3276   11.5017  -21.4669 C   0  0  0  0  0  0  0  0  0  0  0  0
  -16.7591   10.8638  -20.3348 C   0  0  0  0  0  0  0  0  0  0  0  0
  -16.3176    9.7053  -20.1057 O   0  0  0  0  0  0  0  0  0  0  0  0
  -17.6286   11.4682  -19.5013 N   0  0  0  0  0  0  0  0  0  0  0  0
  -17.9374   10.9396  -18.6369 H   0  0  0  0  0  0  0  0  0  0  0  0
  -19.6343   15.5149  -17.4743 N   0  0  0  0  0  0  0  0  0  0  0  0
  -18.4822   14.7712  -17.0398 C   0  0  0  0  0  0  0  0  0  0  0  0
  -18.6824   13.3201  -17.4113 C   0  0  0  0  0  0  0  0  0  0  0  0
  -19.0350   13.3183  -18.8335 N   0  0  0  0  0  0  0  0  0  0  0  0
  -20.2773   13.9252  -19.2222 C   0  0  0  0  0  0  0  0  0  0  0  0
  -20.7479   14.8207  -18.0874 C   0  0  0  0  0  0  0  0  0  0  0  0
  -20.2218   17.5629  -16.2380 C   0  0  0  0  0  0  0  0  0  0  0  0
  -20.3184   18.9350  -16.1422 C   0  0  0  0  0  0  0  0  0  0  0  0
  -19.9085   19.7119  -17.2259 C   0  0  0  0  0  0  0  0  0  0  0  0
  -19.4229   19.0701  -18.3487 C   0  0  0  0  0  0  0  0  0  0  0  0
  -19.3396   17.7039  -18.4122 C   0  0  0  0  0  0  0  0  0  0  0  0
  -19.7449   16.9173  -17.3396 C   0  0  0  0  0  0  0  0  0  0  0  0
  -21.9472   16.5839  -14.7585 C   0  0  0  0  0  0  0  0  0  0  0  0
  -20.6294   16.8016  -15.1609 O   0  0  0  0  0  0  0  0  0  0  0  0
  -16.5911   14.5305  -23.3872 C   0  0  0  0  0  0  0  0  0  0  0  0
  -15.6937   15.5776  -23.3843 C   0  0  0  0  0  0  0  0  0  0  0  0
  -16.0171   16.8284  -23.8893 C   0  0  0  0  0  0  0  0  0  0  0  0
  -17.2688   17.0611  -24.4176 C   0  0  0  0  0  0  0  0  0  0  0  0
  -18.1691   16.0186  -24.4231 C   0  0  0  0  0  0  0  0  0  0  0  0
  -17.8401   14.7727  -23.9175 C   0  0  0  0  0  0  0  0  0  0  0  0
 24 25  1  0  0  0
 25 18  1  0  0  0
 18 19  2  0  0  0
 19 20  1  0  0  0
 20 21  2  0  0  0
 21 22  1  0  0  0
 22 23  2  0  0  0
 23 12  1  0  0  0
 12 13  1  0  0  0
 13 14  1  0  0  0
 14 15  1  0  0  0
 15 16  1  0  0  0
 16 17  1  0  0  0
 15  1  1  0  0  0
  1  2  2  0  0  0
  2  3  1  0  0  0
  3  4  1  0  0  0
  4  5  1  0  0  0
  5  6  2  0  0  0
  6  7  1  0  0  0
  7  8  1  0  0  0
  8  9  2  0  0  0
  8 10  1  0  0  0
  4 26  1  0  0  0
 26 27  2  0  0  0
 27 28  1  0  0  0
 28 29  2  0  0  0
 29 30  1  0  0  0
 30 31  2  0  0  0
 23 18  1  0  0  0
 17 12  1  0  0  0
 10  1  1  0  0  0
 31 26  1  0  0  0
  7  3  2  0  0  0
 10 11  1  0  0  0
M  END
> <minimizedAffinity>
-8.07955

> <CNNscore>
0.4394863844

> <CNNaffinity>
6.7407503128

> <CNN_VS>
2.9624679089

> <CNNaffinity_variance>
0.1699551493

$$$$
[H]c1c([H])c([H])c(-n2nc([H])c3c(=O)n([H])c(N4C([H])([H])C([H])([H])N(c5c([H])c([H])c([H])c([H])c5OC([H])([H])[H])C([H])([H])C4([H])[H])nc32)c([H])c1[H]


 31 35  0  0  0  0  0  0  0  0999 V2000
  -18.2259   13.4706  -19.7542 C   0  0  0  0  0  0  0  0  0  0  0  0
  -17.5862   13.3503  -20.9327 N   0  0  0  0  0  0  0  0  0  0  0  0
  -16.8386   12.2694  -21.2546 C   0  0  0  0  0  0  0  0  0  0  0  0
  -16.1277   11.9716  -22.3776 N   0  0  0  0  0  0  0  0  0  0  0  0
  -15.5702   10.7908  -22.1965 N   0  0  0  0  0  0  0  0  0  0  0  0
  -15.8965   10.3013  -20.9789 C   0  0  0  0  0  0  0  0  0  0  0  0
  -16.7093   11.2317  -20.3557 C   0  0  0  0  0  0  0  0  0  0  0  0
  -17.3585   11.3505  -19.1560 C   0  0  0  0  0  0  0  0  0  0  0  0
  -17.2457   10.4063  -18.3281 O   0  0  0  0  0  0  0  0  0  0  0  0
  -18.0911   12.4481  -18.8832 N   0  0  0  0  0  0  0  0  0  0  0  0
  -18.5776   12.4999  -17.9437 H   0  0  0  0  0  0  0  0  0  0  0  0
  -21.1755   15.5087  -18.2012 N   0  0  0  0  0  0  0  0  0  0  0  0
  -21.3808   14.7021  -19.3743 C   0  0  0  0  0  0  0  0  0  0  0  0
  -20.1838   14.8659  -20.2822 C   0  0  0  0  0  0  0  0  0  0  0  0
  -19.0098   14.6138  -19.4424 N   0  0  0  0  0  0  0  0  0  0  0  0
  -18.7331   15.5334  -18.3744 C   0  0  0  0  0  0  0  0  0  0  0  0
  -19.9927   16.3385  -18.0981 C   0  0  0  0  0  0  0  0  0  0  0  0
  -22.0280   14.7097  -16.0326 C   0  0  0  0  0  0  0  0  0  0  0  0
  -22.9292   14.7637  -14.9905 C   0  0  0  0  0  0  0  0  0  0  0  0
  -23.9510   15.7122  -15.0378 C   0  0  0  0  0  0  0  0  0  0  0  0
  -24.0139   16.5569  -16.1291 C   0  0  0  0  0  0  0  0  0  0  0  0
  -23.1022   16.4776  -17.1488 C   0  0  0  0  0  0  0  0  0  0  0  0
  -22.0788   15.5368  -17.1148 C   0  0  0  0  0  0  0  0  0  0  0  0
  -21.1870   12.3835  -15.9563 C   0  0  0  0  0  0  0  0  0  0  0  0
  -21.0199   13.7683  -15.9776 O   0  0  0  0  0  0  0  0  0  0  0  0
  -16.0653   12.8604  -23.4963 C   0  0  0  0  0  0  0  0  0  0  0  0
  -17.0847   12.9797  -24.4171 C   0  0  0  0  0  0  0  0  0  0  0  0
  -17.0059   13.8459  -25.4978 C   0  0  0  0  0  0  0  0  0  0  0  0
  -15.8838   14.6251  -25.6821 C   0  0  0  0  0  0  0  0  0  0  0  0
  -14.8625   14.5099  -24.7652 C   0  0  0  0  0  0  0  0  0  0  0  0
  -14.9474   13.6435  -23.6889 C   0  0  0  0  0  0  0  0  0  0  0  0
 24 25  1  0  0  0
 25 18  1  0  0  0
 18 19  2  0  0  0
 19 20  1  0  0  0
 20 21  2  0  0  0
 21 22  1  0  0  0
 22 23  2  0  0  0
 23 12  1  0  0  0
 12 13  1  0  0  0
 13 14  1  0  0  0
 14 15  1  0  0  0
 15 16  1  0  0  0
 16 17  1  0  0  0
 15  1  1  0  0  0
  1  2  2  0  0  0
  2  3  1  0  0  0
  3  4  1  0  0  0
  4  5  1  0  0  0
  5  6  2  0  0  0
  6  7  1  0  0  0
  7  8  1  0  0  0
  8  9  2  0  0  0
  8 10  1  0  0  0
  4 26  1  0  0  0
 26 27  2  0  0  0
 27 28  1  0  0  0
 28 29  2  0  0  0
 29 30  1  0  0  0
 30 31  2  0  0  0
 23 18  1  0  0  0
 17 12  1  0  0  0
 10  1  1  0  0  0
 31 26  1  0  0  0
  7  3  2  0  0  0
 10 11  1  0  0  0
M  END
> <minimizedAffinity>
-7.90174

> <CNNscore>
0.4357052147

> <CNNaffinity>
6.7399454117

> <CNN_VS>
2.9366292953

> <CNNaffinity_variance>
0.2818172276

$$$$
[H]c1c([H])c([H])c(-n2nc([H])c3c(=O)n([H])c(N4C([H])([H])C([H])([H])N(c5c([H])c([H])c([H])c([H])c5OC([H])([H])[H])C([H])([H])C4([H])[H])nc32)c([H])c1[H]


 31 35  0  0  0  0  0  0  0  0999 V2000
  -18.9670   12.9442  -19.5021 C   0  0  0  0  0  0  0  0  0  0  0  0
  -18.2803   13.0485  -20.6554 N   0  0  0  0  0  0  0  0  0  0  0  0
  -17.3289   12.1604  -21.0255 C   0  0  0  0  0  0  0  0  0  0  0  0
  -16.5398   12.0998  -22.1341 N   0  0  0  0  0  0  0  0  0  0  0  0
  -15.7709   11.0351  -22.0198 N   0  0  0  0  0  0  0  0  0  0  0  0
  -16.0338   10.3904  -20.8605 C   0  0  0  0  0  0  0  0  0  0  0  0
  -17.0294   11.0932  -20.2051 C   0  0  0  0  0  0  0  0  0  0  0  0
  -17.7257   10.9839  -19.0312 C   0  0  0  0  0  0  0  0  0  0  0  0
  -17.4584   10.0111  -18.2751 O   0  0  0  0  0  0  0  0  0  0  0  0
  -18.6642   11.8953  -18.7081 N   0  0  0  0  0  0  0  0  0  0  0  0
  -19.1801   11.7735  -17.7909 H   0  0  0  0  0  0  0  0  0  0  0  0
  -20.4374   16.3277  -18.2154 N   0  0  0  0  0  0  0  0  0  0  0  0
  -19.8704   15.3787  -17.2951 C   0  0  0  0  0  0  0  0  0  0  0  0
  -20.2976   13.9915  -17.7155 C   0  0  0  0  0  0  0  0  0  0  0  0
  -19.9658   13.8871  -19.1389 N   0  0  0  0  0  0  0  0  0  0  0  0
  -20.6695   14.7347  -20.0605 C   0  0  0  0  0  0  0  0  0  0  0  0
  -21.3113   15.8668  -19.2747 C   0  0  0  0  0  0  0  0  0  0  0  0
  -19.2859   18.3858  -18.9266 C   0  0  0  0  0  0  0  0  0  0  0  0
  -19.0609   19.7429  -18.8323 C   0  0  0  0  0  0  0  0  0  0  0  0
  -19.7851   20.4777  -17.8934 C   0  0  0  0  0  0  0  0  0  0  0  0
  -20.6976   19.8111  -17.0986 C   0  0  0  0  0  0  0  0  0  0  0  0
  -20.8979   18.4609  -17.2174 C   0  0  0  0  0  0  0  0  0  0  0  0
  -20.1827   17.7161  -18.1488 C   0  0  0  0  0  0  0  0  0  0  0  0
  -17.2924   17.1252  -19.6757 C   0  0  0  0  0  0  0  0  0  0  0  0
  -18.5651   17.6664  -19.8585 O   0  0  0  0  0  0  0  0  0  0  0  0
  -16.6157   13.0764  -23.1760 C   0  0  0  0  0  0  0  0  0  0  0  0
  -15.9330   14.2738  -23.1328 C   0  0  0  0  0  0  0  0  0  0  0  0
  -16.0202   15.2106  -24.1522 C   0  0  0  0  0  0  0  0  0  0  0  0
  -16.8074   14.9633  -25.2564 C   0  0  0  0  0  0  0  0  0  0  0  0
  -17.4915   13.7689  -25.3047 C   0  0  0  0  0  0  0  0  0  0  0  0
  -17.4002   12.8381  -24.2841 C   0  0  0  0  0  0  0  0  0  0  0  0
 24 25  1  0  0  0
 25 18  1  0  0  0
 18 19  2  0  0  0
 19 20  1  0  0  0
 20 21  2  0  0  0
 21 22  1  0  0  0
 22 23  2  0  0  0
 23 12  1  0  0  0
 12 13  1  0  0  0
 13 14  1  0  0  0
 14 15  1  0  0  0
 15 16  1  0  0  0
 16 17  1  0  0  0
 15  1  1  0  0  0
  1  2  2  0  0  0
  2  3  1  0  0  0
  3  4  1  0  0  0
  4  5  1  0  0  0
  5  6  2  0  0  0
  6  7  1  0  0  0
  7  8  1  0  0  0
  8  9  2  0  0  0
  8 10  1  0  0  0
  4 26  1  0  0  0
 26 27  2  0  0  0
 27 28  1  0  0  0
 28 29  2  0  0  0
 29 30  1  0  0  0
 30 31  2  0  0  0
 23 18  1  0  0  0
 17 12  1  0  0  0
 10  1  1  0  0  0
 31 26  1  0  0  0
  7  3  2  0  0  0
 10 11  1  0  0  0
M  END
> <minimizedAffinity>
-7.95954

> <CNNscore>
0.3923368454

> <CNNaffinity>
6.7661452293

> <CNN_VS>
2.6546080112

> <CNNaffinity_variance>
0.1764859706

$$$$
[H]c1c([H])c([H])c(-n2nc([H])c3c(=O)n([H])c(N4C([H])([H])C([H])([H])N(c5c([H])c([H])c([H])c([H])c5OC([H])([H])[H])C([H])([H])C4([H])[H])nc32)c([H])c1[H]


 31 35  0  0  0  0  0  0  0  0999 V2000
  -18.0975   13.4910  -19.9535 C   0  0  0  0  0  0  0  0  0  0  0  0
  -17.4739   13.4596  -21.1463 N   0  0  0  0  0  0  0  0  0  0  0  0
  -16.7052   12.4199  -21.5450 C   0  0  0  0  0  0  0  0  0  0  0  0
  -16.0052   12.2097  -22.6944 N   0  0  0  0  0  0  0  0  0  0  0  0
  -15.4159   11.0346  -22.5944 N   0  0  0  0  0  0  0  0  0  0  0  0
  -15.7105   10.4632  -21.4047 C   0  0  0  0  0  0  0  0  0  0  0  0
  -16.5360   11.3327  -20.7137 C   0  0  0  0  0  0  0  0  0  0  0  0
  -17.1686   11.3612  -19.4997 C   0  0  0  0  0  0  0  0  0  0  0  0
  -17.0194   10.3712  -18.7333 O   0  0  0  0  0  0  0  0  0  0  0  0
  -17.9235   12.4209  -19.1493 N   0  0  0  0  0  0  0  0  0  0  0  0
  -18.3961   12.4026  -18.2014 H   0  0  0  0  0  0  0  0  0  0  0  0
  -21.0502   15.3583  -18.2042 N   0  0  0  0  0  0  0  0  0  0  0  0
  -21.2727   14.6012  -19.4068 C   0  0  0  0  0  0  0  0  0  0  0  0
  -20.1147   14.8457  -20.3465 C   0  0  0  0  0  0  0  0  0  0  0  0
  -18.9042   14.5926  -19.5607 N   0  0  0  0  0  0  0  0  0  0  0  0
  -18.6175   15.4698  -18.4601 C   0  0  0  0  0  0  0  0  0  0  0  0
  -19.8904   16.2201  -18.1023 C   0  0  0  0  0  0  0  0  0  0  0  0
  -23.0054   16.1026  -16.9038 C   0  0  0  0  0  0  0  0  0  0  0  0
  -23.8260   16.0263  -15.7983 C   0  0  0  0  0  0  0  0  0  0  0  0
  -23.5311   15.0873  -14.8096 C   0  0  0  0  0  0  0  0  0  0  0  0
  -22.4279   14.2741  -14.9832 C   0  0  0  0  0  0  0  0  0  0  0  0
  -21.6323   14.3751  -16.0941 C   0  0  0  0  0  0  0  0  0  0  0  0
  -21.9143   15.3066  -17.0872 C   0  0  0  0  0  0  0  0  0  0  0  0
  -23.0670   18.4070  -17.8039 C   0  0  0  0  0  0  0  0  0  0  0  0
  -23.3046   17.0343  -17.8774 O   0  0  0  0  0  0  0  0  0  0  0  0
  -15.9826   13.1665  -23.7569 C   0  0  0  0  0  0  0  0  0  0  0  0
  -17.0177   13.3135  -24.6561 C   0  0  0  0  0  0  0  0  0  0  0  0
  -16.9775   14.2460  -25.6822 C   0  0  0  0  0  0  0  0  0  0  0  0
  -15.8797   15.0659  -25.8322 C   0  0  0  0  0  0  0  0  0  0  0  0
  -14.8428   14.9234  -24.9368 C   0  0  0  0  0  0  0  0  0  0  0  0
  -14.8891   13.9909  -23.9149 C   0  0  0  0  0  0  0  0  0  0  0  0
 24 25  1  0  0  0
 25 18  1  0  0  0
 18 19  2  0  0  0
 19 20  1  0  0  0
 20 21  2  0  0  0
 21 22  1  0  0  0
 22 23  2  0  0  0
 23 12  1  0  0  0
 12 13  1  0  0  0
 13 14  1  0  0  0
 14 15  1  0  0  0
 15 16  1  0  0  0
 16 17  1  0  0  0
 15  1  1  0  0  0
  1  2  2  0  0  0
  2  3  1  0  0  0
  3  4  1  0  0  0
  4  5  1  0  0  0
  5  6  2  0  0  0
  6  7  1  0  0  0
  7  8  1  0  0  0
  8  9  2  0  0  0
  8 10  1  0  0  0
  4 26  1  0  0  0
 26 27  2  0  0  0
 27 28  1  0  0  0
 28 29  2  0  0  0
 29 30  1  0  0  0
 30 31  2  0  0  0
 23 18  1  0  0  0
 17 12  1  0  0  0
 10  1  1  0  0  0
 31 26  1  0  0  0
  7  3  2  0  0  0
 10 11  1  0  0  0
M  END
> <minimizedAffinity>
-7.79519

> <CNNscore>
0.3767942786

> <CNNaffinity>
6.7475433350

> <CNN_VS>
2.5424356461

> <CNNaffinity_variance>
0.3334304392

$$$$
[H]c1c([H])c([H])c(S(=O)(=O)[C@@]2([H])C([H])([H])N(C(=O)C3(c4c([H])c([H])c(Cl)c([H])c4[H])C([H])([H])C3([H])[H])[C@]([H])(C(=O)N([H])[C@]([H])(C(=O)C(=O)N([H])C3([H])C([H])([H])C3([H])[H])C([H])([H])C([H])([H])C([H])([H])C([H])([H])[H])C2([H])[H])c(Cl)c1[H]


 45 49  0  0  0  0  0  0  0  0999 V2000
  -19.9056   15.8883  -20.4103 C   0  0  0  0  0  0  0  0  0  0  0  0
  -18.8460   16.6555  -19.6753 C   0  0  0  0  0  0  0  0  0  0  0  0
  -18.3260   17.5506  -20.9042 C   0  0  0  0  0  0  0  0  0  0  0  0
  -19.5626   17.6577  -21.7402 C   0  0  0  0  0  0  0  0  0  0  0  0
  -20.6574   16.9988  -20.9311 N   0  0  0  0  0  0  0  0  0  0  0  0
  -21.8940   17.5113  -20.6520 C   0  0  0  0  0  0  0  0  0  0  0  0
  -22.5355   17.0752  -19.5717 O   0  0  0  0  0  0  0  0  0  0  0  0
  -19.8550   14.3279  -18.5342 N   0  0  0  0  0  0  0  0  0  0  0  0
  -20.4572   14.7733  -19.7356 C   0  0  0  0  0  0  0  0  0  0  0  0
  -21.4695   14.1175  -20.1522 O   0  0  0  0  0  0  0  0  0  0  0  0
  -19.0715   14.8375  -18.0641 H   0  0  0  0  0  0  0  0  0  0  0  0
  -20.3669   13.0751  -17.9256 C   0  0  0  0  0  0  0  0  0  0  0  0
  -20.9751   13.4766  -16.6572 C   0  0  0  0  0  0  0  0  0  0  0  0
  -21.1420   12.5921  -15.7388 O   0  0  0  0  0  0  0  0  0  0  0  0
  -21.4236   14.8069  -16.3590 C   0  0  0  0  0  0  0  0  0  0  0  0
  -22.5392   15.2522  -16.8515 O   0  0  0  0  0  0  0  0  0  0  0  0
  -20.7007   15.6933  -15.5315 N   0  0  0  0  0  0  0  0  0  0  0  0
  -19.7427   15.3911  -15.1798 H   0  0  0  0  0  0  0  0  0  0  0  0
  -21.2541   16.9808  -15.2016 C   0  0  0  0  0  0  0  0  0  0  0  0
  -20.3168   17.8528  -14.4144 C   0  0  0  0  0  0  0  0  0  0  0  0
  -20.8599   18.2768  -15.7724 C   0  0  0  0  0  0  0  0  0  0  0  0
  -19.2229   12.1477  -17.9179 C   0  0  0  0  0  0  0  0  0  0  0  0
  -18.4615   11.9658  -19.1620 C   0  0  0  0  0  0  0  0  0  0  0  0
  -16.8206   10.3318  -19.9720 C   0  0  0  0  0  0  0  0  0  0  0  0
  -17.0280   11.6202  -19.1628 C   0  0  0  0  0  0  0  0  0  0  0  0
  -22.6799   18.5200  -21.3707 C   0  0  0  0  0  0  0  0  0  0  0  0
  -22.4293   19.9417  -20.8598 C   0  0  0  0  0  0  0  0  0  0  0  0
  -23.7194   19.2833  -20.5503 C   0  0  0  0  0  0  0  0  0  0  0  0
  -22.8374   18.4165  -22.8449 C   0  0  0  0  0  0  0  0  0  0  0  0
  -22.3623   19.4471  -23.6269 C   0  0  0  0  0  0  0  0  0  0  0  0
  -22.5711   19.4404  -25.0089 C   0  0  0  0  0  0  0  0  0  0  0  0
  -23.2506   18.4132  -25.6190 C   0  0  0  0  0  0  0  0  0  0  0  0
  -23.4814   18.4752  -27.3554 Cl  0  0  0  0  0  0  0  0  0  0  0  0
  -23.7204   17.3965  -24.8618 C   0  0  0  0  0  0  0  0  0  0  0  0
  -23.5010   17.4208  -23.4773 C   0  0  0  0  0  0  0  0  0  0  0  0
  -16.9883   16.6666  -21.5165 S   0  0  0  0  0  0  0  0  0  0  0  0
  -16.3300   15.9555  -20.3163 O   0  0  0  0  0  0  0  0  0  0  0  0
  -15.8949   17.5721  -22.0381 O   0  0  0  0  0  0  0  0  0  0  0  0
  -17.2533   15.4275  -22.6796 C   0  0  0  0  0  0  0  0  0  0  0  0
  -17.2553   14.0966  -22.2944 C   0  0  0  0  0  0  0  0  0  0  0  0
  -17.3869   13.0490  -23.1915 C   0  0  0  0  0  0  0  0  0  0  0  0
  -17.5230   13.3123  -24.5298 C   0  0  0  0  0  0  0  0  0  0  0  0
  -17.5214   14.6526  -24.9134 C   0  0  0  0  0  0  0  0  0  0  0  0
  -17.3934   15.6860  -24.0373 C   0  0  0  0  0  0  0  0  0  0  0  0
  -17.3819   17.3630  -24.5593 Cl  0  0  0  0  0  0  0  0  0  0  0  0
 24 25  1  0  0  0
 25 23  1  0  0  0
 23 22  1  0  0  0
 22 12  1  0  0  0
 12  8  1  0  0  0
  8  9  1  0  0  0
  9 10  2  0  0  0
  9  1  1  0  0  0
  1  2  1  0  0  0
  2  3  1  0  0  0
  3  4  1  0  0  0
  4  5  1  0  0  0
  5  6  1  0  0  0
  6  7  2  0  0  0
  6 26  1  0  0  0
 26 27  1  0  0  0
 27 28  1  0  0  0
 26 29  1  0  0  0
 29 30  2  0  0  0
 30 31  1  0  0  0
 31 32  2  0  0  0
 32 33  1  0  0  0
 32 34  1  0  0  0
 34 35  2  0  0  0
  3 36  1  0  0  0
 36 37  2  0  0  0
 36 38  2  0  0  0
 36 39  1  0  0  0
 39 40  2  0  0  0
 40 41  1  0  0  0
 41 42  2  0  0  0
 42 43  1  0  0  0
 43 44  2  0  0  0
 44 45  1  0  0  0
 12 13  1  0  0  0
 13 14  2  0  0  0
 13 15  1  0  0  0
 15 16  2  0  0  0
 15 17  1  0  0  0
 17 19  1  0  0  0
 19 20  1  0  0  0
 20 21  1  0  0  0
  5  1  1  0  0  0
 28 26  1  0  0  0
 35 29  1  0  0  0
 44 39  1  0  0  0
 21 19  1  0  0  0
  8 11  1  0  0  0
 17 18  1  0  0  0
M  END
> <minimizedAffinity>
-8.28179

> <CNNscore>
0.5703907609

> <CNNaffinity>
7.6180953979

> <CNN_VS>
4.3452911377

> <CNNaffinity_variance>
0.2646183968

$$$$
[H]c1c([H])c([H])c(S(=O)(=O)[C@@]2([H])C([H])([H])N(C(=O)C3(c4c([H])c([H])c(Cl)c([H])c4[H])C([H])([H])C3([H])[H])[C@]([H])(C(=O)N([H])[C@]([H])(C(=O)C(=O)N([H])C3([H])C([H])([H])C3([H])[H])C([H])([H])C([H])([H])C([H])([H])C([H])([H])[H])C2([H])[H])c(Cl)c1[H]


 45 49  0  0  0  0  0  0  0  0999 V2000
  -19.7549   15.7453  -20.1959 C   0  0  0  0  0  0  0  0  0  0  0  0
  -18.6828   16.4669  -19.4334 C   0  0  0  0  0  0  0  0  0  0  0  0
  -18.2538   17.5061  -20.5815 C   0  0  0  0  0  0  0  0  0  0  0  0
  -19.5343   17.6575  -21.3411 C   0  0  0  0  0  0  0  0  0  0  0  0
  -20.5657   16.8774  -20.5569 N   0  0  0  0  0  0  0  0  0  0  0  0
  -21.8013   17.3128  -20.1652 C   0  0  0  0  0  0  0  0  0  0  0  0
  -22.3731   16.7412  -19.1091 O   0  0  0  0  0  0  0  0  0  0  0  0
  -19.5311   13.9687  -18.5372 N   0  0  0  0  0  0  0  0  0  0  0  0
  -20.2371   14.5456  -19.6204 C   0  0  0  0  0  0  0  0  0  0  0  0
  -21.2750   13.9260  -20.0292 O   0  0  0  0  0  0  0  0  0  0  0  0
  -18.7153   14.4322  -18.0745 H   0  0  0  0  0  0  0  0  0  0  0  0
  -19.9781   12.6411  -18.0474 C   0  0  0  0  0  0  0  0  0  0  0  0
  -20.5940   12.8921  -16.7445 C   0  0  0  0  0  0  0  0  0  0  0  0
  -20.8234   14.1060  -16.3874 O   0  0  0  0  0  0  0  0  0  0  0  0
  -20.9550   11.8663  -15.8080 C   0  0  0  0  0  0  0  0  0  0  0  0
  -20.2058   11.6227  -14.7761 O   0  0  0  0  0  0  0  0  0  0  0  0
  -22.1182   11.0779  -15.9436 N   0  0  0  0  0  0  0  0  0  0  0  0
  -22.7097   11.1937  -16.8208 H   0  0  0  0  0  0  0  0  0  0  0  0
  -22.4663   10.1286  -14.9186 C   0  0  0  0  0  0  0  0  0  0  0  0
  -23.5640    9.1851  -15.3225 C   0  0  0  0  0  0  0  0  0  0  0  0
  -22.1808    8.6867  -14.9258 C   0  0  0  0  0  0  0  0  0  0  0  0
  -18.7915   11.7729  -18.1316 C   0  0  0  0  0  0  0  0  0  0  0  0
  -17.7001   12.1656  -19.0345 C   0  0  0  0  0  0  0  0  0  0  0  0
  -16.2400   10.4355  -19.9798 C   0  0  0  0  0  0  0  0  0  0  0  0
  -17.3885   11.4141  -20.2644 C   0  0  0  0  0  0  0  0  0  0  0  0
  -22.6533   18.3637  -20.7320 C   0  0  0  0  0  0  0  0  0  0  0  0
  -22.3831   19.7409  -20.1195 C   0  0  0  0  0  0  0  0  0  0  0  0
  -23.6369   19.0329  -19.7724 C   0  0  0  0  0  0  0  0  0  0  0  0
  -22.9218   18.3842  -22.1937 C   0  0  0  0  0  0  0  0  0  0  0  0
  -23.7471   17.4142  -22.7202 C   0  0  0  0  0  0  0  0  0  0  0  0
  -23.9539   17.3344  -24.1002 C   0  0  0  0  0  0  0  0  0  0  0  0
  -23.3439   18.2150  -24.9612 C   0  0  0  0  0  0  0  0  0  0  0  0
  -23.6435   18.0504  -26.6804 Cl  0  0  0  0  0  0  0  0  0  0  0  0
  -22.5328   19.1713  -24.4558 C   0  0  0  0  0  0  0  0  0  0  0  0
  -22.3378   19.2354  -23.0689 C   0  0  0  0  0  0  0  0  0  0  0  0
  -16.9230   16.7407  -21.3491 S   0  0  0  0  0  0  0  0  0  0  0  0
  -16.2152   15.8855  -20.2781 O   0  0  0  0  0  0  0  0  0  0  0  0
  -15.8613   17.7305  -21.7740 O   0  0  0  0  0  0  0  0  0  0  0  0
  -17.2062   15.6672  -22.6627 C   0  0  0  0  0  0  0  0  0  0  0  0
  -17.1751   14.2964  -22.4639 C   0  0  0  0  0  0  0  0  0  0  0  0
  -17.3193   13.3788  -23.4919 C   0  0  0  0  0  0  0  0  0  0  0  0
  -17.5028   13.8196  -24.7767 C   0  0  0  0  0  0  0  0  0  0  0  0
  -17.5344   15.1996  -24.9727 C   0  0  0  0  0  0  0  0  0  0  0  0
  -17.3942   16.1059  -23.9673 C   0  0  0  0  0  0  0  0  0  0  0  0
  -17.4255   17.8384  -24.2544 Cl  0  0  0  0  0  0  0  0  0  0  0  0
 24 25  1  0  0  0
 25 23  1  0  0  0
 23 22  1  0  0  0
 22 12  1  0  0  0
 12  8  1  0  0  0
  8  9  1  0  0  0
  9 10  2  0  0  0
  9  1  1  0  0  0
  1  2  1  0  0  0
  2  3  1  0  0  0
  3  4  1  0  0  0
  4  5  1  0  0  0
  5  6  1  0  0  0
  6  7  2  0  0  0
  6 26  1  0  0  0
 26 27  1  0  0  0
 27 28  1  0  0  0
 26 29  1  0  0  0
 29 30  2  0  0  0
 30 31  1  0  0  0
 31 32  2  0  0  0
 32 33  1  0  0  0
 32 34  1  0  0  0
 34 35  2  0  0  0
  3 36  1  0  0  0
 36 37  2  0  0  0
 36 38  2  0  0  0
 36 39  1  0  0  0
 39 40  2  0  0  0
 40 41  1  0  0  0
 41 42  2  0  0  0
 42 43  1  0  0  0
 43 44  2  0  0  0
 44 45  1  0  0  0
 12 13  1  0  0  0
 13 14  2  0  0  0
 13 15  1  0  0  0
 15 16  2  0  0  0
 15 17  1  0  0  0
 17 19  1  0  0  0
 19 20  1  0  0  0
 20 21  1  0  0  0
  5  1  1  0  0  0
 28 26  1  0  0  0
 35 29  1  0  0  0
 44 39  1  0  0  0
 21 19  1  0  0  0
  8 11  1  0  0  0
 17 18  1  0  0  0
M  END
> <minimizedAffinity>
-8.22140

> <CNNscore>
0.4301401973

> <CNNaffinity>
7.4951324463

> <CNN_VS>
3.2239577770

> <CNNaffinity_variance>
0.2938793302

$$$$
[H]c1c([H])c([H])c(S(=O)(=O)[C@@]2([H])C([H])([H])N(C(=O)C3(c4c([H])c([H])c(Cl)c([H])c4[H])C([H])([H])C3([H])[H])[C@]([H])(C(=O)N([H])[C@]([H])(C(=O)C(=O)N([H])C3([H])C([H])([H])C3([H])[H])C([H])([H])C([H])([H])C([H])([H])C([H])([H])[H])C2([H])[H])c(Cl)c1[H]


 45 49  0  0  0  0  0  0  0  0999 V2000
  -17.5872   14.2405  -21.4960 C   0  0  0  0  0  0  0  0  0  0  0  0
  -17.9345   13.7770  -22.8802 C   0  0  0  0  0  0  0  0  0  0  0  0
  -16.6343   12.8706  -23.1445 C   0  0  0  0  0  0  0  0  0  0  0  0
  -16.2853   12.4365  -21.7555 C   0  0  0  0  0  0  0  0  0  0  0  0
  -17.4006   12.9559  -20.8760 N   0  0  0  0  0  0  0  0  0  0  0  0
  -18.1107   12.2479  -19.9464 C   0  0  0  0  0  0  0  0  0  0  0  0
  -19.3304   12.6670  -19.6216 O   0  0  0  0  0  0  0  0  0  0  0  0
  -18.6036   15.3512  -19.5748 N   0  0  0  0  0  0  0  0  0  0  0  0
  -18.3713   15.2949  -20.9704 C   0  0  0  0  0  0  0  0  0  0  0  0
  -18.9087   16.2070  -21.6828 O   0  0  0  0  0  0  0  0  0  0  0  0
  -18.1486   14.7016  -18.8927 H   0  0  0  0  0  0  0  0  0  0  0  0
  -19.5427   16.3833  -19.0699 C   0  0  0  0  0  0  0  0  0  0  0  0
  -19.0281   16.7712  -17.7566 C   0  0  0  0  0  0  0  0  0  0  0  0
  -18.0295   16.1279  -17.2641 O   0  0  0  0  0  0  0  0  0  0  0  0
  -19.5741   17.8268  -16.9521 C   0  0  0  0  0  0  0  0  0  0  0  0
  -19.7210   19.0201  -17.4418 O   0  0  0  0  0  0  0  0  0  0  0  0
  -19.9777   17.6405  -15.6121 N   0  0  0  0  0  0  0  0  0  0  0  0
  -19.7937   16.6978  -15.1536 H   0  0  0  0  0  0  0  0  0  0  0  0
  -20.6011   18.7207  -14.8928 C   0  0  0  0  0  0  0  0  0  0  0  0
  -20.8281   18.4203  -13.4379 C   0  0  0  0  0  0  0  0  0  0  0  0
  -19.9652   19.5898  -13.8923 C   0  0  0  0  0  0  0  0  0  0  0  0
  -20.8815   15.7784  -19.1727 C   0  0  0  0  0  0  0  0  0  0  0  0
  -21.3016   14.8285  -18.1326 C   0  0  0  0  0  0  0  0  0  0  0  0
  -21.7779   14.5717  -15.7397 C   0  0  0  0  0  0  0  0  0  0  0  0
  -22.2424   15.2022  -17.0604 C   0  0  0  0  0  0  0  0  0  0  0  0
  -17.7470   11.0343  -19.2070 C   0  0  0  0  0  0  0  0  0  0  0  0
  -16.2433   10.9335  -18.9355 C   0  0  0  0  0  0  0  0  0  0  0  0
  -16.8546   10.0332  -19.9402 C   0  0  0  0  0  0  0  0  0  0  0  0
  -18.6055   10.5713  -18.0856 C   0  0  0  0  0  0  0  0  0  0  0  0
  -19.3920   11.4996  -17.4383 C   0  0  0  0  0  0  0  0  0  0  0  0
  -20.1437   11.1320  -16.3187 C   0  0  0  0  0  0  0  0  0  0  0  0
  -20.1178    9.8446  -15.8381 C   0  0  0  0  0  0  0  0  0  0  0  0
  -21.0800    9.4574  -14.4252 Cl  0  0  0  0  0  0  0  0  0  0  0  0
  -19.3503    8.9253  -16.4657 C   0  0  0  0  0  0  0  0  0  0  0  0
  -18.6036    9.3130  -17.5871 C   0  0  0  0  0  0  0  0  0  0  0  0
  -15.5636   13.9241  -23.9749 S   0  0  0  0  0  0  0  0  0  0  0  0
  -14.1740   13.2548  -23.9649 O   0  0  0  0  0  0  0  0  0  0  0  0
  -15.3410   15.2194  -23.2266 O   0  0  0  0  0  0  0  0  0  0  0  0
  -15.8632   14.3074  -25.6248 C   0  0  0  0  0  0  0  0  0  0  0  0
  -15.2398   15.3956  -26.2135 C   0  0  0  0  0  0  0  0  0  0  0  0
  -15.4950   15.8027  -27.5130 C   0  0  0  0  0  0  0  0  0  0  0  0
  -16.4029   15.1149  -28.2756 C   0  0  0  0  0  0  0  0  0  0  0  0
  -17.0275   14.0199  -27.6800 C   0  0  0  0  0  0  0  0  0  0  0  0
  -16.7805   13.6146  -26.4046 C   0  0  0  0  0  0  0  0  0  0  0  0
  -17.5976   12.2375  -25.6828 Cl  0  0  0  0  0  0  0  0  0  0  0  0
 24 25  1  0  0  0
 25 23  1  0  0  0
 23 22  1  0  0  0
 22 12  1  0  0  0
 12  8  1  0  0  0
  8  9  1  0  0  0
  9 10  2  0  0  0
  9  1  1  0  0  0
  1  2  1  0  0  0
  2  3  1  0  0  0
  3  4  1  0  0  0
  4  5  1  0  0  0
  5  6  1  0  0  0
  6  7  2  0  0  0
  6 26  1  0  0  0
 26 27  1  0  0  0
 27 28  1  0  0  0
 26 29  1  0  0  0
 29 30  2  0  0  0
 30 31  1  0  0  0
 31 32  2  0  0  0
 32 33  1  0  0  0
 32 34  1  0  0  0
 34 35  2  0  0  0
  3 36  1  0  0  0
 36 37  2  0  0  0
 36 38  2  0  0  0
 36 39  1  0  0  0
 39 40  2  0  0  0
 40 41  1  0  0  0
 41 42  2  0  0  0
 42 43  1  0  0  0
 43 44  2  0  0  0
 44 45  1  0  0  0
 12 13  1  0  0  0
 13 14  2  0  0  0
 13 15  1  0  0  0
 15 16  2  0  0  0
 15 17  1  0  0  0
 17 19  1  0  0  0
 19 20  1  0  0  0
 20 21  1  0  0  0
  5  1  1  0  0  0
 28 26  1  0  0  0
 35 29  1  0  0  0
 44 39  1  0  0  0
 21 19  1  0  0  0
  8 11  1  0  0  0
 17 18  1  0  0  0
M  END
> <minimizedAffinity>
-9.31172

> <CNNscore>
0.2606913745

> <CNNaffinity>
7.6768889427

> <CNN_VS>
2.0012986660

> <CNNaffinity_variance>
0.1106234342

$$$$
[H]c1c([H])c([H])c(S(=O)(=O)[C@@]2([H])C([H])([H])N(C(=O)C3(c4c([H])c([H])c(Cl)c([H])c4[H])C([H])([H])C3([H])[H])[C@]([H])(C(=O)N([H])[C@]([H])(C(=O)C(=O)N([H])C3([H])C([H])([H])C3([H])[H])C([H])([H])C([H])([H])C([H])([H])C([H])([H])[H])C2([H])[H])c(Cl)c1[H]


 45 49  0  0  0  0  0  0  0  0999 V2000
  -18.3227   15.0250  -21.3840 C   0  0  0  0  0  0  0  0  0  0  0  0
  -16.8662   15.1121  -21.0339 C   0  0  0  0  0  0  0  0  0  0  0  0
  -16.3443   15.7564  -22.4103 C   0  0  0  0  0  0  0  0  0  0  0  0
  -17.5483   16.5255  -22.8557 C   0  0  0  0  0  0  0  0  0  0  0  0
  -18.5476   16.4039  -21.7269 N   0  0  0  0  0  0  0  0  0  0  0  0
  -19.2405   17.4207  -21.1306 C   0  0  0  0  0  0  0  0  0  0  0  0
  -19.6802   17.2487  -19.8872 O   0  0  0  0  0  0  0  0  0  0  0  0
  -18.5279   13.5676  -19.4368 N   0  0  0  0  0  0  0  0  0  0  0  0
  -19.1337   14.2567  -20.5151 C   0  0  0  0  0  0  0  0  0  0  0  0
  -20.3959   14.1253  -20.6487 O   0  0  0  0  0  0  0  0  0  0  0  0
  -17.5163   13.6683  -19.1899 H   0  0  0  0  0  0  0  0  0  0  0  0
  -19.3794   12.6595  -18.6291 C   0  0  0  0  0  0  0  0  0  0  0  0
  -19.9140   13.4851  -17.5463 C   0  0  0  0  0  0  0  0  0  0  0  0
  -21.0316   13.1532  -17.0035 O   0  0  0  0  0  0  0  0  0  0  0  0
  -19.2810   14.6708  -17.0433 C   0  0  0  0  0  0  0  0  0  0  0  0
  -18.0271   14.6565  -16.7072 O   0  0  0  0  0  0  0  0  0  0  0  0
  -19.9622   15.8975  -16.8872 N   0  0  0  0  0  0  0  0  0  0  0  0
  -21.0098   15.9229  -17.0736 H   0  0  0  0  0  0  0  0  0  0  0  0
  -19.2425   17.0700  -16.4629 C   0  0  0  0  0  0  0  0  0  0  0  0
  -20.0183   18.3454  -16.6361 C   0  0  0  0  0  0  0  0  0  0  0  0
  -19.5204   17.8860  -15.2722 C   0  0  0  0  0  0  0  0  0  0  0  0
  -18.5235   11.5059  -18.3045 C   0  0  0  0  0  0  0  0  0  0  0  0
  -17.2767   11.3248  -19.0618 C   0  0  0  0  0  0  0  0  0  0  0  0
  -15.7592   10.2201  -20.6414 C   0  0  0  0  0  0  0  0  0  0  0  0
  -17.2232   10.5466  -20.3132 C   0  0  0  0  0  0  0  0  0  0  0  0
  -19.5988   18.7462  -21.6467 C   0  0  0  0  0  0  0  0  0  0  0  0
  -18.3747   19.6017  -21.9853 C   0  0  0  0  0  0  0  0  0  0  0  0
  -19.1834   19.9436  -20.7924 C   0  0  0  0  0  0  0  0  0  0  0  0
  -20.7265   18.8819  -22.6053 C   0  0  0  0  0  0  0  0  0  0  0  0
  -21.5292   19.9985  -22.5161 C   0  0  0  0  0  0  0  0  0  0  0  0
  -22.6572   20.1256  -23.3317 C   0  0  0  0  0  0  0  0  0  0  0  0
  -22.9922   19.1472  -24.2370 C   0  0  0  0  0  0  0  0  0  0  0  0
  -24.4250   19.3708  -25.2215 Cl  0  0  0  0  0  0  0  0  0  0  0  0
  -22.2114   18.0477  -24.3337 C   0  0  0  0  0  0  0  0  0  0  0  0
  -21.0842   17.9384  -23.5073 C   0  0  0  0  0  0  0  0  0  0  0  0
  -15.8428   14.3987  -23.3329 S   0  0  0  0  0  0  0  0  0  0  0  0
  -16.4343   13.1473  -22.6522 O   0  0  0  0  0  0  0  0  0  0  0  0
  -14.3491   14.1746  -23.2550 O   0  0  0  0  0  0  0  0  0  0  0  0
  -16.3142   14.2752  -24.9824 C   0  0  0  0  0  0  0  0  0  0  0  0
  -17.0581   13.1902  -25.4170 C   0  0  0  0  0  0  0  0  0  0  0  0
  -17.4048   12.9925  -26.7437 C   0  0  0  0  0  0  0  0  0  0  0  0
  -17.0063   13.8973  -27.6932 C   0  0  0  0  0  0  0  0  0  0  0  0
  -16.2587   14.9882  -27.2519 C   0  0  0  0  0  0  0  0  0  0  0  0
  -15.9158   15.1884  -25.9503 C   0  0  0  0  0  0  0  0  0  0  0  0
  -14.9603   16.5685  -25.4332 Cl  0  0  0  0  0  0  0  0  0  0  0  0
 24 25  1  0  0  0
 25 23  1  0  0  0
 23 22  1  0  0  0
 22 12  1  0  0  0
 12  8  1  0  0  0
  8  9  1  0  0  0
  9 10  2  0  0  0
  9  1  1  0  0  0
  1  2  1  0  0  0
  2  3  1  0  0  0
  3  4  1  0  0  0
  4  5  1  0  0  0
  5  6  1  0  0  0
  6  7  2  0  0  0
  6 26  1  0  0  0
 26 27  1  0  0  0
 27 28  1  0  0  0
 26 29  1  0  0  0
 29 30  2  0  0  0
 30 31  1  0  0  0
 31 32  2  0  0  0
 32 33  1  0  0  0
 32 34  1  0  0  0
 34 35  2  0  0  0
  3 36  1  0  0  0
 36 37  2  0  0  0
 36 38  2  0  0  0
 36 39  1  0  0  0
 39 40  2  0  0  0
 40 41  1  0  0  0
 41 42  2  0  0  0
 42 43  1  0  0  0
 43 44  2  0  0  0
 44 45  1  0  0  0
 12 13  1  0  0  0
 13 14  2  0  0  0
 13 15  1  0  0  0
 15 16  2  0  0  0
 15 17  1  0  0  0
 17 19  1  0  0  0
 19 20  1  0  0  0
 20 21  1  0  0  0
  5  1  1  0  0  0
 28 26  1  0  0  0
 35 29  1  0  0  0
 44 39  1  0  0  0
 21 19  1  0  0  0
  8 11  1  0  0  0
 17 18  1  0  0  0
M  END
> <minimizedAffinity>
-9.00080

> <CNNscore>
0.2213703692

> <CNNaffinity>
7.6145505905

> <CNN_VS>
1.6856359243

> <CNNaffinity_variance>
0.3825337887

$$$$
[H]c1c([H])c([H])c(S(=O)(=O)[C@@]2([H])C([H])([H])N(C(=O)C3(c4c([H])c([H])c(Cl)c([H])c4[H])C([H])([H])C3([H])[H])[C@]([H])(C(=O)N([H])[C@]([H])(C(=O)C(=O)N([H])C3([H])C([H])([H])C3([H])[H])C([H])([H])C([H])([H])C([H])([H])C([H])([H])[H])C2([H])[H])c(Cl)c1[H]


 45 49  0  0  0  0  0  0  0  0999 V2000
  -20.2607   15.9350  -19.4599 C   0  0  0  0  0  0  0  0  0  0  0  0
  -21.3898   16.5357  -20.2446 C   0  0  0  0  0  0  0  0  0  0  0  0
  -21.0489   18.0829  -19.9769 C   0  0  0  0  0  0  0  0  0  0  0  0
  -19.5634   18.0358  -19.8025 C   0  0  0  0  0  0  0  0  0  0  0  0
  -19.1647   16.6084  -20.1041 N   0  0  0  0  0  0  0  0  0  0  0  0
  -18.1699   16.1940  -20.9456 C   0  0  0  0  0  0  0  0  0  0  0  0
  -18.2514   14.9781  -21.4784 O   0  0  0  0  0  0  0  0  0  0  0  0
  -19.2704   13.9055  -18.5338 N   0  0  0  0  0  0  0  0  0  0  0  0
  -20.3344   14.5428  -19.2166 C   0  0  0  0  0  0  0  0  0  0  0  0
  -21.3046   13.8040  -19.5924 O   0  0  0  0  0  0  0  0  0  0  0  0
  -18.4660   14.4268  -18.1148 H   0  0  0  0  0  0  0  0  0  0  0  0
  -19.3089   12.4266  -18.4176 C   0  0  0  0  0  0  0  0  0  0  0  0
  -19.6901   12.1530  -17.0320 C   0  0  0  0  0  0  0  0  0  0  0  0
  -19.3494   12.9883  -16.1157 O   0  0  0  0  0  0  0  0  0  0  0  0
  -20.4171   10.9912  -16.6062 C   0  0  0  0  0  0  0  0  0  0  0  0
  -19.8592    9.8191  -16.6302 O   0  0  0  0  0  0  0  0  0  0  0  0
  -21.7500   11.0462  -16.1442 N   0  0  0  0  0  0  0  0  0  0  0  0
  -22.2645   11.9768  -16.1905 H   0  0  0  0  0  0  0  0  0  0  0  0
  -22.3880    9.8551  -15.6472 C   0  0  0  0  0  0  0  0  0  0  0  0
  -22.5458    9.8381  -14.1528 C   0  0  0  0  0  0  0  0  0  0  0  0
  -23.7441    9.7549  -15.0889 C   0  0  0  0  0  0  0  0  0  0  0  0
  -18.0030   11.9607  -18.9143 C   0  0  0  0  0  0  0  0  0  0  0  0
  -17.7153   12.0870  -20.3502 C   0  0  0  0  0  0  0  0  0  0  0  0
  -16.0301   10.3180  -20.1277 C   0  0  0  0  0  0  0  0  0  0  0  0
  -16.9646   11.0590  -21.0947 C   0  0  0  0  0  0  0  0  0  0  0  0
  -16.9633   16.8962  -21.3959 C   0  0  0  0  0  0  0  0  0  0  0  0
  -15.9132   17.0394  -20.2906 C   0  0  0  0  0  0  0  0  0  0  0  0
  -16.6673   18.2376  -20.7257 C   0  0  0  0  0  0  0  0  0  0  0  0
  -16.4026   16.6061  -22.7413 C   0  0  0  0  0  0  0  0  0  0  0  0
  -16.8855   17.3178  -23.8180 C   0  0  0  0  0  0  0  0  0  0  0  0
  -16.4588   17.0159  -25.1143 C   0  0  0  0  0  0  0  0  0  0  0  0
  -15.5530   16.0086  -25.3466 C   0  0  0  0  0  0  0  0  0  0  0  0
  -15.0689   15.6808  -26.9990 Cl  0  0  0  0  0  0  0  0  0  0  0  0
  -15.0718   15.3042  -24.2977 C   0  0  0  0  0  0  0  0  0  0  0  0
  -15.5116   15.6219  -23.0050 C   0  0  0  0  0  0  0  0  0  0  0  0
  -22.0273   18.4894  -18.6265 S   0  0  0  0  0  0  0  0  0  0  0  0
  -23.2550   17.5561  -18.6616 O   0  0  0  0  0  0  0  0  0  0  0  0
  -22.6270   19.8723  -18.7504 O   0  0  0  0  0  0  0  0  0  0  0  0
  -21.3877   18.3270  -17.0382 C   0  0  0  0  0  0  0  0  0  0  0  0
  -21.7785   17.2697  -16.2325 C   0  0  0  0  0  0  0  0  0  0  0  0
  -21.3601   17.1234  -14.9198 C   0  0  0  0  0  0  0  0  0  0  0  0
  -20.5197   18.0537  -14.3657 C   0  0  0  0  0  0  0  0  0  0  0  0
  -20.1280   19.1156  -15.1798 C   0  0  0  0  0  0  0  0  0  0  0  0
  -20.5346   19.2645  -16.4699 C   0  0  0  0  0  0  0  0  0  0  0  0
  -20.0311   20.6239  -17.4615 Cl  0  0  0  0  0  0  0  0  0  0  0  0
 24 25  1  0  0  0
 25 23  1  0  0  0
 23 22  1  0  0  0
 22 12  1  0  0  0
 12  8  1  0  0  0
  8  9  1  0  0  0
  9 10  2  0  0  0
  9  1  1  0  0  0
  1  2  1  0  0  0
  2  3  1  0  0  0
  3  4  1  0  0  0
  4  5  1  0  0  0
  5  6  1  0  0  0
  6  7  2  0  0  0
  6 26  1  0  0  0
 26 27  1  0  0  0
 27 28  1  0  0  0
 26 29  1  0  0  0
 29 30  2  0  0  0
 30 31  1  0  0  0
 31 32  2  0  0  0
 32 33  1  0  0  0
 32 34  1  0  0  0
 34 35  2  0  0  0
  3 36  1  0  0  0
 36 37  2  0  0  0
 36 38  2  0  0  0
 36 39  1  0  0  0
 39 40  2  0  0  0
 40 41  1  0  0  0
 41 42  2  0  0  0
 42 43  1  0  0  0
 43 44  2  0  0  0
 44 45  1  0  0  0
 12 13  1  0  0  0
 13 14  2  0  0  0
 13 15  1  0  0  0
 15 16  2  0  0  0
 15 17  1  0  0  0
 17 19  1  0  0  0
 19 20  1  0  0  0
 20 21  1  0  0  0
  5  1  1  0  0  0
 28 26  1  0  0  0
 35 29  1  0  0  0
 44 39  1  0  0  0
 21 19  1  0  0  0
  8 11  1  0  0  0
 17 18  1  0  0  0
M  END
> <minimizedAffinity>
-8.24873

> <CNNscore>
0.2203808427

> <CNNaffinity>
7.0550222397

> <CNN_VS>
1.5547916889

> <CNNaffinity_variance>
0.3983549178

$$$$
[H]c1c([H])c([H])c(S(=O)(=O)[C@@]2([H])C([H])([H])N(C(=O)C3(c4c([H])c([H])c(Cl)c([H])c4[H])C([H])([H])C3([H])[H])[C@]([H])(C(=O)N([H])[C@]([H])(C(=O)C(=O)N([H])C3([H])C([H])([H])C3([H])[H])C([H])([H])C([H])([H])C([H])([H])C([H])([H])[H])C2([H])[H])c(Cl)c1[H]


 45 49  0  0  0  0  0  0  0  0999 V2000
  -17.4959   14.6452  -21.0613 C   0  0  0  0  0  0  0  0  0  0  0  0
  -18.0630   14.3600  -22.4209 C   0  0  0  0  0  0  0  0  0  0  0  0
  -16.9253   13.3454  -22.9287 C   0  0  0  0  0  0  0  0  0  0  0  0
  -16.4656   12.7421  -21.6386 C   0  0  0  0  0  0  0  0  0  0  0  0
  -17.3937   13.2936  -20.5795 N   0  0  0  0  0  0  0  0  0  0  0  0
  -18.0666   12.5814  -19.6257 C   0  0  0  0  0  0  0  0  0  0  0  0
  -19.1773   13.0994  -19.1091 O   0  0  0  0  0  0  0  0  0  0  0  0
  -19.4845   15.8605  -20.3360 N   0  0  0  0  0  0  0  0  0  0  0  0
  -18.0753   15.7237  -20.3514 C   0  0  0  0  0  0  0  0  0  0  0  0
  -17.4020   16.6091  -19.7261 O   0  0  0  0  0  0  0  0  0  0  0  0
  -20.1325   15.1504  -20.7487 H   0  0  0  0  0  0  0  0  0  0  0  0
  -20.0557   17.0758  -19.7045 C   0  0  0  0  0  0  0  0  0  0  0  0
  -20.5482   16.6424  -18.3970 C   0  0  0  0  0  0  0  0  0  0  0  0
  -21.6144   15.9257  -18.3393 O   0  0  0  0  0  0  0  0  0  0  0  0
  -19.9281   16.9759  -17.1465 C   0  0  0  0  0  0  0  0  0  0  0  0
  -18.9850   16.2288  -16.6586 O   0  0  0  0  0  0  0  0  0  0  0  0
  -20.2924   18.1087  -16.3869 N   0  0  0  0  0  0  0  0  0  0  0  0
  -21.1177   18.6951  -16.7152 H   0  0  0  0  0  0  0  0  0  0  0  0
  -19.5663   18.4329  -15.1867 C   0  0  0  0  0  0  0  0  0  0  0  0
  -20.1581   19.5814  -14.4192 C   0  0  0  0  0  0  0  0  0  0  0  0
  -20.0072   18.1963  -13.8045 C   0  0  0  0  0  0  0  0  0  0  0  0
  -21.0041   17.6205  -20.6908 C   0  0  0  0  0  0  0  0  0  0  0  0
  -20.6410   17.5669  -22.1141 C   0  0  0  0  0  0  0  0  0  0  0  0
  -20.7058   19.5099  -23.6104 C   0  0  0  0  0  0  0  0  0  0  0  0
  -19.8102   18.6042  -22.7530 C   0  0  0  0  0  0  0  0  0  0  0  0
  -17.7668   11.2688  -19.0436 C   0  0  0  0  0  0  0  0  0  0  0  0
  -16.2649   11.0267  -18.8686 C   0  0  0  0  0  0  0  0  0  0  0  0
  -16.9928   10.2929  -19.9294 C   0  0  0  0  0  0  0  0  0  0  0  0
  -18.6059   10.7479  -17.9330 C   0  0  0  0  0  0  0  0  0  0  0  0
  -18.5001    9.4137  -17.6043 C   0  0  0  0  0  0  0  0  0  0  0  0
  -19.3357    8.8564  -16.6322 C   0  0  0  0  0  0  0  0  0  0  0  0
  -20.2774    9.6193  -15.9840 C   0  0  0  0  0  0  0  0  0  0  0  0
  -21.2957    8.8514  -14.7816 Cl  0  0  0  0  0  0  0  0  0  0  0  0
  -20.3895   10.9296  -16.2978 C   0  0  0  0  0  0  0  0  0  0  0  0
  -19.5425   11.4704  -17.2753 C   0  0  0  0  0  0  0  0  0  0  0  0
  -15.8429   14.3497  -23.8037 S   0  0  0  0  0  0  0  0  0  0  0  0
  -14.4261   13.7770  -23.5933 O   0  0  0  0  0  0  0  0  0  0  0  0
  -15.7552   15.7418  -23.2191 O   0  0  0  0  0  0  0  0  0  0  0  0
  -16.0163   14.4982  -25.5085 C   0  0  0  0  0  0  0  0  0  0  0  0
  -15.3333   15.4879  -26.1966 C   0  0  0  0  0  0  0  0  0  0  0  0
  -15.4874   15.7092  -27.5556 C   0  0  0  0  0  0  0  0  0  0  0  0
  -16.3498   14.9270  -28.2789 C   0  0  0  0  0  0  0  0  0  0  0  0
  -17.0346   13.9316  -27.5831 C   0  0  0  0  0  0  0  0  0  0  0  0
  -16.8871   13.7087  -26.2488 C   0  0  0  0  0  0  0  0  0  0  0  0
  -17.7778   12.4532  -25.4030 Cl  0  0  0  0  0  0  0  0  0  0  0  0
 24 25  1  0  0  0
 25 23  1  0  0  0
 23 22  1  0  0  0
 22 12  1  0  0  0
 12  8  1  0  0  0
  8  9  1  0  0  0
  9 10  2  0  0  0
  9  1  1  0  0  0
  1  2  1  0  0  0
  2  3  1  0  0  0
  3  4  1  0  0  0
  4  5  1  0  0  0
  5  6  1  0  0  0
  6  7  2  0  0  0
  6 26  1  0  0  0
 26 27  1  0  0  0
 27 28  1  0  0  0
 26 29  1  0  0  0
 29 30  2  0  0  0
 30 31  1  0  0  0
 31 32  2  0  0  0
 32 33  1  0  0  0
 32 34  1  0  0  0
 34 35  2  0  0  0
  3 36  1  0  0  0
 36 37  2  0  0  0
 36 38  2  0  0  0
 36 39  1  0  0  0
 39 40  2  0  0  0
 40 41  1  0  0  0
 41 42  2  0  0  0
 42 43  1  0  0  0
 43 44  2  0  0  0
 44 45  1  0  0  0
 12 13  1  0  0  0
 13 14  2  0  0  0
 13 15  1  0  0  0
 15 16  2  0  0  0
 15 17  1  0  0  0
 17 19  1  0  0  0
 19 20  1  0  0  0
 20 21  1  0  0  0
  5  1  1  0  0  0
 28 26  1  0  0  0
 35 29  1  0  0  0
 44 39  1  0  0  0
 21 19  1  0  0  0
  8 11  1  0  0  0
 17 18  1  0  0  0
M  END
> <minimizedAffinity>
-9.58458

> <CNNscore>
0.2033188641

> <CNNaffinity>
7.5555877686

> <CNN_VS>
1.5361934900

> <CNNaffinity_variance>
0.1612534374

$$$$
[H]c1c([H])c([H])c(S(=O)(=O)[C@@]2([H])C([H])([H])N(C(=O)C3(c4c([H])c([H])c(Cl)c([H])c4[H])C([H])([H])C3([H])[H])[C@]([H])(C(=O)N([H])[C@]([H])(C(=O)C(=O)N([H])C3([H])C([H])([H])C3([H])[H])C([H])([H])C([H])([H])C([H])([H])C([H])([H])[H])C2([H])[H])c(Cl)c1[H]


 45 49  0  0  0  0  0  0  0  0999 V2000
  -17.4995   14.6199  -20.9798 C   0  0  0  0  0  0  0  0  0  0  0  0
  -18.0978   14.3950  -22.3373 C   0  0  0  0  0  0  0  0  0  0  0  0
  -16.9805   13.3922  -22.9099 C   0  0  0  0  0  0  0  0  0  0  0  0
  -16.4994   12.7331  -21.6554 C   0  0  0  0  0  0  0  0  0  0  0  0
  -17.3999   13.2490  -20.5553 N   0  0  0  0  0  0  0  0  0  0  0  0
  -18.0592   12.5044  -19.6169 C   0  0  0  0  0  0  0  0  0  0  0  0
  -19.1539   13.0104  -19.0561 O   0  0  0  0  0  0  0  0  0  0  0  0
  -19.0319   16.5115  -20.8029 N   0  0  0  0  0  0  0  0  0  0  0  0
  -18.0539   15.6736  -20.2147 C   0  0  0  0  0  0  0  0  0  0  0  0
  -17.7143   15.9370  -19.0132 O   0  0  0  0  0  0  0  0  0  0  0  0
  -19.4380   16.3380  -21.7513 H   0  0  0  0  0  0  0  0  0  0  0  0
  -19.4909   17.6906  -20.0276 C   0  0  0  0  0  0  0  0  0  0  0  0
  -20.9506   17.6782  -20.1246 C   0  0  0  0  0  0  0  0  0  0  0  0
  -21.6271   17.0165  -19.2540 O   0  0  0  0  0  0  0  0  0  0  0  0
  -21.7002   18.3495  -21.1479 C   0  0  0  0  0  0  0  0  0  0  0  0
  -22.3192   19.4611  -20.8895 O   0  0  0  0  0  0  0  0  0  0  0  0
  -21.8087   17.8587  -22.4671 N   0  0  0  0  0  0  0  0  0  0  0  0
  -21.3843   16.9087  -22.6911 H   0  0  0  0  0  0  0  0  0  0  0  0
  -22.5014   18.6302  -23.4660 C   0  0  0  0  0  0  0  0  0  0  0  0
  -22.7369   17.8800  -24.7467 C   0  0  0  0  0  0  0  0  0  0  0  0
  -23.8867   18.4369  -23.9180 C   0  0  0  0  0  0  0  0  0  0  0  0
  -18.7393   18.8340  -20.5721 C   0  0  0  0  0  0  0  0  0  0  0  0
  -18.1013   18.6887  -21.8884 C   0  0  0  0  0  0  0  0  0  0  0  0
  -19.2929   20.6601  -22.7323 C   0  0  0  0  0  0  0  0  0  0  0  0
  -18.6556   19.3135  -23.1037 C   0  0  0  0  0  0  0  0  0  0  0  0
  -17.7595   11.1668  -19.0948 C   0  0  0  0  0  0  0  0  0  0  0  0
  -16.2592   10.9276  -18.9026 C   0  0  0  0  0  0  0  0  0  0  0  0
  -16.9604   10.2420  -20.0126 C   0  0  0  0  0  0  0  0  0  0  0  0
  -18.6154   10.5849  -18.0281 C   0  0  0  0  0  0  0  0  0  0  0  0
  -19.5004   11.4150  -17.3748 C   0  0  0  0  0  0  0  0  0  0  0  0
  -20.2579   10.9371  -16.3018 C   0  0  0  0  0  0  0  0  0  0  0  0
  -20.1403    9.6363  -15.8738 C   0  0  0  0  0  0  0  0  0  0  0  0
  -21.1163    9.1084  -14.5170 Cl  0  0  0  0  0  0  0  0  0  0  0  0
  -19.2757    8.8127  -16.5079 C   0  0  0  0  0  0  0  0  0  0  0  0
  -18.5248    9.3103  -17.5821 C   0  0  0  0  0  0  0  0  0  0  0  0
  -15.9073   14.4220  -23.7666 S   0  0  0  0  0  0  0  0  0  0  0  0
  -14.4787   13.9018  -23.5061 O   0  0  0  0  0  0  0  0  0  0  0  0
  -15.8854   15.8239  -23.1995 O   0  0  0  0  0  0  0  0  0  0  0  0
  -16.0343   14.5418  -25.4777 C   0  0  0  0  0  0  0  0  0  0  0  0
  -15.3197   15.5095  -26.1651 C   0  0  0  0  0  0  0  0  0  0  0  0
  -15.4352   15.7081  -27.5314 C   0  0  0  0  0  0  0  0  0  0  0  0
  -16.2895   14.9248  -28.2631 C   0  0  0  0  0  0  0  0  0  0  0  0
  -17.0062   13.9517  -27.5680 C   0  0  0  0  0  0  0  0  0  0  0  0
  -16.8966   13.7510  -26.2265 C   0  0  0  0  0  0  0  0  0  0  0  0
  -17.8266   12.5234  -25.3822 Cl  0  0  0  0  0  0  0  0  0  0  0  0
 24 25  1  0  0  0
 25 23  1  0  0  0
 23 22  1  0  0  0
 22 12  1  0  0  0
 12  8  1  0  0  0
  8  9  1  0  0  0
  9 10  2  0  0  0
  9  1  1  0  0  0
  1  2  1  0  0  0
  2  3  1  0  0  0
  3  4  1  0  0  0
  4  5  1  0  0  0
  5  6  1  0  0  0
  6  7  2  0  0  0
  6 26  1  0  0  0
 26 27  1  0  0  0
 27 28  1  0  0  0
 26 29  1  0  0  0
 29 30  2  0  0  0
 30 31  1  0  0  0
 31 32  2  0  0  0
 32 33  1  0  0  0
 32 34  1  0  0  0
 34 35  2  0  0  0
  3 36  1  0  0  0
 36 37  2  0  0  0
 36 38  2  0  0  0
 36 39  1  0  0  0
 39 40  2  0  0  0
 40 41  1  0  0  0
 41 42  2  0  0  0
 42 43  1  0  0  0
 43 44  2  0  0  0
 44 45  1  0  0  0
 12 13  1  0  0  0
 13 14  2  0  0  0
 13 15  1  0  0  0
 15 16  2  0  0  0
 15 17  1  0  0  0
 17 19  1  0  0  0
 19 20  1  0  0  0
 20 21  1  0  0  0
  5  1  1  0  0  0
 28 26  1  0  0  0
 35 29  1  0  0  0
 44 39  1  0  0  0
 21 19  1  0  0  0
  8 11  1  0  0  0
 17 18  1  0  0  0
M  END
> <minimizedAffinity>
-9.58394

> <CNNscore>
0.2011034191

> <CNNaffinity>
7.6171975136

> <CNN_VS>
1.5318444967

> <CNNaffinity_variance>
0.2163306773

$$$$
[H]c1c([H])c([H])c(S(=O)(=O)[C@@]2([H])C([H])([H])N(C(=O)C3(c4c([H])c([H])c(Cl)c([H])c4[H])C([H])([H])C3([H])[H])[C@]([H])(C(=O)N([H])[C@]([H])(C(=O)C(=O)N([H])C3([H])C([H])([H])C3([H])[H])C([H])([H])C([H])([H])C([H])([H])C([H])([H])[H])C2([H])[H])c(Cl)c1[H]


 45 49  0  0  0  0  0  0  0  0999 V2000
  -18.4840   14.5657  -21.1895 C   0  0  0  0  0  0  0  0  0  0  0  0
  -16.9870   14.6503  -21.1316 C   0  0  0  0  0  0  0  0  0  0  0  0
  -16.7514   15.3952  -22.5357 C   0  0  0  0  0  0  0  0  0  0  0  0
  -18.0209   16.1749  -22.6771 C   0  0  0  0  0  0  0  0  0  0  0  0
  -18.7742   15.9614  -21.3831 N   0  0  0  0  0  0  0  0  0  0  0  0
  -19.3348   16.9244  -20.5908 C   0  0  0  0  0  0  0  0  0  0  0  0
  -19.5169   16.6610  -19.3000 O   0  0  0  0  0  0  0  0  0  0  0  0
  -18.3216   13.1759  -19.1897 N   0  0  0  0  0  0  0  0  0  0  0  0
  -19.1042   13.7277  -20.2325 C   0  0  0  0  0  0  0  0  0  0  0  0
  -20.3411   13.4146  -20.2544 O   0  0  0  0  0  0  0  0  0  0  0  0
  -17.3185   13.4280  -19.0327 H   0  0  0  0  0  0  0  0  0  0  0  0
  -18.9666   12.1913  -18.2860 C   0  0  0  0  0  0  0  0  0  0  0  0
  -19.1530   12.8908  -17.0148 C   0  0  0  0  0  0  0  0  0  0  0  0
  -18.3663   13.8638  -16.7181 O   0  0  0  0  0  0  0  0  0  0  0  0
  -20.1580   12.5570  -16.0462 C   0  0  0  0  0  0  0  0  0  0  0  0
  -21.4043   12.8499  -16.2618 O   0  0  0  0  0  0  0  0  0  0  0  0
  -19.8646   11.9042  -14.8292 N   0  0  0  0  0  0  0  0  0  0  0  0
  -18.8448   11.7251  -14.5831 H   0  0  0  0  0  0  0  0  0  0  0  0
  -20.9333   11.5185  -13.9450 C   0  0  0  0  0  0  0  0  0  0  0  0
  -20.7348   10.1674  -13.3177 C   0  0  0  0  0  0  0  0  0  0  0  0
  -20.8697   11.4313  -12.4790 C   0  0  0  0  0  0  0  0  0  0  0  0
  -18.1092   10.9949  -18.3346 C   0  0  0  0  0  0  0  0  0  0  0  0
  -16.9463   11.0038  -19.2335 C   0  0  0  0  0  0  0  0  0  0  0  0
  -15.5562   10.3997  -21.1626 C   0  0  0  0  0  0  0  0  0  0  0  0
  -16.9576   10.3206  -20.5402 C   0  0  0  0  0  0  0  0  0  0  0  0
  -19.7903   18.2767  -20.9308 C   0  0  0  0  0  0  0  0  0  0  0  0
  -18.6507   19.2995  -20.9483 C   0  0  0  0  0  0  0  0  0  0  0  0
  -19.6361   19.3396  -19.8433 C   0  0  0  0  0  0  0  0  0  0  0  0
  -20.7998   18.4642  -22.0054 C   0  0  0  0  0  0  0  0  0  0  0  0
  -22.0369   17.8773  -21.8496 C   0  0  0  0  0  0  0  0  0  0  0  0
  -22.9859   17.9452  -22.8734 C   0  0  0  0  0  0  0  0  0  0  0  0
  -22.7116   18.5945  -24.0533 C   0  0  0  0  0  0  0  0  0  0  0  0
  -23.9471   18.6332  -25.2961 Cl  0  0  0  0  0  0  0  0  0  0  0  0
  -21.5015   19.1748  -24.2169 C   0  0  0  0  0  0  0  0  0  0  0  0
  -20.5628   19.0961  -23.1786 C   0  0  0  0  0  0  0  0  0  0  0  0
  -16.4432   14.1116  -23.6327 S   0  0  0  0  0  0  0  0  0  0  0  0
  -17.5285   13.0422  -23.3923 O   0  0  0  0  0  0  0  0  0  0  0  0
  -15.1532   13.3875  -23.3179 O   0  0  0  0  0  0  0  0  0  0  0  0
  -16.4831   14.4163  -25.3251 C   0  0  0  0  0  0  0  0  0  0  0  0
  -17.0444   13.4895  -26.1887 C   0  0  0  0  0  0  0  0  0  0  0  0
  -17.0404   13.6389  -27.5661 C   0  0  0  0  0  0  0  0  0  0  0  0
  -16.4606   14.7462  -28.1288 C   0  0  0  0  0  0  0  0  0  0  0  0
  -15.8978   15.6768  -27.2565 C   0  0  0  0  0  0  0  0  0  0  0  0
  -15.8991   15.5364  -25.9030 C   0  0  0  0  0  0  0  0  0  0  0  0
  -15.1674   16.7238  -24.8355 Cl  0  0  0  0  0  0  0  0  0  0  0  0
 24 25  1  0  0  0
 25 23  1  0  0  0
 23 22  1  0  0  0
 22 12  1  0  0  0
 12  8  1  0  0  0
  8  9  1  0  0  0
  9 10  2  0  0  0
  9  1  1  0  0  0
  1  2  1  0  0  0
  2  3  1  0  0  0
  3  4  1  0  0  0
  4  5  1  0  0  0
  5  6  1  0  0  0
  6  7  2  0  0  0
  6 26  1  0  0  0
 26 27  1  0  0  0
 27 28  1  0  0  0
 26 29  1  0  0  0
 29 30  2  0  0  0
 30 31  1  0  0  0
 31 32  2  0  0  0
 32 33  1  0  0  0
 32 34  1  0  0  0
 34 35  2  0  0  0
  3 36  1  0  0  0
 36 37  2  0  0  0
 36 38  2  0  0  0
 36 39  1  0  0  0
 39 40  2  0  0  0
 40 41  1  0  0  0
 41 42  2  0  0  0
 42 43  1  0  0  0
 43 44  2  0  0  0
 44 45  1  0  0  0
 12 13  1  0  0  0
 13 14  2  0  0  0
 13 15  1  0  0  0
 15 16  2  0  0  0
 15 17  1  0  0  0
 17 19  1  0  0  0
 19 20  1  0  0  0
 20 21  1  0  0  0
  5  1  1  0  0  0
 28 26  1  0  0  0
 35 29  1  0  0  0
 44 39  1  0  0  0
 21 19  1  0  0  0
  8 11  1  0  0  0
 17 18  1  0  0  0
M  END
> <minimizedAffinity>
-9.16414

> <CNNscore>
0.1959170252

> <CNNaffinity>
7.4034814835

> <CNN_VS>
1.4504680634

> <CNNaffinity_variance>
0.4319747388

$$$$
[H]c1c([H])c([H])c(S(=O)(=O)[C@@]2([H])C([H])([H])N(C(=O)C3(c4c([H])c([H])c(Cl)c([H])c4[H])C([H])([H])C3([H])[H])[C@]([H])(C(=O)N([H])[C@]([H])(C(=O)C(=O)N([H])C3([H])C([H])([H])C3([H])[H])C([H])([H])C([H])([H])C([H])([H])C([H])([H])[H])C2([H])[H])c(Cl)c1[H]


 45 49  0  0  0  0  0  0  0  0999 V2000
  -19.1018   14.3941  -18.6603 C   0  0  0  0  0  0  0  0  0  0  0  0
  -18.3075   14.0093  -17.4468 C   0  0  0  0  0  0  0  0  0  0  0  0
  -18.5440   12.4217  -17.5198 C   0  0  0  0  0  0  0  0  0  0  0  0
  -18.7167   12.2126  -18.9915 C   0  0  0  0  0  0  0  0  0  0  0  0
  -18.4425   13.5573  -19.6271 N   0  0  0  0  0  0  0  0  0  0  0  0
  -17.6075   13.8134  -20.6792 C   0  0  0  0  0  0  0  0  0  0  0  0
  -17.0988   15.0356  -20.8061 O   0  0  0  0  0  0  0  0  0  0  0  0
  -19.9573   16.2225  -20.0323 N   0  0  0  0  0  0  0  0  0  0  0  0
  -19.3725   15.7736  -18.8236 C   0  0  0  0  0  0  0  0  0  0  0  0
  -19.1052   16.6610  -17.9465 O   0  0  0  0  0  0  0  0  0  0  0  0
  -20.2871   15.5736  -20.7837 H   0  0  0  0  0  0  0  0  0  0  0  0
  -20.0994   17.6862  -20.2314 C   0  0  0  0  0  0  0  0  0  0  0  0
  -21.5396   17.9426  -20.2326 C   0  0  0  0  0  0  0  0  0  0  0  0
  -22.1032   18.3354  -19.1455 O   0  0  0  0  0  0  0  0  0  0  0  0
  -22.3922   17.7707  -21.3741 C   0  0  0  0  0  0  0  0  0  0  0  0
  -23.2403   16.7889  -21.4214 O   0  0  0  0  0  0  0  0  0  0  0  0
  -22.3658   18.6361  -22.4893 N   0  0  0  0  0  0  0  0  0  0  0  0
  -21.6257   19.4004  -22.5205 H   0  0  0  0  0  0  0  0  0  0  0  0
  -23.3119   18.4577  -23.5597 C   0  0  0  0  0  0  0  0  0  0  0  0
  -22.9399   19.1911  -24.8176 C   0  0  0  0  0  0  0  0  0  0  0  0
  -23.1080   17.6778  -24.7890 C   0  0  0  0  0  0  0  0  0  0  0  0
  -19.3083   17.9963  -21.4343 C   0  0  0  0  0  0  0  0  0  0  0  0
  -19.1997   16.9723  -22.4833 C   0  0  0  0  0  0  0  0  0  0  0  0
  -17.0333   17.3790  -23.5602 C   0  0  0  0  0  0  0  0  0  0  0  0
  -18.5468   17.2398  -23.7782 C   0  0  0  0  0  0  0  0  0  0  0  0
  -17.1413   12.9256  -21.7497 C   0  0  0  0  0  0  0  0  0  0  0  0
  -17.8612   11.5740  -21.7550 C   0  0  0  0  0  0  0  0  0  0  0  0
  -16.4497   11.6353  -21.3102 C   0  0  0  0  0  0  0  0  0  0  0  0
  -16.8708   13.4820  -23.1010 C   0  0  0  0  0  0  0  0  0  0  0  0
  -17.9351   13.6664  -23.9569 C   0  0  0  0  0  0  0  0  0  0  0  0
  -17.7209   14.0970  -25.2693 C   0  0  0  0  0  0  0  0  0  0  0  0
  -16.4524   14.3458  -25.7364 C   0  0  0  0  0  0  0  0  0  0  0  0
  -16.2589   14.8761  -27.3958 Cl  0  0  0  0  0  0  0  0  0  0  0  0
  -15.4008   14.1691  -24.9052 C   0  0  0  0  0  0  0  0  0  0  0  0
  -15.6358   13.7368  -23.5924 C   0  0  0  0  0  0  0  0  0  0  0  0
  -19.8879   12.1607  -16.4845 S   0  0  0  0  0  0  0  0  0  0  0  0
  -21.0441   11.6470  -17.3668 O   0  0  0  0  0  0  0  0  0  0  0  0
  -20.4253   13.4518  -15.9085 O   0  0  0  0  0  0  0  0  0  0  0  0
  -19.7613   11.0188  -15.2044 C   0  0  0  0  0  0  0  0  0  0  0  0
  -19.9765   11.4122  -13.8935 C   0  0  0  0  0  0  0  0  0  0  0  0
  -19.8161   10.5615  -12.8118 C   0  0  0  0  0  0  0  0  0  0  0  0
  -19.4267    9.2637  -13.0186 C   0  0  0  0  0  0  0  0  0  0  0  0
  -19.2120    8.8713  -14.3391 C   0  0  0  0  0  0  0  0  0  0  0  0
  -19.3685    9.7017  -15.4058 C   0  0  0  0  0  0  0  0  0  0  0  0
  -19.0753    9.1755  -17.0557 Cl  0  0  0  0  0  0  0  0  0  0  0  0
 24 25  1  0  0  0
 25 23  1  0  0  0
 23 22  1  0  0  0
 22 12  1  0  0  0
 12  8  1  0  0  0
  8  9  1  0  0  0
  9 10  2  0  0  0
  9  1  1  0  0  0
  1  2  1  0  0  0
  2  3  1  0  0  0
  3  4  1  0  0  0
  4  5  1  0  0  0
  5  6  1  0  0  0
  6  7  2  0  0  0
  6 26  1  0  0  0
 26 27  1  0  0  0
 27 28  1  0  0  0
 26 29  1  0  0  0
 29 30  2  0  0  0
 30 31  1  0  0  0
 31 32  2  0  0  0
 32 33  1  0  0  0
 32 34  1  0  0  0
 34 35  2  0  0  0
  3 36  1  0  0  0
 36 37  2  0  0  0
 36 38  2  0  0  0
 36 39  1  0  0  0
 39 40  2  0  0  0
 40 41  1  0  0  0
 41 42  2  0  0  0
 42 43  1  0  0  0
 43 44  2  0  0  0
 44 45  1  0  0  0
 12 13  1  0  0  0
 13 14  2  0  0  0
 13 15  1  0  0  0
 15 16  2  0  0  0
 15 17  1  0  0  0
 17 19  1  0  0  0
 19 20  1  0  0  0
 20 21  1  0  0  0
  5  1  1  0  0  0
 28 26  1  0  0  0
 35 29  1  0  0  0
 44 39  1  0  0  0
 21 19  1  0  0  0
  8 11  1  0  0  0
 17 18  1  0  0  0
M  END
> <minimizedAffinity>
-8.15613

> <CNNscore>
0.1855673641

> <CNNaffinity>
7.1623396873

> <CNN_VS>
1.3290965557

> <CNNaffinity_variance>
0.4315510690

$$$$
[H]c1c([H])c(S(=O)(=O)N([H])c2c([H])c(C(=O)N([H])[H])c([H])c(C(F)(F)F)c2[H])c([H])c(OC([H])([H])[H])c1OC([H])([H])[H]


 30 31  0  0  0  0  0  0  0  0999 V2000
  -18.8323   14.6628  -19.3933 N   0  0  0  0  0  0  0  0  0  0  0  0
  -18.3414   15.5285  -19.1357 H   0  0  0  0  0  0  0  0  0  0  0  0
  -18.1707   13.7317  -20.2404 C   0  0  0  0  0  0  0  0  0  0  0  0
  -17.6506   12.5510  -19.8373 C   0  0  0  0  0  0  0  0  0  0  0  0
  -16.9760   11.7070  -20.7474 C   0  0  0  0  0  0  0  0  0  0  0  0
  -16.8358   12.0637  -22.0615 C   0  0  0  0  0  0  0  0  0  0  0  0
  -17.3599   13.2589  -22.4906 C   0  0  0  0  0  0  0  0  0  0  0  0
  -18.0141   14.0764  -21.5956 C   0  0  0  0  0  0  0  0  0  0  0  0
  -16.4037   10.4376  -20.3476 C   0  0  0  0  0  0  0  0  0  0  0  0
  -16.8279    9.7779  -19.1861 N   0  0  0  0  0  0  0  0  0  0  0  0
  -15.5112    9.9417  -21.0744 O   0  0  0  0  0  0  0  0  0  0  0  0
  -17.7994    9.8229  -18.8090 H   0  0  0  0  0  0  0  0  0  0  0  0
  -16.1791    9.1776  -18.5995 H   0  0  0  0  0  0  0  0  0  0  0  0
  -17.2861   13.6877  -23.9217 C   0  0  0  0  0  0  0  0  0  0  0  0
  -17.2671   12.5884  -24.7787 F   0  0  0  0  0  0  0  0  0  0  0  0
  -16.1381   14.4060  -24.1411 F   0  0  0  0  0  0  0  0  0  0  0  0
  -18.4276   14.4063  -24.2654 F   0  0  0  0  0  0  0  0  0  0  0  0
  -20.4185   14.2845  -18.8428 S   0  0  0  0  0  0  0  0  0  0  0  0
  -21.1147   15.5910  -18.4403 O   0  0  0  0  0  0  0  0  0  0  0  0
  -21.2075   13.7335  -19.9898 O   0  0  0  0  0  0  0  0  0  0  0  0
  -20.7437   11.5832  -15.2091 C   0  0  0  0  0  0  0  0  0  0  0  0
  -21.3520   12.8001  -15.3010 C   0  0  0  0  0  0  0  0  0  0  0  0
  -21.2355   13.6019  -16.4002 C   0  0  0  0  0  0  0  0  0  0  0  0
  -20.4623   13.1936  -17.4904 C   0  0  0  0  0  0  0  0  0  0  0  0
  -19.8390   11.9672  -17.4232 C   0  0  0  0  0  0  0  0  0  0  0  0
  -19.9614   11.1399  -16.3032 C   0  0  0  0  0  0  0  0  0  0  0  0
  -20.0630   10.9774  -12.9383 C   0  0  0  0  0  0  0  0  0  0  0  0
  -20.8825   10.7971  -14.0777 O   0  0  0  0  0  0  0  0  0  0  0  0
  -19.3867    9.9568  -16.2062 O   0  0  0  0  0  0  0  0  0  0  0  0
  -19.0438    8.7262  -16.3836 C   0  0  0  0  0  0  0  0  0  0  0  0
 27 28  1  0  0  0
 28 21  1  0  0  0
 21 22  2  0  0  0
 22 23  1  0  0  0
 23 24  2  0  0  0
 24 25  1  0  0  0
 25 26  2  0  0  0
 26 29  1  0  0  0
 29 30  1  0  0  0
 24 18  1  0  0  0
 18 19  2  0  0  0
 18 20  2  0  0  0
 18  1  1  0  0  0
  1  3  1  0  0  0
  3  4  2  0  0  0
  4  5  1  0  0  0
  5  6  2  0  0  0
  6  7  1  0  0  0
  7  8  2  0  0  0
  7 14  1  0  0  0
 14 15  1  0  0  0
 14 16  1  0  0  0
 14 17  1  0  0  0
  5  9  1  0  0  0
  9 10  1  0  0  0
  9 11  2  0  0  0
 26 21  1  0  0  0
  8  3  1  0  0  0
  1  2  1  0  0  0
 10 12  1  0  0  0
 10 13  1  0  0  0
M  END
> <minimizedAffinity>
-7.62607

> <CNNscore>
0.7322999239

> <CNNaffinity>
6.2159042358

> <CNN_VS>
4.5519061089

> <CNNaffinity_variance>
0.0594472587

$$$$
[H]c1c([H])c(S(=O)(=O)N([H])c2c([H])c(C(=O)N([H])[H])c([H])c(C(F)(F)F)c2[H])c([H])c(OC([H])([H])[H])c1OC([H])([H])[H]


 30 31  0  0  0  0  0  0  0  0999 V2000
  -18.8294   14.9174  -19.3788 N   0  0  0  0  0  0  0  0  0  0  0  0
  -18.2264   15.5218  -18.8062 H   0  0  0  0  0  0  0  0  0  0  0  0
  -18.2259   13.8781  -20.1389 C   0  0  0  0  0  0  0  0  0  0  0  0
  -17.8053   12.6953  -19.6377 C   0  0  0  0  0  0  0  0  0  0  0  0
  -17.1811   11.7369  -20.4668 C   0  0  0  0  0  0  0  0  0  0  0  0
  -16.9900   11.9822  -21.7999 C   0  0  0  0  0  0  0  0  0  0  0  0
  -17.4129   13.1777  -22.3282 C   0  0  0  0  0  0  0  0  0  0  0  0
  -18.0187   14.1071  -21.5117 C   0  0  0  0  0  0  0  0  0  0  0  0
  -16.7152   10.4617  -19.9610 C   0  0  0  0  0  0  0  0  0  0  0  0
  -17.2521    9.8972  -18.7960 N   0  0  0  0  0  0  0  0  0  0  0  0
  -15.8113    9.8727  -20.5987 O   0  0  0  0  0  0  0  0  0  0  0  0
  -18.2408   10.0210  -18.4874 H   0  0  0  0  0  0  0  0  0  0  0  0
  -16.6802    9.2954  -18.1357 H   0  0  0  0  0  0  0  0  0  0  0  0
  -17.2804   13.4909  -23.7848 C   0  0  0  0  0  0  0  0  0  0  0  0
  -17.6221   12.3920  -24.5715 F   0  0  0  0  0  0  0  0  0  0  0  0
  -15.9833   13.8263  -24.0799 F   0  0  0  0  0  0  0  0  0  0  0  0
  -18.1755   14.4953  -24.1417 F   0  0  0  0  0  0  0  0  0  0  0  0
  -20.5388   15.1016  -19.4572 S   0  0  0  0  0  0  0  0  0  0  0  0
  -21.1472   13.7722  -19.9222 O   0  0  0  0  0  0  0  0  0  0  0  0
  -21.0620   15.3327  -18.0735 O   0  0  0  0  0  0  0  0  0  0  0  0
  -22.1799   18.3730  -22.1425 C   0  0  0  0  0  0  0  0  0  0  0  0
  -22.9649   17.5522  -21.3879 C   0  0  0  0  0  0  0  0  0  0  0  0
  -22.4522   16.5681  -20.5920 C   0  0  0  0  0  0  0  0  0  0  0  0
  -21.0716   16.3605  -20.5306 C   0  0  0  0  0  0  0  0  0  0  0  0
  -20.2565   17.1780  -21.2820 C   0  0  0  0  0  0  0  0  0  0  0  0
  -20.7763   18.1913  -22.0924 C   0  0  0  0  0  0  0  0  0  0  0  0
  -23.4690   19.0497  -24.1090 C   0  0  0  0  0  0  0  0  0  0  0  0
  -22.7347   19.3598  -22.9399 O   0  0  0  0  0  0  0  0  0  0  0  0
  -20.0276   18.9982  -22.8188 O   0  0  0  0  0  0  0  0  0  0  0  0
  -19.0453   19.6843  -23.2960 C   0  0  0  0  0  0  0  0  0  0  0  0
 27 28  1  0  0  0
 28 21  1  0  0  0
 21 22  2  0  0  0
 22 23  1  0  0  0
 23 24  2  0  0  0
 24 25  1  0  0  0
 25 26  2  0  0  0
 26 29  1  0  0  0
 29 30  1  0  0  0
 24 18  1  0  0  0
 18 19  2  0  0  0
 18 20  2  0  0  0
 18  1  1  0  0  0
  1  3  1  0  0  0
  3  4  2  0  0  0
  4  5  1  0  0  0
  5  6  2  0  0  0
  6  7  1  0  0  0
  7  8  2  0  0  0
  7 14  1  0  0  0
 14 15  1  0  0  0
 14 16  1  0  0  0
 14 17  1  0  0  0
  5  9  1  0  0  0
  9 10  1  0  0  0
  9 11  2  0  0  0
 26 21  1  0  0  0
  8  3  1  0  0  0
  1  2  1  0  0  0
 10 12  1  0  0  0
 10 13  1  0  0  0
M  END
> <minimizedAffinity>
-7.31778

> <CNNscore>
0.5499481559

> <CNNaffinity>
6.0046977997

> <CNN_VS>
3.3022725582

> <CNNaffinity_variance>
0.2365712374

$$$$
[H]c1c([H])c(S(=O)(=O)N([H])c2c([H])c(C(=O)N([H])[H])c([H])c(C(F)(F)F)c2[H])c([H])c(OC([H])([H])[H])c1OC([H])([H])[H]


 30 31  0  0  0  0  0  0  0  0999 V2000
  -18.7648   14.5806  -19.2236 N   0  0  0  0  0  0  0  0  0  0  0  0
  -18.2380   15.3909  -18.8733 H   0  0  0  0  0  0  0  0  0  0  0  0
  -18.1218   13.6893  -20.1260 C   0  0  0  0  0  0  0  0  0  0  0  0
  -17.5746   12.5015  -19.7843 C   0  0  0  0  0  0  0  0  0  0  0  0
  -16.9218   11.6998  -20.7469 C   0  0  0  0  0  0  0  0  0  0  0  0
  -16.8305   12.1057  -22.0510 C   0  0  0  0  0  0  0  0  0  0  0  0
  -17.3826   13.3089  -22.4181 C   0  0  0  0  0  0  0  0  0  0  0  0
  -18.0154   14.0850  -21.4721 C   0  0  0  0  0  0  0  0  0  0  0  0
  -16.3216   10.4240  -20.4134 C   0  0  0  0  0  0  0  0  0  0  0  0
  -16.7450    9.6859  -19.2999 N   0  0  0  0  0  0  0  0  0  0  0  0
  -15.4057    9.9954  -21.1537 O   0  0  0  0  0  0  0  0  0  0  0  0
  -17.7228    9.6832  -18.9365 H   0  0  0  0  0  0  0  0  0  0  0  0
  -16.0889    9.0688  -18.7393 H   0  0  0  0  0  0  0  0  0  0  0  0
  -17.3626   13.7904  -23.8341 C   0  0  0  0  0  0  0  0  0  0  0  0
  -16.2990   14.6637  -24.0562 F   0  0  0  0  0  0  0  0  0  0  0  0
  -18.5219   14.4659  -24.1199 F   0  0  0  0  0  0  0  0  0  0  0  0
  -17.1519   12.7214  -24.7001 F   0  0  0  0  0  0  0  0  0  0  0  0
  -20.3900   14.2486  -18.7646 S   0  0  0  0  0  0  0  0  0  0  0  0
  -21.0585   15.5700  -18.3639 O   0  0  0  0  0  0  0  0  0  0  0  0
  -21.1379   13.7555  -19.9642 O   0  0  0  0  0  0  0  0  0  0  0  0
  -20.5748   11.1819  -15.4227 C   0  0  0  0  0  0  0  0  0  0  0  0
  -19.8533   11.0082  -16.5667 C   0  0  0  0  0  0  0  0  0  0  0  0
  -19.8168   11.9397  -17.5644 C   0  0  0  0  0  0  0  0  0  0  0  0
  -20.5432   13.1277  -17.4451 C   0  0  0  0  0  0  0  0  0  0  0  0
  -21.2787   13.3282  -16.2980 C   0  0  0  0  0  0  0  0  0  0  0  0
  -21.3132   12.3808  -15.2708 C   0  0  0  0  0  0  0  0  0  0  0  0
  -20.1811    8.8833  -14.6823 C   0  0  0  0  0  0  0  0  0  0  0  0
  -20.5901   10.2146  -14.4320 O   0  0  0  0  0  0  0  0  0  0  0  0
  -21.9986   12.5413  -14.1555 O   0  0  0  0  0  0  0  0  0  0  0  0
  -22.3969   12.9164  -12.9876 C   0  0  0  0  0  0  0  0  0  0  0  0
 27 28  1  0  0  0
 28 21  1  0  0  0
 21 22  2  0  0  0
 22 23  1  0  0  0
 23 24  2  0  0  0
 24 25  1  0  0  0
 25 26  2  0  0  0
 26 29  1  0  0  0
 29 30  1  0  0  0
 24 18  1  0  0  0
 18 19  2  0  0  0
 18 20  2  0  0  0
 18  1  1  0  0  0
  1  3  1  0  0  0
  3  4  2  0  0  0
  4  5  1  0  0  0
  5  6  2  0  0  0
  6  7  1  0  0  0
  7  8  2  0  0  0
  7 14  1  0  0  0
 14 15  1  0  0  0
 14 16  1  0  0  0
 14 17  1  0  0  0
  5  9  1  0  0  0
  9 10  1  0  0  0
  9 11  2  0  0  0
 26 21  1  0  0  0
  8  3  1  0  0  0
  1  2  1  0  0  0
 10 12  1  0  0  0
 10 13  1  0  0  0
M  END
> <minimizedAffinity>
-7.36258

> <CNNscore>
0.5366271138

> <CNNaffinity>
5.8557348251

> <CNN_VS>
3.1423461437

> <CNNaffinity_variance>
0.1374014318

$$$$
[H]c1c([H])c(S(=O)(=O)N([H])c2c([H])c(C(=O)N([H])[H])c([H])c(C(F)(F)F)c2[H])c([H])c(OC([H])([H])[H])c1OC([H])([H])[H]


 30 31  0  0  0  0  0  0  0  0999 V2000
  -19.9292   13.7124  -18.7030 N   0  0  0  0  0  0  0  0  0  0  0  0
  -20.9526   13.6317  -18.7554 H   0  0  0  0  0  0  0  0  0  0  0  0
  -19.1517   12.5217  -18.7048 C   0  0  0  0  0  0  0  0  0  0  0  0
  -18.1932   12.2234  -19.6099 C   0  0  0  0  0  0  0  0  0  0  0  0
  -17.4979   10.9950  -19.5521 C   0  0  0  0  0  0  0  0  0  0  0  0
  -17.7765   10.0779  -18.5749 C   0  0  0  0  0  0  0  0  0  0  0  0
  -18.7459   10.3640  -17.6445 C   0  0  0  0  0  0  0  0  0  0  0  0
  -19.4201   11.5635  -17.7100 C   0  0  0  0  0  0  0  0  0  0  0  0
  -16.4683   10.6425  -20.5084 C   0  0  0  0  0  0  0  0  0  0  0  0
  -16.2972   11.3641  -21.6976 N   0  0  0  0  0  0  0  0  0  0  0  0
  -15.7290    9.6665  -20.2411 O   0  0  0  0  0  0  0  0  0  0  0  0
  -16.4877   12.3850  -21.7955 H   0  0  0  0  0  0  0  0  0  0  0  0
  -15.9572   10.9141  -22.5961 H   0  0  0  0  0  0  0  0  0  0  0  0
  -19.0664    9.4294  -16.5215 C   0  0  0  0  0  0  0  0  0  0  0  0
  -18.0966    8.4356  -16.3983 F   0  0  0  0  0  0  0  0  0  0  0  0
  -20.2691    8.8105  -16.7506 F   0  0  0  0  0  0  0  0  0  0  0  0
  -19.0518   10.1142  -15.3099 F   0  0  0  0  0  0  0  0  0  0  0  0
  -19.1105   15.2240  -18.6175 S   0  0  0  0  0  0  0  0  0  0  0  0
  -20.1431   16.3161  -18.3107 O   0  0  0  0  0  0  0  0  0  0  0  0
  -18.1761   15.1999  -17.4480 O   0  0  0  0  0  0  0  0  0  0  0  0
  -16.6841   16.4489  -22.2534 C   0  0  0  0  0  0  0  0  0  0  0  0
  -16.3964   16.8536  -20.9834 C   0  0  0  0  0  0  0  0  0  0  0  0
  -17.1436   16.4803  -19.9031 C   0  0  0  0  0  0  0  0  0  0  0  0
  -18.2606   15.6573  -20.0704 C   0  0  0  0  0  0  0  0  0  0  0  0
  -18.5714   15.2331  -21.3434 C   0  0  0  0  0  0  0  0  0  0  0  0
  -17.8052   15.6065  -22.4512 C   0  0  0  0  0  0  0  0  0  0  0  0
  -15.1035   15.9333  -24.0485 C   0  0  0  0  0  0  0  0  0  0  0  0
  -15.9050   16.8486  -23.3260 O   0  0  0  0  0  0  0  0  0  0  0  0
  -18.0669   15.2138  -23.6828 O   0  0  0  0  0  0  0  0  0  0  0  0
  -18.4416   14.5395  -24.7163 C   0  0  0  0  0  0  0  0  0  0  0  0
 27 28  1  0  0  0
 28 21  1  0  0  0
 21 22  2  0  0  0
 22 23  1  0  0  0
 23 24  2  0  0  0
 24 25  1  0  0  0
 25 26  2  0  0  0
 26 29  1  0  0  0
 29 30  1  0  0  0
 24 18  1  0  0  0
 18 19  2  0  0  0
 18 20  2  0  0  0
 18  1  1  0  0  0
  1  3  1  0  0  0
  3  4  2  0  0  0
  4  5  1  0  0  0
  5  6  2  0  0  0
  6  7  1  0  0  0
  7  8  2  0  0  0
  7 14  1  0  0  0
 14 15  1  0  0  0
 14 16  1  0  0  0
 14 17  1  0  0  0
  5  9  1  0  0  0
  9 10  1  0  0  0
  9 11  2  0  0  0
 26 21  1  0  0  0
  8  3  1  0  0  0
  1  2  1  0  0  0
 10 12  1  0  0  0
 10 13  1  0  0  0
M  END
> <minimizedAffinity>
-7.42515

> <CNNscore>
0.4532822371

> <CNNaffinity>
6.2022004128

> <CNN_VS>
2.8113472462

> <CNNaffinity_variance>
0.1185809821

$$$$
[H]c1c([H])c(S(=O)(=O)N([H])c2c([H])c(C(=O)N([H])[H])c([H])c(C(F)(F)F)c2[H])c([H])c(OC([H])([H])[H])c1OC([H])([H])[H]


 30 31  0  0  0  0  0  0  0  0999 V2000
  -16.3586   11.1370  -19.2188 N   0  0  0  0  0  0  0  0  0  0  0  0
  -15.4839   11.4159  -18.7564 H   0  0  0  0  0  0  0  0  0  0  0  0
  -17.5457   11.0603  -18.4397 C   0  0  0  0  0  0  0  0  0  0  0  0
  -17.9273    9.9868  -17.7123 C   0  0  0  0  0  0  0  0  0  0  0  0
  -19.1464    9.9904  -16.9985 C   0  0  0  0  0  0  0  0  0  0  0  0
  -19.9696   11.0837  -17.0238 C   0  0  0  0  0  0  0  0  0  0  0  0
  -19.5978   12.1853  -17.7556 C   0  0  0  0  0  0  0  0  0  0  0  0
  -18.4083   12.1719  -18.4503 C   0  0  0  0  0  0  0  0  0  0  0  0
  -19.5867    8.8557  -16.2128 C   0  0  0  0  0  0  0  0  0  0  0  0
  -18.7225    7.7933  -15.9149 N   0  0  0  0  0  0  0  0  0  0  0  0
  -20.7713    8.8498  -15.8039 O   0  0  0  0  0  0  0  0  0  0  0  0
  -17.6936    7.8964  -15.7777 H   0  0  0  0  0  0  0  0  0  0  0  0
  -19.0606    6.7936  -15.8073 H   0  0  0  0  0  0  0  0  0  0  0  0
  -20.4250   13.4311  -17.7876 C   0  0  0  0  0  0  0  0  0  0  0  0
  -21.0739   13.5759  -19.0128 F   0  0  0  0  0  0  0  0  0  0  0  0
  -19.6276   14.5325  -17.6066 F   0  0  0  0  0  0  0  0  0  0  0  0
  -21.4392   13.3565  -16.8373 F   0  0  0  0  0  0  0  0  0  0  0  0
  -16.4550   10.7623  -20.8959 S   0  0  0  0  0  0  0  0  0  0  0  0
  -15.1782   10.0129  -21.2978 O   0  0  0  0  0  0  0  0  0  0  0  0
  -17.5822    9.8006  -21.1103 O   0  0  0  0  0  0  0  0  0  0  0  0
  -17.1045   14.4835  -23.4134 C   0  0  0  0  0  0  0  0  0  0  0  0
  -17.9450   14.0936  -22.4129 C   0  0  0  0  0  0  0  0  0  0  0  0
  -17.7364   12.9659  -21.6718 C   0  0  0  0  0  0  0  0  0  0  0  0
  -16.6308   12.1502  -21.9273 C   0  0  0  0  0  0  0  0  0  0  0  0
  -15.7652   12.5233  -22.9317 C   0  0  0  0  0  0  0  0  0  0  0  0
  -15.9706   13.6806  -23.6881 C   0  0  0  0  0  0  0  0  0  0  0  0
  -17.1726   16.9228  -23.5916 C   0  0  0  0  0  0  0  0  0  0  0  0
  -17.3483   15.6329  -24.1461 O   0  0  0  0  0  0  0  0  0  0  0  0
  -15.1600   14.0740  -24.6511 O   0  0  0  0  0  0  0  0  0  0  0  0
  -14.2512   14.6794  -25.3373 C   0  0  0  0  0  0  0  0  0  0  0  0
 27 28  1  0  0  0
 28 21  1  0  0  0
 21 22  2  0  0  0
 22 23  1  0  0  0
 23 24  2  0  0  0
 24 25  1  0  0  0
 25 26  2  0  0  0
 26 29  1  0  0  0
 29 30  1  0  0  0
 24 18  1  0  0  0
 18 19  2  0  0  0
 18 20  2  0  0  0
 18  1  1  0  0  0
  1  3  1  0  0  0
  3  4  2  0  0  0
  4  5  1  0  0  0
  5  6  2  0  0  0
  6  7  1  0  0  0
  7  8  2  0  0  0
  7 14  1  0  0  0
 14 15  1  0  0  0
 14 16  1  0  0  0
 14 17  1  0  0  0
  5  9  1  0  0  0
  9 10  1  0  0  0
  9 11  2  0  0  0
 26 21  1  0  0  0
  8  3  1  0  0  0
  1  2  1  0  0  0
 10 12  1  0  0  0
 10 13  1  0  0  0
M  END
> <minimizedAffinity>
-7.55815

> <CNNscore>
0.4524144530

> <CNNaffinity>
5.9642424583

> <CNN_VS>
2.6983094215

> <CNNaffinity_variance>
0.3332699537

$$$$
[H]c1c([H])c(S(=O)(=O)N([H])c2c([H])c(C(=O)N([H])[H])c([H])c(C(F)(F)F)c2[H])c([H])c(OC([H])([H])[H])c1OC([H])([H])[H]


 30 31  0  0  0  0  0  0  0  0999 V2000
  -18.7645   14.6086  -19.1437 N   0  0  0  0  0  0  0  0  0  0  0  0
  -18.2387   15.4494  -18.8728 H   0  0  0  0  0  0  0  0  0  0  0  0
  -18.1516   13.6780  -20.0272 C   0  0  0  0  0  0  0  0  0  0  0  0
  -17.6388   12.4826  -19.6598 C   0  0  0  0  0  0  0  0  0  0  0  0
  -17.0137   11.6398  -20.6055 C   0  0  0  0  0  0  0  0  0  0  0  0
  -16.9152   12.0126  -21.9189 C   0  0  0  0  0  0  0  0  0  0  0  0
  -17.4326   13.2230  -22.3121 C   0  0  0  0  0  0  0  0  0  0  0  0
  -18.0385   14.0392  -21.3824 C   0  0  0  0  0  0  0  0  0  0  0  0
  -16.4505   10.3547  -20.2444 C   0  0  0  0  0  0  0  0  0  0  0  0
  -16.8643    9.6732  -19.0919 N   0  0  0  0  0  0  0  0  0  0  0  0
  -15.5756    9.8656  -20.9966 O   0  0  0  0  0  0  0  0  0  0  0  0
  -17.8292    9.7206  -18.6984 H   0  0  0  0  0  0  0  0  0  0  0  0
  -16.2137    9.0518  -18.5298 H   0  0  0  0  0  0  0  0  0  0  0  0
  -17.4034   13.6709  -23.7389 C   0  0  0  0  0  0  0  0  0  0  0  0
  -18.4628   14.5323  -24.0202 F   0  0  0  0  0  0  0  0  0  0  0  0
  -17.5133   12.5895  -24.5759 F   0  0  0  0  0  0  0  0  0  0  0  0
  -16.2496   14.4092  -23.9853 F   0  0  0  0  0  0  0  0  0  0  0  0
  -20.3530   14.2713  -18.5736 S   0  0  0  0  0  0  0  0  0  0  0  0
  -21.2754   14.0981  -19.7872 O   0  0  0  0  0  0  0  0  0  0  0  0
  -20.3420   12.9487  -17.8722 O   0  0  0  0  0  0  0  0  0  0  0  0
  -22.3351   17.4421  -15.9998 C   0  0  0  0  0  0  0  0  0  0  0  0
  -22.9233   16.8852  -17.0968 C   0  0  0  0  0  0  0  0  0  0  0  0
  -22.3070   15.9378  -17.8631 C   0  0  0  0  0  0  0  0  0  0  0  0
  -21.0174   15.5039  -17.5440 C   0  0  0  0  0  0  0  0  0  0  0  0
  -20.4021   16.0498  -16.4391 C   0  0  0  0  0  0  0  0  0  0  0  0
  -21.0318   17.0143  -15.6474 C   0  0  0  0  0  0  0  0  0  0  0  0
  -22.9915   19.7679  -15.6168 C   0  0  0  0  0  0  0  0  0  0  0  0
  -22.9894   18.4022  -15.2465 O   0  0  0  0  0  0  0  0  0  0  0  0
  -20.4781   17.5531  -14.5786 O   0  0  0  0  0  0  0  0  0  0  0  0
  -19.8538   18.3371  -13.7668 C   0  0  0  0  0  0  0  0  0  0  0  0
 27 28  1  0  0  0
 28 21  1  0  0  0
 21 22  2  0  0  0
 22 23  1  0  0  0
 23 24  2  0  0  0
 24 25  1  0  0  0
 25 26  2  0  0  0
 26 29  1  0  0  0
 29 30  1  0  0  0
 24 18  1  0  0  0
 18 19  2  0  0  0
 18 20  2  0  0  0
 18  1  1  0  0  0
  1  3  1  0  0  0
  3  4  2  0  0  0
  4  5  1  0  0  0
  5  6  2  0  0  0
  6  7  1  0  0  0
  7  8  2  0  0  0
  7 14  1  0  0  0
 14 15  1  0  0  0
 14 16  1  0  0  0
 14 17  1  0  0  0
  5  9  1  0  0  0
  9 10  1  0  0  0
  9 11  2  0  0  0
 26 21  1  0  0  0
  8  3  1  0  0  0
  1  2  1  0  0  0
 10 12  1  0  0  0
 10 13  1  0  0  0
M  END
> <minimizedAffinity>
-6.93446

> <CNNscore>
0.4510482550

> <CNNaffinity>
5.7886972427

> <CNN_VS>
2.6109817028

> <CNNaffinity_variance>
0.1123029590

$$$$
[H]c1c([H])c(S(=O)(=O)N([H])c2c([H])c(C(=O)N([H])[H])c([H])c(C(F)(F)F)c2[H])c([H])c(OC([H])([H])[H])c1OC([H])([H])[H]


 30 31  0  0  0  0  0  0  0  0999 V2000
  -18.4565   12.2467  -20.4283 N   0  0  0  0  0  0  0  0  0  0  0  0
  -19.4414   12.1376  -20.7022 H   0  0  0  0  0  0  0  0  0  0  0  0
  -17.7191   13.3394  -20.9615 C   0  0  0  0  0  0  0  0  0  0  0  0
  -17.5974   14.5516  -20.3761 C   0  0  0  0  0  0  0  0  0  0  0  0
  -16.8730   15.5902  -21.0022 C   0  0  0  0  0  0  0  0  0  0  0  0
  -16.2735   15.3925  -22.2167 C   0  0  0  0  0  0  0  0  0  0  0  0
  -16.3839   14.1665  -22.8265 C   0  0  0  0  0  0  0  0  0  0  0  0
  -17.0941   13.1602  -22.2094 C   0  0  0  0  0  0  0  0  0  0  0  0
  -16.7268   16.9017  -20.4041 C   0  0  0  0  0  0  0  0  0  0  0  0
  -17.3613   17.2301  -19.1984 N   0  0  0  0  0  0  0  0  0  0  0  0
  -16.0120   17.7414  -20.9995 O   0  0  0  0  0  0  0  0  0  0  0  0
  -17.5495   16.5487  -18.4313 H   0  0  0  0  0  0  0  0  0  0  0  0
  -17.7007   18.2110  -18.9790 H   0  0  0  0  0  0  0  0  0  0  0  0
  -15.7132   13.8665  -24.1293 C   0  0  0  0  0  0  0  0  0  0  0  0
  -15.5365   15.0243  -24.8854 F   0  0  0  0  0  0  0  0  0  0  0  0
  -16.4801   13.0010  -24.8673 F   0  0  0  0  0  0  0  0  0  0  0  0
  -14.4321   13.3708  -23.9051 F   0  0  0  0  0  0  0  0  0  0  0  0
  -17.6581   11.1696  -19.3492 S   0  0  0  0  0  0  0  0  0  0  0  0
  -17.1948    9.9430  -20.1456 O   0  0  0  0  0  0  0  0  0  0  0  0
  -16.4117   11.8289  -18.8456 O   0  0  0  0  0  0  0  0  0  0  0  0
  -20.0589    9.5438  -15.8564 C   0  0  0  0  0  0  0  0  0  0  0  0
  -19.1116    8.8225  -16.5212 C   0  0  0  0  0  0  0  0  0  0  0  0
  -18.4053    9.3272  -17.5752 C   0  0  0  0  0  0  0  0  0  0  0  0
  -18.6429   10.6296  -18.0227 C   0  0  0  0  0  0  0  0  0  0  0  0
  -19.5936   11.3798  -17.3666 C   0  0  0  0  0  0  0  0  0  0  0  0
  -20.3139   10.8701  -16.2825 C   0  0  0  0  0  0  0  0  0  0  0  0
  -20.1115    8.2502  -13.7802 C   0  0  0  0  0  0  0  0  0  0  0  0
  -20.7575    8.9990  -14.7922 O   0  0  0  0  0  0  0  0  0  0  0  0
  -21.2250   11.5606  -15.6249 O   0  0  0  0  0  0  0  0  0  0  0  0
  -21.8262   12.3781  -14.8289 C   0  0  0  0  0  0  0  0  0  0  0  0
 27 28  1  0  0  0
 28 21  1  0  0  0
 21 22  2  0  0  0
 22 23  1  0  0  0
 23 24  2  0  0  0
 24 25  1  0  0  0
 25 26  2  0  0  0
 26 29  1  0  0  0
 29 30  1  0  0  0
 24 18  1  0  0  0
 18 19  2  0  0  0
 18 20  2  0  0  0
 18  1  1  0  0  0
  1  3  1  0  0  0
  3  4  2  0  0  0
  4  5  1  0  0  0
  5  6  2  0  0  0
  6  7  1  0  0  0
  7  8  2  0  0  0
  7 14  1  0  0  0
 14 15  1  0  0  0
 14 16  1  0  0  0
 14 17  1  0  0  0
  5  9  1  0  0  0
  9 10  1  0  0  0
  9 11  2  0  0  0
 26 21  1  0  0  0
  8  3  1  0  0  0
  1  2  1  0  0  0
 10 12  1  0  0  0
 10 13  1  0  0  0
M  END
> <minimizedAffinity>
-7.56565

> <CNNscore>
0.4389137924

> <CNNaffinity>
5.7686281204

> <CNN_VS>
2.5319304466

> <CNNaffinity_variance>
0.1600998044

$$$$
[H]c1c([H])c(S(=O)(=O)N([H])c2c([H])c(C(=O)N([H])[H])c([H])c(C(F)(F)F)c2[H])c([H])c(OC([H])([H])[H])c1OC([H])([H])[H]


 30 31  0  0  0  0  0  0  0  0999 V2000
  -16.4173   11.1928  -19.1321 N   0  0  0  0  0  0  0  0  0  0  0  0
  -15.5487   11.4849  -18.6664 H   0  0  0  0  0  0  0  0  0  0  0  0
  -17.6023   11.0813  -18.3538 C   0  0  0  0  0  0  0  0  0  0  0  0
  -17.9708    9.9839  -17.6560 C   0  0  0  0  0  0  0  0  0  0  0  0
  -19.1886    9.9540  -16.9408 C   0  0  0  0  0  0  0  0  0  0  0  0
  -20.0240   11.0384  -16.9346 C   0  0  0  0  0  0  0  0  0  0  0  0
  -19.6656   12.1639  -17.6360 C   0  0  0  0  0  0  0  0  0  0  0  0
  -18.4772   12.1831  -18.3323 C   0  0  0  0  0  0  0  0  0  0  0  0
  -19.6151    8.7930  -16.1864 C   0  0  0  0  0  0  0  0  0  0  0  0
  -18.7366    7.7358  -15.9132 N   0  0  0  0  0  0  0  0  0  0  0  0
  -20.8008    8.7596  -15.7820 O   0  0  0  0  0  0  0  0  0  0  0  0
  -17.7098    7.8499  -15.7698 H   0  0  0  0  0  0  0  0  0  0  0  0
  -19.0606    6.7288  -15.8327 H   0  0  0  0  0  0  0  0  0  0  0  0
  -20.5067   13.4008  -17.6322 C   0  0  0  0  0  0  0  0  0  0  0  0
  -21.5162   13.3229  -16.6740 F   0  0  0  0  0  0  0  0  0  0  0  0
  -21.1059   13.5685  -18.8548 F   0  0  0  0  0  0  0  0  0  0  0  0
  -19.7363   14.5022  -17.2707 F   0  0  0  0  0  0  0  0  0  0  0  0
  -16.5062   10.8363  -20.8135 S   0  0  0  0  0  0  0  0  0  0  0  0
  -15.2154   10.1157  -21.2235 O   0  0  0  0  0  0  0  0  0  0  0  0
  -17.6151    9.8560  -21.0397 O   0  0  0  0  0  0  0  0  0  0  0  0
  -16.8861   14.3525  -23.6592 C   0  0  0  0  0  0  0  0  0  0  0  0
  -16.0061   13.3269  -23.8410 C   0  0  0  0  0  0  0  0  0  0  0  0
  -15.9013   12.2815  -22.9688 C   0  0  0  0  0  0  0  0  0  0  0  0
  -16.7079   12.2326  -21.8285 C   0  0  0  0  0  0  0  0  0  0  0  0
  -17.6068   13.2559  -21.6230 C   0  0  0  0  0  0  0  0  0  0  0  0
  -17.7227   14.3242  -22.5169 C   0  0  0  0  0  0  0  0  0  0  0  0
  -16.0341   16.4644  -24.5539 C   0  0  0  0  0  0  0  0  0  0  0  0
  -16.9639   15.3979  -24.5639 O   0  0  0  0  0  0  0  0  0  0  0  0
  -18.5766   15.3167  -22.3579 O   0  0  0  0  0  0  0  0  0  0  0  0
  -19.1549   16.4076  -21.9856 C   0  0  0  0  0  0  0  0  0  0  0  0
 27 28  1  0  0  0
 28 21  1  0  0  0
 21 22  2  0  0  0
 22 23  1  0  0  0
 23 24  2  0  0  0
 24 25  1  0  0  0
 25 26  2  0  0  0
 26 29  1  0  0  0
 29 30  1  0  0  0
 24 18  1  0  0  0
 18 19  2  0  0  0
 18 20  2  0  0  0
 18  1  1  0  0  0
  1  3  1  0  0  0
  3  4  2  0  0  0
  4  5  1  0  0  0
  5  6  2  0  0  0
  6  7  1  0  0  0
  7  8  2  0  0  0
  7 14  1  0  0  0
 14 15  1  0  0  0
 14 16  1  0  0  0
 14 17  1  0  0  0
  5  9  1  0  0  0
  9 10  1  0  0  0
  9 11  2  0  0  0
 26 21  1  0  0  0
  8  3  1  0  0  0
  1  2  1  0  0  0
 10 12  1  0  0  0
 10 13  1  0  0  0
M  END
> <minimizedAffinity>
-7.38110

> <CNNscore>
0.4252027869

> <CNNaffinity>
6.0060291290

> <CNN_VS>
2.5537803173

> <CNNaffinity_variance>
0.3289783597

$$$$
[H]c1c([H])c(S(=O)(=O)N([H])c2c([H])c(C(=O)N([H])[H])c([H])c(C(F)(F)F)c2[H])c([H])c(OC([H])([H])[H])c1OC([H])([H])[H]


 30 31  0  0  0  0  0  0  0  0999 V2000
  -19.1823   13.5429  -18.6962 N   0  0  0  0  0  0  0  0  0  0  0  0
  -18.9080   13.2660  -17.7450 H   0  0  0  0  0  0  0  0  0  0  0  0
  -18.3926   13.0934  -19.7901 C   0  0  0  0  0  0  0  0  0  0  0  0
  -17.6117   11.9901  -19.7805 C   0  0  0  0  0  0  0  0  0  0  0  0
  -16.8316   11.6437  -20.9061 C   0  0  0  0  0  0  0  0  0  0  0  0
  -16.8505   12.4162  -22.0360 C   0  0  0  0  0  0  0  0  0  0  0  0
  -17.6398   13.5402  -22.0657 C   0  0  0  0  0  0  0  0  0  0  0  0
  -18.3955   13.8713  -20.9625 C   0  0  0  0  0  0  0  0  0  0  0  0
  -15.9813   10.4709  -20.9274 C   0  0  0  0  0  0  0  0  0  0  0  0
  -14.9392   10.3403  -21.8553 N   0  0  0  0  0  0  0  0  0  0  0  0
  -16.2054    9.5687  -20.0869 O   0  0  0  0  0  0  0  0  0  0  0  0
  -14.3876   11.1412  -22.2328 H   0  0  0  0  0  0  0  0  0  0  0  0
  -14.6344    9.4020  -22.2453 H   0  0  0  0  0  0  0  0  0  0  0  0
  -17.7458   14.4016  -23.2839 C   0  0  0  0  0  0  0  0  0  0  0  0
  -16.5449   15.0600  -23.5438 F   0  0  0  0  0  0  0  0  0  0  0  0
  -18.7135   15.3573  -23.1040 F   0  0  0  0  0  0  0  0  0  0  0  0
  -17.9882   13.6152  -24.4064 F   0  0  0  0  0  0  0  0  0  0  0  0
  -20.5577   14.5228  -19.0283 S   0  0  0  0  0  0  0  0  0  0  0  0
  -21.4057   13.8194  -20.0958 O   0  0  0  0  0  0  0  0  0  0  0  0
  -21.4113   14.5864  -17.7999 O   0  0  0  0  0  0  0  0  0  0  0  0
  -19.3425   18.7014  -20.3203 C   0  0  0  0  0  0  0  0  0  0  0  0
  -18.8580   18.0864  -19.2039 C   0  0  0  0  0  0  0  0  0  0  0  0
  -19.2421   16.8312  -18.8276 C   0  0  0  0  0  0  0  0  0  0  0  0
  -20.1744   16.1222  -19.5901 C   0  0  0  0  0  0  0  0  0  0  0  0
  -20.6776   16.7208  -20.7240 C   0  0  0  0  0  0  0  0  0  0  0  0
  -20.2818   18.0024  -21.1171 C   0  0  0  0  0  0  0  0  0  0  0  0
  -19.4324   21.1277  -20.0182 C   0  0  0  0  0  0  0  0  0  0  0  0
  -18.9316   19.9764  -20.6707 O   0  0  0  0  0  0  0  0  0  0  0  0
  -20.7350   18.6040  -22.1998 O   0  0  0  0  0  0  0  0  0  0  0  0
  -21.1071   18.8743  -23.4046 C   0  0  0  0  0  0  0  0  0  0  0  0
 27 28  1  0  0  0
 28 21  1  0  0  0
 21 22  2  0  0  0
 22 23  1  0  0  0
 23 24  2  0  0  0
 24 25  1  0  0  0
 25 26  2  0  0  0
 26 29  1  0  0  0
 29 30  1  0  0  0
 24 18  1  0  0  0
 18 19  2  0  0  0
 18 20  2  0  0  0
 18  1  1  0  0  0
  1  3  1  0  0  0
  3  4  2  0  0  0
  4  5  1  0  0  0
  5  6  2  0  0  0
  6  7  1  0  0  0
  7  8  2  0  0  0
  7 14  1  0  0  0
 14 15  1  0  0  0
 14 16  1  0  0  0
 14 17  1  0  0  0
  5  9  1  0  0  0
  9 10  1  0  0  0
  9 11  2  0  0  0
 26 21  1  0  0  0
  8  3  1  0  0  0
  1  2  1  0  0  0
 10 12  1  0  0  0
 10 13  1  0  0  0
M  END
> <minimizedAffinity>
-6.97616

> <CNNscore>
0.3735519350

> <CNNaffinity>
6.0288734436

> <CNN_VS>
2.2520973682

> <CNNaffinity_variance>
0.3124085367

$$$$
[H]c1nc(N([H])c2c([H])c(OC([H])([H])[H])c(OC([H])([H])[H])c(OC([H])([H])[H])c2[H])nc(Oc2c([H])c([H])c(N([H])C(=O)N([H])c3c([H])c(C(C([H])([H])[H])(C([H])([H])[H])C([H])([H])[H])nn3-c3c([H])c([H])c(C([H])([H])[H])c([H])c3[H])c3c([H])c([H])c([H])c([H])c23)c1[H]


 53 58  0  0  0  0  0  0  0  0999 V2000
  -18.1080   14.2081  -22.4378 C   0  0  0  0  0  0  0  0  0  0  0  0
  -18.8343   14.5994  -21.2943 C   0  0  0  0  0  0  0  0  0  0  0  0
  -19.1251   15.9234  -21.0187 C   0  0  0  0  0  0  0  0  0  0  0  0
  -18.7242   16.9364  -21.8409 C   0  0  0  0  0  0  0  0  0  0  0  0
  -17.9985   16.5616  -22.9822 C   0  0  0  0  0  0  0  0  0  0  0  0
  -17.5617   17.5722  -23.8011 C   0  0  0  0  0  0  0  0  0  0  0  0
  -16.8082   17.2091  -24.9255 C   0  0  0  0  0  0  0  0  0  0  0  0
  -16.5013   15.9207  -25.2244 C   0  0  0  0  0  0  0  0  0  0  0  0
  -16.9469   14.9238  -24.3926 C   0  0  0  0  0  0  0  0  0  0  0  0
  -17.7018   15.2105  -23.2616 C   0  0  0  0  0  0  0  0  0  0  0  0
  -19.0533   18.2803  -21.6230 N   0  0  0  0  0  0  0  0  0  0  0  0
  -20.3594   18.7614  -21.3606 C   0  0  0  0  0  0  0  0  0  0  0  0
  -21.3266   18.0016  -21.2939 O   0  0  0  0  0  0  0  0  0  0  0  0
  -20.5902   20.1502  -21.1633 N   0  0  0  0  0  0  0  0  0  0  0  0
  -18.2974   19.0412  -21.6725 H   0  0  0  0  0  0  0  0  0  0  0  0
  -19.7536   20.7992  -21.2231 H   0  0  0  0  0  0  0  0  0  0  0  0
  -21.8469   20.7012  -20.8890 C   0  0  0  0  0  0  0  0  0  0  0  0
  -22.4773   20.8691  -19.6801 C   0  0  0  0  0  0  0  0  0  0  0  0
  -23.7100   21.4643  -19.9303 C   0  0  0  0  0  0  0  0  0  0  0  0
  -23.7850   21.6318  -21.2380 N   0  0  0  0  0  0  0  0  0  0  0  0
  -22.7092   21.1970  -21.8488 N   0  0  0  0  0  0  0  0  0  0  0  0
  -22.4419   21.2180  -23.2426 C   0  0  0  0  0  0  0  0  0  0  0  0
  -21.8304   22.3630  -23.7433 C   0  0  0  0  0  0  0  0  0  0  0  0
  -21.5651   22.3898  -25.0937 C   0  0  0  0  0  0  0  0  0  0  0  0
  -21.8906   21.3324  -25.9028 C   0  0  0  0  0  0  0  0  0  0  0  0
  -21.5877   21.3905  -27.3654 C   0  0  0  0  0  0  0  0  0  0  0  0
  -22.4980   20.1830  -25.4291 C   0  0  0  0  0  0  0  0  0  0  0  0
  -22.7680   20.1482  -24.0775 C   0  0  0  0  0  0  0  0  0  0  0  0
  -24.7144   21.8189  -18.8697 C   0  0  0  0  0  0  0  0  0  0  0  0
  -24.9288   23.3066  -18.9003 C   0  0  0  0  0  0  0  0  0  0  0  0
  -24.2270   21.4173  -17.5169 C   0  0  0  0  0  0  0  0  0  0  0  0
  -26.0298   21.0943  -19.1301 C   0  0  0  0  0  0  0  0  0  0  0  0
  -17.9127   12.8949  -22.5604 O   0  0  0  0  0  0  0  0  0  0  0  0
  -16.4750   10.5166  -20.1966 C   0  0  0  0  0  0  0  0  0  0  0  0
  -15.3085   10.2508  -20.7759 N   0  0  0  0  0  0  0  0  0  0  0  0
  -14.9873   10.8522  -21.9472 C   0  0  0  0  0  0  0  0  0  0  0  0
  -15.8344   11.7359  -22.5636 C   0  0  0  0  0  0  0  0  0  0  0  0
  -17.0935   12.0280  -21.9462 C   0  0  0  0  0  0  0  0  0  0  0  0
  -17.2858   11.3872  -20.8234 N   0  0  0  0  0  0  0  0  0  0  0  0
  -16.8750    9.9385  -18.9943 N   0  0  0  0  0  0  0  0  0  0  0  0
  -16.2371    9.1535  -18.6293 H   0  0  0  0  0  0  0  0  0  0  0  0
  -19.7783    9.8689  -16.6698 C   0  0  0  0  0  0  0  0  0  0  0  0
  -18.7043    9.4080  -17.4206 C   0  0  0  0  0  0  0  0  0  0  0  0
  -17.9873   10.2612  -18.2103 C   0  0  0  0  0  0  0  0  0  0  0  0
  -18.3825   11.6137  -18.2284 C   0  0  0  0  0  0  0  0  0  0  0  0
  -19.4365   12.0307  -17.4826 C   0  0  0  0  0  0  0  0  0  0  0  0
  -20.1697   11.1870  -16.6819 C   0  0  0  0  0  0  0  0  0  0  0  0
  -19.9705    7.7652  -15.5128 C   0  0  0  0  0  0  0  0  0  0  0  0
  -20.5092    9.0161  -15.8688 O   0  0  0  0  0  0  0  0  0  0  0  0
  -19.7981   13.3899  -17.5276 O   0  0  0  0  0  0  0  0  0  0  0  0
  -18.9431   14.3849  -17.0544 C   0  0  0  0  0  0  0  0  0  0  0  0
  -21.2245   11.7113  -15.9608 O   0  0  0  0  0  0  0  0  0  0  0  0
  -20.9388   12.0154  -14.5843 C   0  0  0  0  0  0  0  0  0  0  0  0
 48 49  1  0  0  0
 49 42  1  0  0  0
 42 43  2  0  0  0
 43 44  1  0  0  0
 44 40  1  0  0  0
 40 34  1  0  0  0
 34 35  2  0  0  0
 35 36  1  0  0  0
 36 37  2  0  0  0
 37 38  1  0  0  0
 38 33  1  0  0  0
 33  1  1  0  0  0
  1  2  2  0  0  0
  2  3  1  0  0  0
  3  4  2  0  0  0
  4 11  1  0  0  0
 11 12  1  0  0  0
 12 13  2  0  0  0
 12 14  1  0  0  0
 14 17  1  0  0  0
 17 18  2  0  0  0
 18 19  1  0  0  0
 19 20  2  0  0  0
 20 21  1  0  0  0
 21 22  1  0  0  0
 22 23  2  0  0  0
 23 24  1  0  0  0
 24 25  2  0  0  0
 25 26  1  0  0  0
 25 27  1  0  0  0
 27 28  2  0  0  0
 19 29  1  0  0  0
 29 30  1  0  0  0
 29 31  1  0  0  0
 29 32  1  0  0  0
  4  5  1  0  0  0
  5  6  2  0  0  0
  6  7  1  0  0  0
  7  8  2  0  0  0
  8  9  1  0  0  0
  9 10  2  0  0  0
 38 39  2  0  0  0
 44 45  2  0  0  0
 45 46  1  0  0  0
 46 50  1  0  0  0
 50 51  1  0  0  0
 46 47  2  0  0  0
 47 52  1  0  0  0
 52 53  1  0  0  0
 47 42  1  0  0  0
 39 34  1  0  0  0
 10  1  1  0  0  0
 21 17  1  0  0  0
 28 22  1  0  0  0
 10  5  1  0  0  0
 40 41  1  0  0  0
 11 15  1  0  0  0
 14 16  1  0  0  0
M  END
> <minimizedAffinity>
-9.36777

> <CNNscore>
0.3393981457

> <CNNaffinity>
7.7810468674

> <CNN_VS>
2.6408729553

> <CNNaffinity_variance>
0.0555998199

$$$$
[H]c1nc(N([H])c2c([H])c(OC([H])([H])[H])c(OC([H])([H])[H])c(OC([H])([H])[H])c2[H])nc(Oc2c([H])c([H])c(N([H])C(=O)N([H])c3c([H])c(C(C([H])([H])[H])(C([H])([H])[H])C([H])([H])[H])nn3-c3c([H])c([H])c(C([H])([H])[H])c([H])c3[H])c3c([H])c([H])c([H])c([H])c23)c1[H]


 53 58  0  0  0  0  0  0  0  0999 V2000
  -17.6596   14.0274  -22.4171 C   0  0  0  0  0  0  0  0  0  0  0  0
  -18.5792   14.6941  -21.5816 C   0  0  0  0  0  0  0  0  0  0  0  0
  -18.6593   16.0737  -21.5204 C   0  0  0  0  0  0  0  0  0  0  0  0
  -17.8486   16.8774  -22.2685 C   0  0  0  0  0  0  0  0  0  0  0  0
  -16.9268   16.2273  -23.1036 C   0  0  0  0  0  0  0  0  0  0  0  0
  -16.0838   17.0230  -23.8378 C   0  0  0  0  0  0  0  0  0  0  0  0
  -15.1382   16.3820  -24.6494 C   0  0  0  0  0  0  0  0  0  0  0  0
  -15.0293   15.0310  -24.7310 C   0  0  0  0  0  0  0  0  0  0  0  0
  -15.8814   14.2520  -23.9884 C   0  0  0  0  0  0  0  0  0  0  0  0
  -16.8456   14.8197  -23.1644 C   0  0  0  0  0  0  0  0  0  0  0  0
  -17.9446   18.2747  -22.2755 N   0  0  0  0  0  0  0  0  0  0  0  0
  -18.7748   19.0246  -23.1442 C   0  0  0  0  0  0  0  0  0  0  0  0
  -19.5017   18.4780  -23.9748 O   0  0  0  0  0  0  0  0  0  0  0  0
  -18.7920   20.4445  -23.0778 N   0  0  0  0  0  0  0  0  0  0  0  0
  -17.3462   18.8652  -21.6075 H   0  0  0  0  0  0  0  0  0  0  0  0
  -18.1631   20.9091  -22.3614 H   0  0  0  0  0  0  0  0  0  0  0  0
  -19.5915   21.2542  -23.8922 C   0  0  0  0  0  0  0  0  0  0  0  0
  -19.2544   21.9433  -25.0318 C   0  0  0  0  0  0  0  0  0  0  0  0
  -20.3978   22.5993  -25.4776 C   0  0  0  0  0  0  0  0  0  0  0  0
  -21.3583   22.2977  -24.6230 N   0  0  0  0  0  0  0  0  0  0  0  0
  -20.9322   21.5059  -23.6685 N   0  0  0  0  0  0  0  0  0  0  0  0
  -21.6840   20.9795  -22.5858 C   0  0  0  0  0  0  0  0  0  0  0  0
  -21.5382   21.6162  -21.3574 C   0  0  0  0  0  0  0  0  0  0  0  0
  -22.2664   21.1135  -20.3030 C   0  0  0  0  0  0  0  0  0  0  0  0
  -23.0965   20.0347  -20.4631 C   0  0  0  0  0  0  0  0  0  0  0  0
  -23.8761   19.5132  -19.2992 C   0  0  0  0  0  0  0  0  0  0  0  0
  -23.2594   19.3852  -21.6740 C   0  0  0  0  0  0  0  0  0  0  0  0
  -22.5329   19.8818  -22.7353 C   0  0  0  0  0  0  0  0  0  0  0  0
  -20.4568   23.4689  -26.7022 C   0  0  0  0  0  0  0  0  0  0  0  0
  -21.1214   24.7650  -26.3299 C   0  0  0  0  0  0  0  0  0  0  0  0
  -21.2371   22.8076  -27.7897 C   0  0  0  0  0  0  0  0  0  0  0  0
  -19.0500   23.7327  -27.2261 C   0  0  0  0  0  0  0  0  0  0  0  0
  -17.7094   12.6962  -22.3624 O   0  0  0  0  0  0  0  0  0  0  0  0
  -17.1109   10.5269  -19.4908 C   0  0  0  0  0  0  0  0  0  0  0  0
  -16.0019    9.8991  -19.8688 N   0  0  0  0  0  0  0  0  0  0  0  0
  -15.4438   10.1855  -21.0702 C   0  0  0  0  0  0  0  0  0  0  0  0
  -15.9904   11.1113  -21.9203 C   0  0  0  0  0  0  0  0  0  0  0  0
  -17.1854   11.7925  -21.5207 C   0  0  0  0  0  0  0  0  0  0  0  0
  -17.6248   11.4300  -20.3443 N   0  0  0  0  0  0  0  0  0  0  0  0
  -17.7418   10.2865  -18.2726 N   0  0  0  0  0  0  0  0  0  0  0  0
  -17.4541    9.3749  -17.7800 H   0  0  0  0  0  0  0  0  0  0  0  0
  -20.6973   11.5695  -16.4134 C   0  0  0  0  0  0  0  0  0  0  0  0
  -19.8603   10.6691  -17.0600 C   0  0  0  0  0  0  0  0  0  0  0  0
  -18.6847   11.0851  -17.6175 C   0  0  0  0  0  0  0  0  0  0  0  0
  -18.3643   12.4531  -17.5082 C   0  0  0  0  0  0  0  0  0  0  0  0
  -19.2046   13.3058  -16.8696 C   0  0  0  0  0  0  0  0  0  0  0  0
  -20.3914   12.9056  -16.3023 C   0  0  0  0  0  0  0  0  0  0  0  0
  -22.1095    9.7900  -15.6135 C   0  0  0  0  0  0  0  0  0  0  0  0
  -21.8866   11.1603  -15.8467 O   0  0  0  0  0  0  0  0  0  0  0  0
  -18.8471   14.6640  -16.7810 O   0  0  0  0  0  0  0  0  0  0  0  0
  -18.4734   15.3918  -17.9105 C   0  0  0  0  0  0  0  0  0  0  0  0
  -21.1756   13.8527  -15.6736 O   0  0  0  0  0  0  0  0  0  0  0  0
  -22.0152   14.6326  -16.5428 C   0  0  0  0  0  0  0  0  0  0  0  0
 48 49  1  0  0  0
 49 42  1  0  0  0
 42 43  2  0  0  0
 43 44  1  0  0  0
 44 40  1  0  0  0
 40 34  1  0  0  0
 34 35  2  0  0  0
 35 36  1  0  0  0
 36 37  2  0  0  0
 37 38  1  0  0  0
 38 33  1  0  0  0
 33  1  1  0  0  0
  1  2  2  0  0  0
  2  3  1  0  0  0
  3  4  2  0  0  0
  4 11  1  0  0  0
 11 12  1  0  0  0
 12 13  2  0  0  0
 12 14  1  0  0  0
 14 17  1  0  0  0
 17 18  2  0  0  0
 18 19  1  0  0  0
 19 20  2  0  0  0
 20 21  1  0  0  0
 21 22  1  0  0  0
 22 23  2  0  0  0
 23 24  1  0  0  0
 24 25  2  0  0  0
 25 26  1  0  0  0
 25 27  1  0  0  0
 27 28  2  0  0  0
 19 29  1  0  0  0
 29 30  1  0  0  0
 29 31  1  0  0  0
 29 32  1  0  0  0
  4  5  1  0  0  0
  5  6  2  0  0  0
  6  7  1  0  0  0
  7  8  2  0  0  0
  8  9  1  0  0  0
  9 10  2  0  0  0
 38 39  2  0  0  0
 44 45  2  0  0  0
 45 46  1  0  0  0
 46 50  1  0  0  0
 50 51  1  0  0  0
 46 47  2  0  0  0
 47 52  1  0  0  0
 52 53  1  0  0  0
 47 42  1  0  0  0
 39 34  1  0  0  0
 10  1  1  0  0  0
 21 17  1  0  0  0
 28 22  1  0  0  0
 10  5  1  0  0  0
 40 41  1  0  0  0
 11 15  1  0  0  0
 14 16  1  0  0  0
M  END
> <minimizedAffinity>
-9.27357

> <CNNscore>
0.2095734328

> <CNNaffinity>
7.7433304787

> <CNN_VS>
1.6227962971

> <CNNaffinity_variance>
0.1204172969

$$$$
[H]c1nc(N([H])c2c([H])c(OC([H])([H])[H])c(OC([H])([H])[H])c(OC([H])([H])[H])c2[H])nc(Oc2c([H])c([H])c(N([H])C(=O)N([H])c3c([H])c(C(C([H])([H])[H])(C([H])([H])[H])C([H])([H])[H])nn3-c3c([H])c([H])c(C([H])([H])[H])c([H])c3[H])c3c([H])c([H])c([H])c([H])c23)c1[H]


 53 58  0  0  0  0  0  0  0  0999 V2000
  -18.0628   13.2233  -20.0328 C   0  0  0  0  0  0  0  0  0  0  0  0
  -18.6023   14.2144  -19.1873 C   0  0  0  0  0  0  0  0  0  0  0  0
  -19.0086   15.4497  -19.6591 C   0  0  0  0  0  0  0  0  0  0  0  0
  -18.9108   15.7860  -20.9783 C   0  0  0  0  0  0  0  0  0  0  0  0
  -18.3736   14.8096  -21.8314 C   0  0  0  0  0  0  0  0  0  0  0  0
  -18.2401   15.1456  -23.1551 C   0  0  0  0  0  0  0  0  0  0  0  0
  -17.6741   14.1885  -24.0080 C   0  0  0  0  0  0  0  0  0  0  0  0
  -17.2615   12.9683  -23.5787 C   0  0  0  0  0  0  0  0  0  0  0  0
  -17.4030   12.6510  -22.2506 C   0  0  0  0  0  0  0  0  0  0  0  0
  -17.9588   13.5500  -21.3485 C   0  0  0  0  0  0  0  0  0  0  0  0
  -19.3680   17.0036  -21.4980 N   0  0  0  0  0  0  0  0  0  0  0  0
  -20.5403   17.6756  -21.0733 C   0  0  0  0  0  0  0  0  0  0  0  0
  -21.2565   17.2231  -20.1793 O   0  0  0  0  0  0  0  0  0  0  0  0
  -20.9241   18.9056  -21.6741 N   0  0  0  0  0  0  0  0  0  0  0  0
  -18.8371   17.4894  -22.2949 H   0  0  0  0  0  0  0  0  0  0  0  0
  -20.3038   19.2894  -22.4439 H   0  0  0  0  0  0  0  0  0  0  0  0
  -22.0595   19.6345  -21.3031 C   0  0  0  0  0  0  0  0  0  0  0  0
  -22.3700   20.2031  -20.0917 C   0  0  0  0  0  0  0  0  0  0  0  0
  -23.6093   20.8217  -20.2255 C   0  0  0  0  0  0  0  0  0  0  0  0
  -23.9972   20.6149  -21.4707 N   0  0  0  0  0  0  0  0  0  0  0  0
  -23.1161   19.9186  -22.1477 N   0  0  0  0  0  0  0  0  0  0  0  0
  -23.1975   19.5133  -23.5056 C   0  0  0  0  0  0  0  0  0  0  0  0
  -23.0300   20.5076  -24.4643 C   0  0  0  0  0  0  0  0  0  0  0  0
  -23.1045   20.1220  -25.7836 C   0  0  0  0  0  0  0  0  0  0  0  0
  -23.3329   18.8158  -26.1302 C   0  0  0  0  0  0  0  0  0  0  0  0
  -23.4064   18.4277  -27.5719 C   0  0  0  0  0  0  0  0  0  0  0  0
  -23.5018   17.8090  -25.1961 C   0  0  0  0  0  0  0  0  0  0  0  0
  -23.4294   18.1868  -23.8721 C   0  0  0  0  0  0  0  0  0  0  0  0
  -24.3134   21.5631  -19.1237 C   0  0  0  0  0  0  0  0  0  0  0  0
  -23.7880   22.9713  -19.0907 C   0  0  0  0  0  0  0  0  0  0  0  0
  -24.0693   20.9132  -17.8019 C   0  0  0  0  0  0  0  0  0  0  0  0
  -25.8168   21.5703  -19.3739 C   0  0  0  0  0  0  0  0  0  0  0  0
  -17.7216   12.0871  -19.4246 O   0  0  0  0  0  0  0  0  0  0  0  0
  -20.0058   10.8274  -16.8738 C   0  0  0  0  0  0  0  0  0  0  0  0
  -19.5135    9.6103  -16.6656 N   0  0  0  0  0  0  0  0  0  0  0  0
  -18.4272    9.1965  -17.3624 C   0  0  0  0  0  0  0  0  0  0  0  0
  -17.8109    9.9991  -18.2867 C   0  0  0  0  0  0  0  0  0  0  0  0
  -18.3349   11.3122  -18.5173 C   0  0  0  0  0  0  0  0  0  0  0  0
  -19.3810   11.5930  -17.7859 N   0  0  0  0  0  0  0  0  0  0  0  0
  -21.1177   11.3228  -16.1971 N   0  0  0  0  0  0  0  0  0  0  0  0
  -21.5376   12.2248  -16.6051 H   0  0  0  0  0  0  0  0  0  0  0  0
  -22.1205   10.3895  -12.7386 C   0  0  0  0  0  0  0  0  0  0  0  0
  -21.3828   10.9615  -13.7674 C   0  0  0  0  0  0  0  0  0  0  0  0
  -21.7510   10.7871  -15.0711 C   0  0  0  0  0  0  0  0  0  0  0  0
  -22.8993   10.0093  -15.3215 C   0  0  0  0  0  0  0  0  0  0  0  0
  -23.5971    9.4650  -14.2930 C   0  0  0  0  0  0  0  0  0  0  0  0
  -23.2421    9.6298  -12.9749 C   0  0  0  0  0  0  0  0  0  0  0  0
  -21.8166   11.8421  -10.8417 C   0  0  0  0  0  0  0  0  0  0  0  0
  -21.7579   10.5593  -11.4185 O   0  0  0  0  0  0  0  0  0  0  0  0
  -24.7388    8.6961  -14.5855 O   0  0  0  0  0  0  0  0  0  0  0  0
  -25.9035    9.2840  -15.0784 C   0  0  0  0  0  0  0  0  0  0  0  0
  -24.0204    9.0345  -12.0016 O   0  0  0  0  0  0  0  0  0  0  0  0
  -23.5898    7.7276  -11.5828 C   0  0  0  0  0  0  0  0  0  0  0  0
 48 49  1  0  0  0
 49 42  1  0  0  0
 42 43  2  0  0  0
 43 44  1  0  0  0
 44 40  1  0  0  0
 40 34  1  0  0  0
 34 35  2  0  0  0
 35 36  1  0  0  0
 36 37  2  0  0  0
 37 38  1  0  0  0
 38 33  1  0  0  0
 33  1  1  0  0  0
  1  2  2  0  0  0
  2  3  1  0  0  0
  3  4  2  0  0  0
  4 11  1  0  0  0
 11 12  1  0  0  0
 12 13  2  0  0  0
 12 14  1  0  0  0
 14 17  1  0  0  0
 17 18  2  0  0  0
 18 19  1  0  0  0
 19 20  2  0  0  0
 20 21  1  0  0  0
 21 22  1  0  0  0
 22 23  2  0  0  0
 23 24  1  0  0  0
 24 25  2  0  0  0
 25 26  1  0  0  0
 25 27  1  0  0  0
 27 28  2  0  0  0
 19 29  1  0  0  0
 29 30  1  0  0  0
 29 31  1  0  0  0
 29 32  1  0  0  0
  4  5  1  0  0  0
  5  6  2  0  0  0
  6  7  1  0  0  0
  7  8  2  0  0  0
  8  9  1  0  0  0
  9 10  2  0  0  0
 38 39  2  0  0  0
 44 45  2  0  0  0
 45 46  1  0  0  0
 46 50  1  0  0  0
 50 51  1  0  0  0
 46 47  2  0  0  0
 47 52  1  0  0  0
 52 53  1  0  0  0
 47 42  1  0  0  0
 39 34  1  0  0  0
 10  1  1  0  0  0
 21 17  1  0  0  0
 28 22  1  0  0  0
 10  5  1  0  0  0
 40 41  1  0  0  0
 11 15  1  0  0  0
 14 16  1  0  0  0
M  END
> <minimizedAffinity>
-8.90443

> <CNNscore>
0.0823840648

> <CNNaffinity>
7.0723648071

> <CNN_VS>
0.5826501846

> <CNNaffinity_variance>
0.1609050781

$$$$
[H]c1nc(N([H])c2c([H])c(OC([H])([H])[H])c(OC([H])([H])[H])c(OC([H])([H])[H])c2[H])nc(Oc2c([H])c([H])c(N([H])C(=O)N([H])c3c([H])c(C(C([H])([H])[H])(C([H])([H])[H])C([H])([H])[H])nn3-c3c([H])c([H])c(C([H])([H])[H])c([H])c3[H])c3c([H])c([H])c([H])c([H])c23)c1[H]


 53 58  0  0  0  0  0  0  0  0999 V2000
  -19.0121   10.8891  -17.4485 C   0  0  0  0  0  0  0  0  0  0  0  0
  -19.5739   12.0642  -16.9084 C   0  0  0  0  0  0  0  0  0  0  0  0
  -19.3532   13.3128  -17.4613 C   0  0  0  0  0  0  0  0  0  0  0  0
  -18.5737   13.4840  -18.5686 C   0  0  0  0  0  0  0  0  0  0  0  0
  -18.0063   12.3229  -19.1159 C   0  0  0  0  0  0  0  0  0  0  0  0
  -17.1946   12.4837  -20.2105 C   0  0  0  0  0  0  0  0  0  0  0  0
  -16.5975   11.3334  -20.7434 C   0  0  0  0  0  0  0  0  0  0  0  0
  -16.7892   10.0935  -20.2244 C   0  0  0  0  0  0  0  0  0  0  0  0
  -17.6043    9.9531  -19.1288 C   0  0  0  0  0  0  0  0  0  0  0  0
  -18.2317   11.0498  -18.5502 C   0  0  0  0  0  0  0  0  0  0  0  0
  -18.3791   14.7249  -19.1884 N   0  0  0  0  0  0  0  0  0  0  0  0
  -19.1310   15.2072  -20.2876 C   0  0  0  0  0  0  0  0  0  0  0  0
  -20.0459   14.5486  -20.7834 O   0  0  0  0  0  0  0  0  0  0  0  0
  -18.8466   16.4804  -20.8525 N   0  0  0  0  0  0  0  0  0  0  0  0
  -17.5987   15.3832  -18.8562 H   0  0  0  0  0  0  0  0  0  0  0  0
  -18.0569   17.0422  -20.4217 H   0  0  0  0  0  0  0  0  0  0  0  0
  -19.5500   17.0310  -21.9296 C   0  0  0  0  0  0  0  0  0  0  0  0
  -20.7463   17.7064  -21.9325 C   0  0  0  0  0  0  0  0  0  0  0  0
  -21.0266   18.0548  -23.2502 C   0  0  0  0  0  0  0  0  0  0  0  0
  -20.0260   17.5948  -23.9789 N   0  0  0  0  0  0  0  0  0  0  0  0
  -19.1283   16.9824  -23.2451 N   0  0  0  0  0  0  0  0  0  0  0  0
  -17.9263   16.3703  -23.6868 C   0  0  0  0  0  0  0  0  0  0  0  0
  -16.8419   17.2134  -23.9084 C   0  0  0  0  0  0  0  0  0  0  0  0
  -15.6716   16.6270  -24.3341 C   0  0  0  0  0  0  0  0  0  0  0  0
  -15.5850   15.2729  -24.5282 C   0  0  0  0  0  0  0  0  0  0  0  0
  -14.2994   14.6653  -24.9889 C   0  0  0  0  0  0  0  0  0  0  0  0
  -16.6483   14.4137  -24.3140 C   0  0  0  0  0  0  0  0  0  0  0  0
  -17.8247   14.9930  -23.8882 C   0  0  0  0  0  0  0  0  0  0  0  0
  -22.2514   18.8078  -23.6888 C   0  0  0  0  0  0  0  0  0  0  0  0
  -23.0805   17.8991  -24.5532 C   0  0  0  0  0  0  0  0  0  0  0  0
  -21.8790   20.0263  -24.4671 C   0  0  0  0  0  0  0  0  0  0  0  0
  -23.0562   19.2534  -22.4736 C   0  0  0  0  0  0  0  0  0  0  0  0
  -19.3221    9.7658  -16.8007 O   0  0  0  0  0  0  0  0  0  0  0  0
  -19.6903    9.1970  -13.2158 C   0  0  0  0  0  0  0  0  0  0  0  0
  -21.0012    8.9987  -13.1197 N   0  0  0  0  0  0  0  0  0  0  0  0
  -21.7721    9.0504  -14.2332 C   0  0  0  0  0  0  0  0  0  0  0  0
  -21.2406    9.3040  -15.4708 C   0  0  0  0  0  0  0  0  0  0  0  0
  -19.8288    9.5189  -15.5833 C   0  0  0  0  0  0  0  0  0  0  0  0
  -19.1964    9.4434  -14.4420 N   0  0  0  0  0  0  0  0  0  0  0  0
  -18.8342    9.1595  -12.1178 N   0  0  0  0  0  0  0  0  0  0  0  0
  -18.5840   10.1179  -11.6995 H   0  0  0  0  0  0  0  0  0  0  0  0
  -17.8842    5.7058  -11.1141 C   0  0  0  0  0  0  0  0  0  0  0  0
  -18.5294    6.7286  -11.7977 C   0  0  0  0  0  0  0  0  0  0  0  0
  -18.2776    8.0369  -11.4965 C   0  0  0  0  0  0  0  0  0  0  0  0
  -17.3450    8.2981  -10.4727 C   0  0  0  0  0  0  0  0  0  0  0  0
  -16.7326    7.2752   -9.8250 C   0  0  0  0  0  0  0  0  0  0  0  0
  -16.9729    5.9527  -10.1144 C   0  0  0  0  0  0  0  0  0  0  0  0
  -19.3181    3.7773  -10.9551 C   0  0  0  0  0  0  0  0  0  0  0  0
  -18.1308    4.3812  -11.4102 O   0  0  0  0  0  0  0  0  0  0  0  0
  -15.8067    7.5786   -8.8097 O   0  0  0  0  0  0  0  0  0  0  0  0
  -16.1534    8.3895   -7.7293 C   0  0  0  0  0  0  0  0  0  0  0  0
  -16.2963    4.9859   -9.3969 O   0  0  0  0  0  0  0  0  0  0  0  0
  -16.9349    4.5624   -8.1797 C   0  0  0  0  0  0  0  0  0  0  0  0
 48 49  1  0  0  0
 49 42  1  0  0  0
 42 43  2  0  0  0
 43 44  1  0  0  0
 44 40  1  0  0  0
 40 34  1  0  0  0
 34 35  2  0  0  0
 35 36  1  0  0  0
 36 37  2  0  0  0
 37 38  1  0  0  0
 38 33  1  0  0  0
 33  1  1  0  0  0
  1  2  2  0  0  0
  2  3  1  0  0  0
  3  4  2  0  0  0
  4 11  1  0  0  0
 11 12  1  0  0  0
 12 13  2  0  0  0
 12 14  1  0  0  0
 14 17  1  0  0  0
 17 18  2  0  0  0
 18 19  1  0  0  0
 19 20  2  0  0  0
 20 21  1  0  0  0
 21 22  1  0  0  0
 22 23  2  0  0  0
 23 24  1  0  0  0
 24 25  2  0  0  0
 25 26  1  0  0  0
 25 27  1  0  0  0
 27 28  2  0  0  0
 19 29  1  0  0  0
 29 30  1  0  0  0
 29 31  1  0  0  0
 29 32  1  0  0  0
  4  5  1  0  0  0
  5  6  2  0  0  0
  6  7  1  0  0  0
  7  8  2  0  0  0
  8  9  1  0  0  0
  9 10  2  0  0  0
 38 39  2  0  0  0
 44 45  2  0  0  0
 45 46  1  0  0  0
 46 50  1  0  0  0
 50 51  1  0  0  0
 46 47  2  0  0  0
 47 52  1  0  0  0
 52 53  1  0  0  0
 47 42  1  0  0  0
 39 34  1  0  0  0
 10  1  1  0  0  0
 21 17  1  0  0  0
 28 22  1  0  0  0
 10  5  1  0  0  0
 40 41  1  0  0  0
 11 15  1  0  0  0
 14 16  1  0  0  0
M  END
> <minimizedAffinity>
-10.10652

> <CNNscore>
0.0625281408

> <CNNaffinity>
6.9279608727

> <CNN_VS>
0.4331925213

> <CNNaffinity_variance>
0.1650231779

$$$$
[H]c1nc(N([H])c2c([H])c(OC([H])([H])[H])c(OC([H])([H])[H])c(OC([H])([H])[H])c2[H])nc(Oc2c([H])c([H])c(N([H])C(=O)N([H])c3c([H])c(C(C([H])([H])[H])(C([H])([H])[H])C([H])([H])[H])nn3-c3c([H])c([H])c(C([H])([H])[H])c([H])c3[H])c3c([H])c([H])c([H])c([H])c23)c1[H]


 53 58  0  0  0  0  0  0  0  0999 V2000
  -19.0229   10.9093  -17.4080 C   0  0  0  0  0  0  0  0  0  0  0  0
  -19.5810   12.0955  -16.8887 C   0  0  0  0  0  0  0  0  0  0  0  0
  -19.3564   13.3335  -17.4637 C   0  0  0  0  0  0  0  0  0  0  0  0
  -18.5766   13.4826  -18.5739 C   0  0  0  0  0  0  0  0  0  0  0  0
  -18.0129   12.3102  -19.1006 C   0  0  0  0  0  0  0  0  0  0  0  0
  -17.2009   12.4491  -20.1980 C   0  0  0  0  0  0  0  0  0  0  0  0
  -16.6076   11.2877  -20.7106 C   0  0  0  0  0  0  0  0  0  0  0  0
  -16.8031   10.0578  -20.1698 C   0  0  0  0  0  0  0  0  0  0  0  0
  -17.6184    9.9393  -19.0718 C   0  0  0  0  0  0  0  0  0  0  0  0
  -18.2422   11.0480  -18.5125 C   0  0  0  0  0  0  0  0  0  0  0  0
  -18.3781   14.7117  -19.2155 N   0  0  0  0  0  0  0  0  0  0  0  0
  -19.1600   15.1984  -20.2917 C   0  0  0  0  0  0  0  0  0  0  0  0
  -20.1072   14.5548  -20.7450 O   0  0  0  0  0  0  0  0  0  0  0  0
  -18.8691   16.4584  -20.8822 N   0  0  0  0  0  0  0  0  0  0  0  0
  -17.5715   15.3561  -18.9207 H   0  0  0  0  0  0  0  0  0  0  0  0
  -18.0517   17.0071  -20.4880 H   0  0  0  0  0  0  0  0  0  0  0  0
  -19.6002   17.0124  -21.9389 C   0  0  0  0  0  0  0  0  0  0  0  0
  -20.8048   17.6721  -21.9108 C   0  0  0  0  0  0  0  0  0  0  0  0
  -21.1151   18.0323  -23.2186 C   0  0  0  0  0  0  0  0  0  0  0  0
  -20.1230   17.5940  -23.9718 N   0  0  0  0  0  0  0  0  0  0  0  0
  -19.2035   16.9847  -23.2627 N   0  0  0  0  0  0  0  0  0  0  0  0
  -18.0026   16.3935  -23.7348 C   0  0  0  0  0  0  0  0  0  0  0  0
  -16.9006   17.2337  -23.8589 C   0  0  0  0  0  0  0  0  0  0  0  0
  -15.7312   16.6672  -24.3133 C   0  0  0  0  0  0  0  0  0  0  0  0
  -15.6622   15.3346  -24.6267 C   0  0  0  0  0  0  0  0  0  0  0  0
  -14.3772   14.7481  -25.1157 C   0  0  0  0  0  0  0  0  0  0  0  0
  -16.7432   14.4786  -24.5110 C   0  0  0  0  0  0  0  0  0  0  0  0
  -17.9188   15.0382  -24.0573 C   0  0  0  0  0  0  0  0  0  0  0  0
  -22.3576   18.7744  -23.6246 C   0  0  0  0  0  0  0  0  0  0  0  0
  -21.9796   20.1969  -23.9311 C   0  0  0  0  0  0  0  0  0  0  0  0
  -23.3718   18.7574  -22.5291 C   0  0  0  0  0  0  0  0  0  0  0  0
  -22.9807   18.1213  -24.8527 C   0  0  0  0  0  0  0  0  0  0  0  0
  -19.3364    9.7986  -16.7405 O   0  0  0  0  0  0  0  0  0  0  0  0
  -20.0132    9.3787  -13.1801 C   0  0  0  0  0  0  0  0  0  0  0  0
  -21.3111    9.0921  -13.1967 N   0  0  0  0  0  0  0  0  0  0  0  0
  -21.9717    9.0348  -14.3787 C   0  0  0  0  0  0  0  0  0  0  0  0
  -21.3402    9.2656  -15.5730 C   0  0  0  0  0  0  0  0  0  0  0  0
  -19.9416    9.5752  -15.5643 C   0  0  0  0  0  0  0  0  0  0  0  0
  -19.4197    9.6003  -14.3662 N   0  0  0  0  0  0  0  0  0  0  0  0
  -19.2675    9.4556  -12.0063 N   0  0  0  0  0  0  0  0  0  0  0  0
  -19.3066   10.4036  -11.5003 H   0  0  0  0  0  0  0  0  0  0  0  0
  -16.8704    7.5346   -9.9084 C   0  0  0  0  0  0  0  0  0  0  0  0
  -17.5532    8.6246  -10.4330 C   0  0  0  0  0  0  0  0  0  0  0  0
  -18.4927    8.4555  -11.4100 C   0  0  0  0  0  0  0  0  0  0  0  0
  -18.7342    7.1406  -11.8560 C   0  0  0  0  0  0  0  0  0  0  0  0
  -18.0493    6.0982  -11.3219 C   0  0  0  0  0  0  0  0  0  0  0  0
  -17.1007    6.2488  -10.3380 C   0  0  0  0  0  0  0  0  0  0  0  0
  -16.2935    8.2399   -7.6789 C   0  0  0  0  0  0  0  0  0  0  0  0
  -15.9198    7.6938   -8.9214 O   0  0  0  0  0  0  0  0  0  0  0  0
  -18.3211    4.8007  -11.7939 O   0  0  0  0  0  0  0  0  0  0  0  0
  -19.0673    4.5911  -12.9533 C   0  0  0  0  0  0  0  0  0  0  0  0
  -16.4600    5.1225   -9.8600 O   0  0  0  0  0  0  0  0  0  0  0  0
  -17.0229    4.5545   -8.6645 C   0  0  0  0  0  0  0  0  0  0  0  0
 48 49  1  0  0  0
 49 42  1  0  0  0
 42 43  2  0  0  0
 43 44  1  0  0  0
 44 40  1  0  0  0
 40 34  1  0  0  0
 34 35  2  0  0  0
 35 36  1  0  0  0
 36 37  2  0  0  0
 37 38  1  0  0  0
 38 33  1  0  0  0
 33  1  1  0  0  0
  1  2  2  0  0  0
  2  3  1  0  0  0
  3  4  2  0  0  0
  4 11  1  0  0  0
 11 12  1  0  0  0
 12 13  2  0  0  0
 12 14  1  0  0  0
 14 17  1  0  0  0
 17 18  2  0  0  0
 18 19  1  0  0  0
 19 20  2  0  0  0
 20 21  1  0  0  0
 21 22  1  0  0  0
 22 23  2  0  0  0
 23 24  1  0  0  0
 24 25  2  0  0  0
 25 26  1  0  0  0
 25 27  1  0  0  0
 27 28  2  0  0  0
 19 29  1  0  0  0
 29 30  1  0  0  0
 29 31  1  0  0  0
 29 32  1  0  0  0
  4  5  1  0  0  0
  5  6  2  0  0  0
  6  7  1  0  0  0
  7  8  2  0  0  0
  8  9  1  0  0  0
  9 10  2  0  0  0
 38 39  2  0  0  0
 44 45  2  0  0  0
 45 46  1  0  0  0
 46 50  1  0  0  0
 50 51  1  0  0  0
 46 47  2  0  0  0
 47 52  1  0  0  0
 52 53  1  0  0  0
 47 42  1  0  0  0
 39 34  1  0  0  0
 10  1  1  0  0  0
 21 17  1  0  0  0
 28 22  1  0  0  0
 10  5  1  0  0  0
 40 41  1  0  0  0
 11 15  1  0  0  0
 14 16  1  0  0  0
M  END
> <minimizedAffinity>
-10.04434

> <CNNscore>
0.0590401702

> <CNNaffinity>
6.9075822830

> <CNN_VS>
0.4078248441

> <CNNaffinity_variance>
0.2383114994

$$$$
[H]c1nc(N([H])c2c([H])c(OC([H])([H])[H])c(OC([H])([H])[H])c(OC([H])([H])[H])c2[H])nc(Oc2c([H])c([H])c(N([H])C(=O)N([H])c3c([H])c(C(C([H])([H])[H])(C([H])([H])[H])C([H])([H])[H])nn3-c3c([H])c([H])c(C([H])([H])[H])c([H])c3[H])c3c([H])c([H])c([H])c([H])c23)c1[H]


 53 58  0  0  0  0  0  0  0  0999 V2000
  -18.7542   10.8637  -17.6174 C   0  0  0  0  0  0  0  0  0  0  0  0
  -19.2869   12.0138  -16.9995 C   0  0  0  0  0  0  0  0  0  0  0  0
  -19.1386   13.2797  -17.5372 C   0  0  0  0  0  0  0  0  0  0  0  0
  -18.4638   13.4933  -18.7043 C   0  0  0  0  0  0  0  0  0  0  0  0
  -17.9264   12.3575  -19.3294 C   0  0  0  0  0  0  0  0  0  0  0  0
  -17.2182   12.5613  -20.4869 C   0  0  0  0  0  0  0  0  0  0  0  0
  -16.6502   11.4365  -21.1002 C   0  0  0  0  0  0  0  0  0  0  0  0
  -16.7727   10.1808  -20.5986 C   0  0  0  0  0  0  0  0  0  0  0  0
  -17.4846    9.9974  -19.4393 C   0  0  0  0  0  0  0  0  0  0  0  0
  -18.0777   11.0668  -18.7792 C   0  0  0  0  0  0  0  0  0  0  0  0
  -18.3473   14.7526  -19.3064 N   0  0  0  0  0  0  0  0  0  0  0  0
  -19.2400   15.2716  -20.2759 C   0  0  0  0  0  0  0  0  0  0  0  0
  -20.2195   14.6317  -20.6608 O   0  0  0  0  0  0  0  0  0  0  0  0
  -19.0269   16.5612  -20.8351 N   0  0  0  0  0  0  0  0  0  0  0  0
  -17.5237   15.3977  -19.0650 H   0  0  0  0  0  0  0  0  0  0  0  0
  -18.1812   17.1066  -20.5004 H   0  0  0  0  0  0  0  0  0  0  0  0
  -19.8680   17.1475  -21.7873 C   0  0  0  0  0  0  0  0  0  0  0  0
  -21.0884   17.7537  -21.6134 C   0  0  0  0  0  0  0  0  0  0  0  0
  -21.5258   18.1797  -22.8639 C   0  0  0  0  0  0  0  0  0  0  0  0
  -20.5890   17.8296  -23.7262 N   0  0  0  0  0  0  0  0  0  0  0  0
  -19.5891   17.2170  -23.1394 N   0  0  0  0  0  0  0  0  0  0  0  0
  -18.4140   16.7060  -23.7499 C   0  0  0  0  0  0  0  0  0  0  0  0
  -18.4459   15.3725  -24.1453 C   0  0  0  0  0  0  0  0  0  0  0  0
  -17.3112   14.8702  -24.7409 C   0  0  0  0  0  0  0  0  0  0  0  0
  -16.2035   15.6542  -24.9336 C   0  0  0  0  0  0  0  0  0  0  0  0
  -14.9868   15.0805  -25.5854 C   0  0  0  0  0  0  0  0  0  0  0  0
  -16.1473   16.9826  -24.5502 C   0  0  0  0  0  0  0  0  0  0  0  0
  -17.2796   17.4934  -23.9520 C   0  0  0  0  0  0  0  0  0  0  0  0
  -22.8254   18.8928  -23.1131 C   0  0  0  0  0  0  0  0  0  0  0  0
  -23.6386   18.0711  -24.0741 C   0  0  0  0  0  0  0  0  0  0  0  0
  -22.5884   20.2462  -23.6973 C   0  0  0  0  0  0  0  0  0  0  0  0
  -23.5846   19.0720  -21.8037 C   0  0  0  0  0  0  0  0  0  0  0  0
  -18.9851    9.7191  -16.9741 O   0  0  0  0  0  0  0  0  0  0  0  0
  -20.4346    8.1802  -14.0007 C   0  0  0  0  0  0  0  0  0  0  0  0
  -21.6315    8.7577  -13.9692 N   0  0  0  0  0  0  0  0  0  0  0  0
  -21.9694    9.6564  -14.9257 C   0  0  0  0  0  0  0  0  0  0  0  0
  -21.1089    9.9956  -15.9371 C   0  0  0  0  0  0  0  0  0  0  0  0
  -19.8171    9.3779  -15.9786 C   0  0  0  0  0  0  0  0  0  0  0  0
  -19.6113    8.5315  -15.0041 N   0  0  0  0  0  0  0  0  0  0  0  0
  -20.0160    7.2483  -13.0540 N   0  0  0  0  0  0  0  0  0  0  0  0
  -20.4976    6.2886  -13.1122 H   0  0  0  0  0  0  0  0  0  0  0  0
  -17.2262    6.7674  -10.6408 C   0  0  0  0  0  0  0  0  0  0  0  0
  -18.1561    6.4664  -11.6279 C   0  0  0  0  0  0  0  0  0  0  0  0
  -19.0484    7.4074  -12.0568 C   0  0  0  0  0  0  0  0  0  0  0  0
  -18.9834    8.6819  -11.4588 C   0  0  0  0  0  0  0  0  0  0  0  0
  -18.0625    8.9425  -10.4971 C   0  0  0  0  0  0  0  0  0  0  0  0
  -17.1564    8.0086  -10.0530 C   0  0  0  0  0  0  0  0  0  0  0  0
  -16.7644    4.7564   -9.3986 C   0  0  0  0  0  0  0  0  0  0  0  0
  -16.3204    5.8249  -10.2004 O   0  0  0  0  0  0  0  0  0  0  0  0
  -18.0297   10.2283   -9.9262 O   0  0  0  0  0  0  0  0  0  0  0  0
  -19.2017   10.8939   -9.5679 C   0  0  0  0  0  0  0  0  0  0  0  0
  -16.2585    8.3747   -9.0695 O   0  0  0  0  0  0  0  0  0  0  0  0
  -16.6915    8.1332   -7.7194 C   0  0  0  0  0  0  0  0  0  0  0  0
 48 49  1  0  0  0
 49 42  1  0  0  0
 42 43  2  0  0  0
 43 44  1  0  0  0
 44 40  1  0  0  0
 40 34  1  0  0  0
 34 35  2  0  0  0
 35 36  1  0  0  0
 36 37  2  0  0  0
 37 38  1  0  0  0
 38 33  1  0  0  0
 33  1  1  0  0  0
  1  2  2  0  0  0
  2  3  1  0  0  0
  3  4  2  0  0  0
  4 11  1  0  0  0
 11 12  1  0  0  0
 12 13  2  0  0  0
 12 14  1  0  0  0
 14 17  1  0  0  0
 17 18  2  0  0  0
 18 19  1  0  0  0
 19 20  2  0  0  0
 20 21  1  0  0  0
 21 22  1  0  0  0
 22 23  2  0  0  0
 23 24  1  0  0  0
 24 25  2  0  0  0
 25 26  1  0  0  0
 25 27  1  0  0  0
 27 28  2  0  0  0
 19 29  1  0  0  0
 29 30  1  0  0  0
 29 31  1  0  0  0
 29 32  1  0  0  0
  4  5  1  0  0  0
  5  6  2  0  0  0
  6  7  1  0  0  0
  7  8  2  0  0  0
  8  9  1  0  0  0
  9 10  2  0  0  0
 38 39  2  0  0  0
 44 45  2  0  0  0
 45 46  1  0  0  0
 46 50  1  0  0  0
 50 51  1  0  0  0
 46 47  2  0  0  0
 47 52  1  0  0  0
 52 53  1  0  0  0
 47 42  1  0  0  0
 39 34  1  0  0  0
 10  1  1  0  0  0
 21 17  1  0  0  0
 28 22  1  0  0  0
 10  5  1  0  0  0
 40 41  1  0  0  0
 11 15  1  0  0  0
 14 16  1  0  0  0
M  END
> <minimizedAffinity>
-10.24966

> <CNNscore>
0.0555380508

> <CNNaffinity>
6.8943037987

> <CNN_VS>
0.3828961849

> <CNNaffinity_variance>
0.2826257050

$$$$
[H]c1nc(N([H])c2c([H])c(OC([H])([H])[H])c(OC([H])([H])[H])c(OC([H])([H])[H])c2[H])nc(Oc2c([H])c([H])c(N([H])C(=O)N([H])c3c([H])c(C(C([H])([H])[H])(C([H])([H])[H])C([H])([H])[H])nn3-c3c([H])c([H])c(C([H])([H])[H])c([H])c3[H])c3c([H])c([H])c([H])c([H])c23)c1[H]


 53 58  0  0  0  0  0  0  0  0999 V2000
  -17.9146   11.8030  -18.7128 C   0  0  0  0  0  0  0  0  0  0  0  0
  -17.5792   10.4352  -18.6423 C   0  0  0  0  0  0  0  0  0  0  0  0
  -18.2621    9.5458  -17.8324 C   0  0  0  0  0  0  0  0  0  0  0  0
  -19.3072    9.9403  -17.0481 C   0  0  0  0  0  0  0  0  0  0  0  0
  -19.6509   11.2997  -17.1067 C   0  0  0  0  0  0  0  0  0  0  0  0
  -20.6792   11.7166  -16.2995 C   0  0  0  0  0  0  0  0  0  0  0  0
  -21.0075   13.0787  -16.3273 C   0  0  0  0  0  0  0  0  0  0  0  0
  -20.3565   13.9797  -17.1070 C   0  0  0  0  0  0  0  0  0  0  0  0
  -19.3301   13.5433  -17.9072 C   0  0  0  0  0  0  0  0  0  0  0  0
  -18.9527   12.2062  -17.9328 C   0  0  0  0  0  0  0  0  0  0  0  0
  -20.0576    9.0553  -16.2635 N   0  0  0  0  0  0  0  0  0  0  0  0
  -19.6803    8.5936  -14.9787 C   0  0  0  0  0  0  0  0  0  0  0  0
  -18.6344    8.9605  -14.4416 O   0  0  0  0  0  0  0  0  0  0  0  0
  -20.5102    7.6852  -14.2666 N   0  0  0  0  0  0  0  0  0  0  0  0
  -20.9821    8.6516  -16.6309 H   0  0  0  0  0  0  0  0  0  0  0  0
  -21.4088    7.3723  -14.7349 H   0  0  0  0  0  0  0  0  0  0  0  0
  -20.2133    7.1928  -12.9909 C   0  0  0  0  0  0  0  0  0  0  0  0
  -19.5953    6.0188  -12.6342 C   0  0  0  0  0  0  0  0  0  0  0  0
  -19.5297    5.9861  -11.2446 C   0  0  0  0  0  0  0  0  0  0  0  0
  -20.0912    7.1026  -10.8180 N   0  0  0  0  0  0  0  0  0  0  0  0
  -20.5109    7.8489  -11.8112 N   0  0  0  0  0  0  0  0  0  0  0  0
  -21.1562    9.1103  -11.7281 C   0  0  0  0  0  0  0  0  0  0  0  0
  -20.3324   10.2269  -11.6260 C   0  0  0  0  0  0  0  0  0  0  0  0
  -20.9507   11.4543  -11.5480 C   0  0  0  0  0  0  0  0  0  0  0  0
  -22.3167   11.5644  -11.5713 C   0  0  0  0  0  0  0  0  0  0  0  0
  -22.9587   12.9117  -11.4871 C   0  0  0  0  0  0  0  0  0  0  0  0
  -23.1572   10.4699  -11.6730 C   0  0  0  0  0  0  0  0  0  0  0  0
  -22.5460    9.2365  -11.7508 C   0  0  0  0  0  0  0  0  0  0  0  0
  -18.9246    4.8644  -10.4478 C   0  0  0  0  0  0  0  0  0  0  0  0
  -19.8039    3.6536  -10.5930 C   0  0  0  0  0  0  0  0  0  0  0  0
  -18.8214    5.2301   -9.0040 C   0  0  0  0  0  0  0  0  0  0  0  0
  -17.5213    4.5571  -10.9568 C   0  0  0  0  0  0  0  0  0  0  0  0
  -17.1616   12.5268  -19.5414 O   0  0  0  0  0  0  0  0  0  0  0  0
  -18.0452   15.1463  -21.9221 C   0  0  0  0  0  0  0  0  0  0  0  0
  -17.9546   14.4890  -23.0739 N   0  0  0  0  0  0  0  0  0  0  0  0
  -17.6027   13.1801  -23.0748 C   0  0  0  0  0  0  0  0  0  0  0  0
  -17.3329   12.5021  -21.9147 C   0  0  0  0  0  0  0  0  0  0  0  0
  -17.4282   13.2029  -20.6691 C   0  0  0  0  0  0  0  0  0  0  0  0
  -17.7753   14.4562  -20.8001 N   0  0  0  0  0  0  0  0  0  0  0  0
  -18.4006   16.4906  -21.8410 N   0  0  0  0  0  0  0  0  0  0  0  0
  -17.5919   17.1657  -21.6255 H   0  0  0  0  0  0  0  0  0  0  0  0
  -21.4091   18.2318  -23.1657 C   0  0  0  0  0  0  0  0  0  0  0  0
  -20.1120   17.7372  -23.1143 C   0  0  0  0  0  0  0  0  0  0  0  0
  -19.6661   17.0599  -22.0152 C   0  0  0  0  0  0  0  0  0  0  0  0
  -20.5712   16.8883  -20.9487 C   0  0  0  0  0  0  0  0  0  0  0  0
  -21.8314   17.3842  -21.0316 C   0  0  0  0  0  0  0  0  0  0  0  0
  -22.2980   18.0681  -22.1294 C   0  0  0  0  0  0  0  0  0  0  0  0
  -21.4848   20.2568  -24.4674 C   0  0  0  0  0  0  0  0  0  0  0  0
  -21.8699   18.9171  -24.2707 O   0  0  0  0  0  0  0  0  0  0  0  0
  -22.7048   17.1902  -19.9454 O   0  0  0  0  0  0  0  0  0  0  0  0
  -22.2314   16.7947  -18.6946 C   0  0  0  0  0  0  0  0  0  0  0  0
  -23.5988   18.5319  -22.1150 O   0  0  0  0  0  0  0  0  0  0  0  0
  -23.7792   19.8426  -21.5507 C   0  0  0  0  0  0  0  0  0  0  0  0
 48 49  1  0  0  0
 49 42  1  0  0  0
 42 43  2  0  0  0
 43 44  1  0  0  0
 44 40  1  0  0  0
 40 34  1  0  0  0
 34 35  2  0  0  0
 35 36  1  0  0  0
 36 37  2  0  0  0
 37 38  1  0  0  0
 38 33  1  0  0  0
 33  1  1  0  0  0
  1  2  2  0  0  0
  2  3  1  0  0  0
  3  4  2  0  0  0
  4 11  1  0  0  0
 11 12  1  0  0  0
 12 13  2  0  0  0
 12 14  1  0  0  0
 14 17  1  0  0  0
 17 18  2  0  0  0
 18 19  1  0  0  0
 19 20  2  0  0  0
 20 21  1  0  0  0
 21 22  1  0  0  0
 22 23  2  0  0  0
 23 24  1  0  0  0
 24 25  2  0  0  0
 25 26  1  0  0  0
 25 27  1  0  0  0
 27 28  2  0  0  0
 19 29  1  0  0  0
 29 30  1  0  0  0
 29 31  1  0  0  0
 29 32  1  0  0  0
  4  5  1  0  0  0
  5  6  2  0  0  0
  6  7  1  0  0  0
  7  8  2  0  0  0
  8  9  1  0  0  0
  9 10  2  0  0  0
 38 39  2  0  0  0
 44 45  2  0  0  0
 45 46  1  0  0  0
 46 50  1  0  0  0
 50 51  1  0  0  0
 46 47  2  0  0  0
 47 52  1  0  0  0
 52 53  1  0  0  0
 47 42  1  0  0  0
 39 34  1  0  0  0
 10  1  1  0  0  0
 21 17  1  0  0  0
 28 22  1  0  0  0
 10  5  1  0  0  0
 40 41  1  0  0  0
 11 15  1  0  0  0
 14 16  1  0  0  0
M  END
> <minimizedAffinity>
-8.19934

> <CNNscore>
0.0481473580

> <CNNaffinity>
6.6826643944

> <CNN_VS>
0.3217526376

> <CNNaffinity_variance>
0.3948099613

$$$$
[H]c1nc(N([H])c2c([H])c(OC([H])([H])[H])c(OC([H])([H])[H])c(OC([H])([H])[H])c2[H])nc(Oc2c([H])c([H])c(N([H])C(=O)N([H])c3c([H])c(C(C([H])([H])[H])(C([H])([H])[H])C([H])([H])[H])nn3-c3c([H])c([H])c(C([H])([H])[H])c([H])c3[H])c3c([H])c([H])c([H])c([H])c23)c1[H]


 53 58  0  0  0  0  0  0  0  0999 V2000
  -22.1467   20.0654  -18.1276 C   0  0  0  0  0  0  0  0  0  0  0  0
  -20.9931   20.2996  -18.9038 C   0  0  0  0  0  0  0  0  0  0  0  0
  -19.9796   19.3661  -19.0250 C   0  0  0  0  0  0  0  0  0  0  0  0
  -20.0347   18.1556  -18.3968 C   0  0  0  0  0  0  0  0  0  0  0  0
  -21.1766   17.9095  -17.6189 C   0  0  0  0  0  0  0  0  0  0  0  0
  -21.2309   16.7092  -16.9561 C   0  0  0  0  0  0  0  0  0  0  0  0
  -22.3523   16.4689  -16.1509 C   0  0  0  0  0  0  0  0  0  0  0  0
  -23.3633   17.3635  -16.0063 C   0  0  0  0  0  0  0  0  0  0  0  0
  -23.2906   18.5589  -16.6771 C   0  0  0  0  0  0  0  0  0  0  0  0
  -22.2095   18.8632  -17.4956 C   0  0  0  0  0  0  0  0  0  0  0  0
  -19.0555   17.1654  -18.5467 N   0  0  0  0  0  0  0  0  0  0  0  0
  -18.6780   16.5807  -19.7803 C   0  0  0  0  0  0  0  0  0  0  0  0
  -19.1971   16.9233  -20.8434 O   0  0  0  0  0  0  0  0  0  0  0  0
  -17.6769   15.5723  -19.8239 N   0  0  0  0  0  0  0  0  0  0  0  0
  -18.5429   16.7720  -17.6892 H   0  0  0  0  0  0  0  0  0  0  0  0
  -17.2346   15.2811  -18.9051 H   0  0  0  0  0  0  0  0  0  0  0  0
  -17.2415   14.9554  -21.0020 C   0  0  0  0  0  0  0  0  0  0  0  0
  -16.7810   15.5264  -22.1634 C   0  0  0  0  0  0  0  0  0  0  0  0
  -16.4693   14.4935  -23.0423 C   0  0  0  0  0  0  0  0  0  0  0  0
  -16.7421   13.3681  -22.4075 N   0  0  0  0  0  0  0  0  0  0  0  0
  -17.2008   13.5878  -21.1989 N   0  0  0  0  0  0  0  0  0  0  0  0
  -17.5925   12.6203  -20.2370 C   0  0  0  0  0  0  0  0  0  0  0  0
  -16.8464   11.4468  -20.1932 C   0  0  0  0  0  0  0  0  0  0  0  0
  -17.2182   10.5047  -19.2609 C   0  0  0  0  0  0  0  0  0  0  0  0
  -18.2761   10.7198  -18.4165 C   0  0  0  0  0  0  0  0  0  0  0  0
  -18.6542    9.6784  -17.4130 C   0  0  0  0  0  0  0  0  0  0  0  0
  -19.0327   11.8781  -18.4398 C   0  0  0  0  0  0  0  0  0  0  0  0
  -18.6676   12.8267  -19.3713 C   0  0  0  0  0  0  0  0  0  0  0  0
  -15.9318   14.6921  -24.4319 C   0  0  0  0  0  0  0  0  0  0  0  0
  -15.8645   16.1687  -24.7061 C   0  0  0  0  0  0  0  0  0  0  0  0
  -16.8150   14.0410  -25.4443 C   0  0  0  0  0  0  0  0  0  0  0  0
  -14.5441   14.0731  -24.5508 C   0  0  0  0  0  0  0  0  0  0  0  0
  -23.0307   21.0633  -18.1147 O   0  0  0  0  0  0  0  0  0  0  0  0
  -25.1286   22.2251  -20.8641 C   0  0  0  0  0  0  0  0  0  0  0  0
  -26.3419   21.9469  -20.3978 N   0  0  0  0  0  0  0  0  0  0  0  0
  -26.4777   21.3759  -19.1761 C   0  0  0  0  0  0  0  0  0  0  0  0
  -25.3937   21.0707  -18.3950 C   0  0  0  0  0  0  0  0  0  0  0  0
  -24.0826   21.3672  -18.8899 C   0  0  0  0  0  0  0  0  0  0  0  0
  -24.0837   21.9152  -20.0765 N   0  0  0  0  0  0  0  0  0  0  0  0
  -24.9093   22.8109  -22.1086 N   0  0  0  0  0  0  0  0  0  0  0  0
  -25.5813   23.6111  -22.3626 H   0  0  0  0  0  0  0  0  0  0  0  0
  -21.8578   22.7345  -24.2346 C   0  0  0  0  0  0  0  0  0  0  0  0
  -22.7656   23.1774  -23.2810 C   0  0  0  0  0  0  0  0  0  0  0  0
  -23.9249   22.4930  -23.0497 C   0  0  0  0  0  0  0  0  0  0  0  0
  -24.1550   21.3316  -23.8140 C   0  0  0  0  0  0  0  0  0  0  0  0
  -23.2471   20.9268  -24.7375 C   0  0  0  0  0  0  0  0  0  0  0  0
  -22.0750   21.6021  -24.9838 C   0  0  0  0  0  0  0  0  0  0  0  0
  -19.5891   23.2457  -23.6081 C   0  0  0  0  0  0  0  0  0  0  0  0
  -20.6839   23.4177  -24.4761 O   0  0  0  0  0  0  0  0  0  0  0  0
  -23.5139   19.7608  -25.4788 O   0  0  0  0  0  0  0  0  0  0  0  0
  -23.6588   18.5214  -24.8559 C   0  0  0  0  0  0  0  0  0  0  0  0
  -21.2162   21.1062  -25.9451 O   0  0  0  0  0  0  0  0  0  0  0  0
  -21.3839   21.6562  -27.2635 C   0  0  0  0  0  0  0  0  0  0  0  0
 48 49  1  0  0  0
 49 42  1  0  0  0
 42 43  2  0  0  0
 43 44  1  0  0  0
 44 40  1  0  0  0
 40 34  1  0  0  0
 34 35  2  0  0  0
 35 36  1  0  0  0
 36 37  2  0  0  0
 37 38  1  0  0  0
 38 33  1  0  0  0
 33  1  1  0  0  0
  1  2  2  0  0  0
  2  3  1  0  0  0
  3  4  2  0  0  0
  4 11  1  0  0  0
 11 12  1  0  0  0
 12 13  2  0  0  0
 12 14  1  0  0  0
 14 17  1  0  0  0
 17 18  2  0  0  0
 18 19  1  0  0  0
 19 20  2  0  0  0
 20 21  1  0  0  0
 21 22  1  0  0  0
 22 23  2  0  0  0
 23 24  1  0  0  0
 24 25  2  0  0  0
 25 26  1  0  0  0
 25 27  1  0  0  0
 27 28  2  0  0  0
 19 29  1  0  0  0
 29 30  1  0  0  0
 29 31  1  0  0  0
 29 32  1  0  0  0
  4  5  1  0  0  0
  5  6  2  0  0  0
  6  7  1  0  0  0
  7  8  2  0  0  0
  8  9  1  0  0  0
  9 10  2  0  0  0
 38 39  2  0  0  0
 44 45  2  0  0  0
 45 46  1  0  0  0
 46 50  1  0  0  0
 50 51  1  0  0  0
 46 47  2  0  0  0
 47 52  1  0  0  0
 52 53  1  0  0  0
 47 42  1  0  0  0
 39 34  1  0  0  0
 10  1  1  0  0  0
 21 17  1  0  0  0
 28 22  1  0  0  0
 10  5  1  0  0  0
 40 41  1  0  0  0
 11 15  1  0  0  0
 14 16  1  0  0  0
M  END
> <minimizedAffinity>
-8.77451

> <CNNscore>
0.0408469178

> <CNNaffinity>
7.0193147659

> <CNN_VS>
0.2867173851

> <CNNaffinity_variance>
0.2783757448

$$$$
[H]c1nc(N([H])c2c([H])c(OC([H])([H])[H])c(OC([H])([H])[H])c(OC([H])([H])[H])c2[H])nc(Oc2c([H])c([H])c(N([H])C(=O)N([H])c3c([H])c(C(C([H])([H])[H])(C([H])([H])[H])C([H])([H])[H])nn3-c3c([H])c([H])c(C([H])([H])[H])c([H])c3[H])c3c([H])c([H])c([H])c([H])c23)c1[H]


 53 58  0  0  0  0  0  0  0  0999 V2000
  -19.1825   13.0975  -19.5754 C   0  0  0  0  0  0  0  0  0  0  0  0
  -19.9777   12.9210  -18.4244 C   0  0  0  0  0  0  0  0  0  0  0  0
  -19.8307   11.8337  -17.5820 C   0  0  0  0  0  0  0  0  0  0  0  0
  -18.9026   10.8605  -17.8153 C   0  0  0  0  0  0  0  0  0  0  0  0
  -18.1052   11.0222  -18.9588 C   0  0  0  0  0  0  0  0  0  0  0  0
  -17.1894   10.0351  -19.2231 C   0  0  0  0  0  0  0  0  0  0  0  0
  -16.4116   10.1721  -20.3807 C   0  0  0  0  0  0  0  0  0  0  0  0
  -16.5317   11.2236  -21.2312 C   0  0  0  0  0  0  0  0  0  0  0  0
  -17.4539   12.2007  -20.9500 C   0  0  0  0  0  0  0  0  0  0  0  0
  -18.2568   12.1316  -19.8178 C   0  0  0  0  0  0  0  0  0  0  0  0
  -18.6871    9.7796  -16.9511 N   0  0  0  0  0  0  0  0  0  0  0  0
  -19.1559    9.7044  -15.6166 C   0  0  0  0  0  0  0  0  0  0  0  0
  -19.8170   10.6128  -15.1118 O   0  0  0  0  0  0  0  0  0  0  0  0
  -18.8736    8.5638  -14.8164 N   0  0  0  0  0  0  0  0  0  0  0  0
  -18.1091    8.9332  -17.2711 H   0  0  0  0  0  0  0  0  0  0  0  0
  -18.3031    7.7857  -15.2564 H   0  0  0  0  0  0  0  0  0  0  0  0
  -19.3101    8.4096  -13.4959 C   0  0  0  0  0  0  0  0  0  0  0  0
  -19.0799    9.2121  -12.4049 C   0  0  0  0  0  0  0  0  0  0  0  0
  -19.7278    8.6349  -11.3170 C   0  0  0  0  0  0  0  0  0  0  0  0
  -20.3097    7.5385  -11.7678 N   0  0  0  0  0  0  0  0  0  0  0  0
  -20.0925    7.3615  -13.0488 N   0  0  0  0  0  0  0  0  0  0  0  0
  -20.5624    6.2984  -13.8634 C   0  0  0  0  0  0  0  0  0  0  0  0
  -21.7429    6.5245  -14.5642 C   0  0  0  0  0  0  0  0  0  0  0  0
  -22.2037    5.4993  -15.3589 C   0  0  0  0  0  0  0  0  0  0  0  0
  -21.5248    4.3122  -15.4518 C   0  0  0  0  0  0  0  0  0  0  0  0
  -22.0494    3.2184  -16.3251 C   0  0  0  0  0  0  0  0  0  0  0  0
  -20.3489    4.0635  -14.7660 C   0  0  0  0  0  0  0  0  0  0  0  0
  -19.8808    5.0849  -13.9670 C   0  0  0  0  0  0  0  0  0  0  0  0
  -19.7233    9.2024   -9.9251 C   0  0  0  0  0  0  0  0  0  0  0  0
  -19.5901    8.0647   -8.9514 C   0  0  0  0  0  0  0  0  0  0  0  0
  -20.9881    9.9455   -9.6473 C   0  0  0  0  0  0  0  0  0  0  0  0
  -18.5607   10.1737   -9.7586 C   0  0  0  0  0  0  0  0  0  0  0  0
  -19.4469   14.1973  -20.2810 O   0  0  0  0  0  0  0  0  0  0  0  0
  -18.1541   17.2983  -21.7033 C   0  0  0  0  0  0  0  0  0  0  0  0
  -17.3631   17.7216  -20.7224 N   0  0  0  0  0  0  0  0  0  0  0  0
  -17.2497   16.9897  -19.5873 C   0  0  0  0  0  0  0  0  0  0  0  0
  -17.9314   15.8135  -19.4130 C   0  0  0  0  0  0  0  0  0  0  0  0
  -18.7859   15.3501  -20.4651 C   0  0  0  0  0  0  0  0  0  0  0  0
  -18.8102   16.1415  -21.5050 N   0  0  0  0  0  0  0  0  0  0  0  0
  -18.3217   17.9949  -22.8977 N   0  0  0  0  0  0  0  0  0  0  0  0
  -17.4829   17.9600  -23.5696 H   0  0  0  0  0  0  0  0  0  0  0  0
  -21.7189   19.0504  -23.9851 C   0  0  0  0  0  0  0  0  0  0  0  0
  -20.6836   18.2131  -23.5891 C   0  0  0  0  0  0  0  0  0  0  0  0
  -19.4412   18.7157  -23.3256 C   0  0  0  0  0  0  0  0  0  0  0  0
  -19.2601   20.1056  -23.4724 C   0  0  0  0  0  0  0  0  0  0  0  0
  -20.2930   20.8949  -23.8609 C   0  0  0  0  0  0  0  0  0  0  0  0
  -21.5501   20.4074  -24.1302 C   0  0  0  0  0  0  0  0  0  0  0  0
  -23.7191   17.9466  -23.2224 C   0  0  0  0  0  0  0  0  0  0  0  0
  -22.9775   18.5536  -24.2536 O   0  0  0  0  0  0  0  0  0  0  0  0
  -20.0710   22.2781  -23.9943 O   0  0  0  0  0  0  0  0  0  0  0  0
  -19.6411   23.0520  -22.9166 C   0  0  0  0  0  0  0  0  0  0  0  0
  -22.5340   21.2954  -24.5183 O   0  0  0  0  0  0  0  0  0  0  0  0
  -23.3738   21.7859  -23.4586 C   0  0  0  0  0  0  0  0  0  0  0  0
 48 49  1  0  0  0
 49 42  1  0  0  0
 42 43  2  0  0  0
 43 44  1  0  0  0
 44 40  1  0  0  0
 40 34  1  0  0  0
 34 35  2  0  0  0
 35 36  1  0  0  0
 36 37  2  0  0  0
 37 38  1  0  0  0
 38 33  1  0  0  0
 33  1  1  0  0  0
  1  2  2  0  0  0
  2  3  1  0  0  0
  3  4  2  0  0  0
  4 11  1  0  0  0
 11 12  1  0  0  0
 12 13  2  0  0  0
 12 14  1  0  0  0
 14 17  1  0  0  0
 17 18  2  0  0  0
 18 19  1  0  0  0
 19 20  2  0  0  0
 20 21  1  0  0  0
 21 22  1  0  0  0
 22 23  2  0  0  0
 23 24  1  0  0  0
 24 25  2  0  0  0
 25 26  1  0  0  0
 25 27  1  0  0  0
 27 28  2  0  0  0
 19 29  1  0  0  0
 29 30  1  0  0  0
 29 31  1  0  0  0
 29 32  1  0  0  0
  4  5  1  0  0  0
  5  6  2  0  0  0
  6  7  1  0  0  0
  7  8  2  0  0  0
  8  9  1  0  0  0
  9 10  2  0  0  0
 38 39  2  0  0  0
 44 45  2  0  0  0
 45 46  1  0  0  0
 46 50  1  0  0  0
 50 51  1  0  0  0
 46 47  2  0  0  0
 47 52  1  0  0  0
 52 53  1  0  0  0
 47 42  1  0  0  0
 39 34  1  0  0  0
 10  1  1  0  0  0
 21 17  1  0  0  0
 28 22  1  0  0  0
 10  5  1  0  0  0
 40 41  1  0  0  0
 11 15  1  0  0  0
 14 16  1  0  0  0
M  END
> <minimizedAffinity>
-9.05623

> <CNNscore>
0.0381788909

> <CNNaffinity>
6.5578169823

> <CNN_VS>
0.2503701746

> <CNNaffinity_variance>
0.4113557339

$$$$
[H]O[C@@]1([H])C([H])([H])C([H])([H])[C@]2([H])[C@]1(C([H])([H])[H])C([H])([H])C([H])([H])[C@]1([H])[C@]3([H])C(=C([H])C(=O)C([H])([H])C3([H])[H])C([H])([H])C([H])([H])[C@@]21[H]


 21 24  0  0  0  0  0  0  0  0999 V2000
  -16.8605   14.8252  -25.6580 C   0  0  0  0  0  0  0  0  0  0  0  0
  -16.0122   15.1573  -24.4537 C   0  0  0  0  0  0  0  0  0  0  0  0
  -15.0350   14.0858  -24.1731 C   0  0  0  0  0  0  0  0  0  0  0  0
  -15.5765   12.9401  -23.3658 C   0  0  0  0  0  0  0  0  0  0  0  0
  -16.4988   13.3317  -22.2694 C   0  0  0  0  0  0  0  0  0  0  0  0
  -17.5795   14.3042  -22.7007 C   0  0  0  0  0  0  0  0  0  0  0  0
  -18.3210   14.7410  -21.4401 C   0  0  0  0  0  0  0  0  0  0  0  0
  -19.0268   13.5496  -20.8398 C   0  0  0  0  0  0  0  0  0  0  0  0
  -18.0002   12.5008  -20.5931 C   0  0  0  0  0  0  0  0  0  0  0  0
  -17.8934   12.0054  -19.3854 C   0  0  0  0  0  0  0  0  0  0  0  0
  -16.8918   10.9791  -19.1365 C   0  0  0  0  0  0  0  0  0  0  0  0
  -16.3316   10.8548  -18.0211 O   0  0  0  0  0  0  0  0  0  0  0  0
  -16.5736   10.0790  -20.3027 C   0  0  0  0  0  0  0  0  0  0  0  0
  -16.1682   11.0199  -21.4164 C   0  0  0  0  0  0  0  0  0  0  0  0
  -17.1611   12.0803  -21.7235 C   0  0  0  0  0  0  0  0  0  0  0  0
  -16.8688   15.4826  -23.2401 C   0  0  0  0  0  0  0  0  0  0  0  0
  -17.6715   16.6088  -23.7380 C   0  0  0  0  0  0  0  0  0  0  0  0
  -16.6589   17.4028  -24.5665 C   0  0  0  0  0  0  0  0  0  0  0  0
  -15.4230   16.5243  -24.6581 C   0  0  0  0  0  0  0  0  0  0  0  0
  -14.7551   16.6645  -25.8544 O   0  0  0  0  0  0  0  0  0  0  0  0
  -14.5916   17.6020  -26.0499 H   0  0  0  0  0  0  0  0  0  0  0  0
  2  1  1  0  0  0
  2  3  1  0  0  0
  3  4  1  0  0  0
  4  5  1  0  0  0
  5  6  1  0  0  0
  6  7  1  0  0  0
  7  8  1  0  0  0
  8  9  1  0  0  0
  9 10  2  0  0  0
 10 11  1  0  0  0
 11 12  2  0  0  0
 11 13  1  0  0  0
 13 14  1  0  0  0
 14 15  1  0  0  0
  6 16  1  0  0  0
 16 17  1  0  0  0
 17 18  1  0  0  0
 18 19  1  0  0  0
 19 20  1  0  0  0
 16  2  1  0  0  0
 19  2  1  0  0  0
 15  5  1  0  0  0
 15  9  1  0  0  0
 20 21  1  0  0  0
M  END
> <minimizedAffinity>
-9.73872

> <CNNscore>
0.6431640983

> <CNNaffinity>
6.2297019958

> <CNN_VS>
4.0067205429

> <CNNaffinity_variance>
0.2127022296

$$$$
[H]O[C@@]1([H])C([H])([H])C([H])([H])[C@]2([H])[C@]1(C([H])([H])[H])C([H])([H])C([H])([H])[C@]1([H])[C@]3([H])C(=C([H])C(=O)C([H])([H])C3([H])[H])C([H])([H])C([H])([H])[C@@]21[H]


 21 24  0  0  0  0  0  0  0  0999 V2000
  -20.4005   16.9004  -18.9954 C   0  0  0  0  0  0  0  0  0  0  0  0
  -18.9656   16.6536  -18.5952 C   0  0  0  0  0  0  0  0  0  0  0  0
  -18.0834   16.5793  -19.7776 C   0  0  0  0  0  0  0  0  0  0  0  0
  -18.0378   15.2319  -20.4411 C   0  0  0  0  0  0  0  0  0  0  0  0
  -18.0315   14.0773  -19.5068 C   0  0  0  0  0  0  0  0  0  0  0  0
  -19.0937   14.1611  -18.4278 C   0  0  0  0  0  0  0  0  0  0  0  0
  -18.8416   13.0100  -17.4577 C   0  0  0  0  0  0  0  0  0  0  0  0
  -19.0564   11.6991  -18.1743 C   0  0  0  0  0  0  0  0  0  0  0  0
  -18.1567   11.6862  -19.3597 C   0  0  0  0  0  0  0  0  0  0  0  0
  -17.3278   10.6822  -19.5019 C   0  0  0  0  0  0  0  0  0  0  0  0
  -16.4450   10.6626  -20.6589 C   0  0  0  0  0  0  0  0  0  0  0  0
  -15.3090   10.1322  -20.6184 O   0  0  0  0  0  0  0  0  0  0  0  0
  -16.9838   11.3189  -21.9041 C   0  0  0  0  0  0  0  0  0  0  0  0
  -17.3386   12.7262  -21.4754 C   0  0  0  0  0  0  0  0  0  0  0  0
  -18.2502   12.8061  -20.3062 C   0  0  0  0  0  0  0  0  0  0  0  0
  -18.8369   15.4258  -17.7073 C   0  0  0  0  0  0  0  0  0  0  0  0
  -19.7207   15.7774  -16.5866 C   0  0  0  0  0  0  0  0  0  0  0  0
  -19.4332   17.2673  -16.3866 C   0  0  0  0  0  0  0  0  0  0  0  0
  -18.5803   17.6846  -17.5724 C   0  0  0  0  0  0  0  0  0  0  0  0
  -18.8220   18.9793  -17.9752 O   0  0  0  0  0  0  0  0  0  0  0  0
  -18.7782   19.5889  -17.2200 H   0  0  0  0  0  0  0  0  0  0  0  0
  2  1  1  0  0  0
  2  3  1  0  0  0
  3  4  1  0  0  0
  4  5  1  0  0  0
  5  6  1  0  0  0
  6  7  1  0  0  0
  7  8  1  0  0  0
  8  9  1  0  0  0
  9 10  2  0  0  0
 10 11  1  0  0  0
 11 12  2  0  0  0
 11 13  1  0  0  0
 13 14  1  0  0  0
 14 15  1  0  0  0
  6 16  1  0  0  0
 16 17  1  0  0  0
 17 18  1  0  0  0
 18 19  1  0  0  0
 19 20  1  0  0  0
 16  2  1  0  0  0
 19  2  1  0  0  0
 15  5  1  0  0  0
 15  9  1  0  0  0
 20 21  1  0  0  0
M  END
> <minimizedAffinity>
-7.72738

> <CNNscore>
0.6332061291

> <CNNaffinity>
5.9308357239

> <CNN_VS>
3.7554414272

> <CNNaffinity_variance>
0.2798892856

$$$$
[H]O[C@@]1([H])C([H])([H])C([H])([H])[C@]2([H])[C@]1(C([H])([H])[H])C([H])([H])C([H])([H])[C@]1([H])[C@]3([H])C(=C([H])C(=O)C([H])([H])C3([H])[H])C([H])([H])C([H])([H])[C@@]21[H]


 21 24  0  0  0  0  0  0  0  0999 V2000
  -19.6937    9.6690  -14.2307 C   0  0  0  0  0  0  0  0  0  0  0  0
  -20.4345    9.4068  -15.5200 C   0  0  0  0  0  0  0  0  0  0  0  0
  -19.6629    8.5170  -16.4115 C   0  0  0  0  0  0  0  0  0  0  0  0
  -18.6291    9.2142  -17.2499 C   0  0  0  0  0  0  0  0  0  0  0  0
  -19.0517   10.5305  -17.7928 C   0  0  0  0  0  0  0  0  0  0  0  0
  -19.6763   11.4446  -16.7566 C   0  0  0  0  0  0  0  0  0  0  0  0
  -20.2128   12.6658  -17.4986 C   0  0  0  0  0  0  0  0  0  0  0  0
  -19.0589   13.4260  -18.1057 C   0  0  0  0  0  0  0  0  0  0  0  0
  -18.3116   12.4801  -18.9785 C   0  0  0  0  0  0  0  0  0  0  0  0
  -18.1136   12.8112  -20.2301 C   0  0  0  0  0  0  0  0  0  0  0  0
  -17.3834   11.8913  -21.0897 C   0  0  0  0  0  0  0  0  0  0  0  0
  -17.6113   11.8099  -22.3206 O   0  0  0  0  0  0  0  0  0  0  0  0
  -16.3392   11.0463  -20.4062 C   0  0  0  0  0  0  0  0  0  0  0  0
  -17.0852   10.3309  -19.3009 C   0  0  0  0  0  0  0  0  0  0  0  0
  -17.8375   11.2233  -18.3832 C   0  0  0  0  0  0  0  0  0  0  0  0
  -20.8316   10.7028  -16.2092 C   0  0  0  0  0  0  0  0  0  0  0  0
  -21.6445   11.3527  -15.1713 C   0  0  0  0  0  0  0  0  0  0  0  0
  -22.4309   10.1815  -14.5780 C   0  0  0  0  0  0  0  0  0  0  0  0
  -21.8169    8.9279  -15.1773 C   0  0  0  0  0  0  0  0  0  0  0  0
  -21.8315    7.8584  -14.3096 O   0  0  0  0  0  0  0  0  0  0  0  0
  -22.7199    7.7276  -13.9390 H   0  0  0  0  0  0  0  0  0  0  0  0
  2  1  1  0  0  0
  2  3  1  0  0  0
  3  4  1  0  0  0
  4  5  1  0  0  0
  5  6  1  0  0  0
  6  7  1  0  0  0
  7  8  1  0  0  0
  8  9  1  0  0  0
  9 10  2  0  0  0
 10 11  1  0  0  0
 11 12  2  0  0  0
 11 13  1  0  0  0
 13 14  1  0  0  0
 14 15  1  0  0  0
  6 16  1  0  0  0
 16 17  1  0  0  0
 17 18  1  0  0  0
 18 19  1  0  0  0
 19 20  1  0  0  0
 16  2  1  0  0  0
 19  2  1  0  0  0
 15  5  1  0  0  0
 15  9  1  0  0  0
 20 21  1  0  0  0
M  END
> <minimizedAffinity>
-8.02974

> <CNNscore>
0.5537732244

> <CNNaffinity>
5.2431344986

> <CNN_VS>
2.9035074711

> <CNNaffinity_variance>
0.1023535952

$$$$
[H]O[C@@]1([H])C([H])([H])C([H])([H])[C@]2([H])[C@]1(C([H])([H])[H])C([H])([H])C([H])([H])[C@]1([H])[C@]3([H])C(=C([H])C(=O)C([H])([H])C3([H])[H])C([H])([H])C([H])([H])[C@@]21[H]


 21 24  0  0  0  0  0  0  0  0999 V2000
  -17.7293    9.9627  -21.1822 C   0  0  0  0  0  0  0  0  0  0  0  0
  -17.0371   11.0920  -20.4574 C   0  0  0  0  0  0  0  0  0  0  0  0
  -17.0368   10.8726  -18.9967 C   0  0  0  0  0  0  0  0  0  0  0  0
  -18.2925   11.3109  -18.2975 C   0  0  0  0  0  0  0  0  0  0  0  0
  -18.8743   12.5816  -18.8002 C   0  0  0  0  0  0  0  0  0  0  0  0
  -18.9963   12.6402  -20.3105 C   0  0  0  0  0  0  0  0  0  0  0  0
  -19.4349   14.0568  -20.6721 C   0  0  0  0  0  0  0  0  0  0  0  0
  -20.8161   14.3070  -20.1172 C   0  0  0  0  0  0  0  0  0  0  0  0
  -20.7597   14.0573  -18.6511 C   0  0  0  0  0  0  0  0  0  0  0  0
  -21.1605   15.0058  -17.8418 C   0  0  0  0  0  0  0  0  0  0  0  0
  -21.1085   14.7688  -16.4067 C   0  0  0  0  0  0  0  0  0  0  0  0
  -20.9164   15.6985  -15.5867 O   0  0  0  0  0  0  0  0  0  0  0  0
  -21.3001   13.3384  -15.9724 C   0  0  0  0  0  0  0  0  0  0  0  0
  -20.2389   12.5625  -16.7221 C   0  0  0  0  0  0  0  0  0  0  0  0
  -20.2546   12.7555  -18.1941 C   0  0  0  0  0  0  0  0  0  0  0  0
  -17.6280   12.4419  -20.8331 C   0  0  0  0  0  0  0  0  0  0  0  0
  -17.4332   12.4549  -22.2899 C   0  0  0  0  0  0  0  0  0  0  0  0
  -16.0499   11.8199  -22.4496 C   0  0  0  0  0  0  0  0  0  0  0  0
  -15.6816   11.2850  -21.0764 C   0  0  0  0  0  0  0  0  0  0  0  0
  -14.9323   10.1309  -21.1357 O   0  0  0  0  0  0  0  0  0  0  0  0
  -14.1757   10.2418  -21.7350 H   0  0  0  0  0  0  0  0  0  0  0  0
  2  1  1  0  0  0
  2  3  1  0  0  0
  3  4  1  0  0  0
  4  5  1  0  0  0
  5  6  1  0  0  0
  6  7  1  0  0  0
  7  8  1  0  0  0
  8  9  1  0  0  0
  9 10  2  0  0  0
 10 11  1  0  0  0
 11 12  2  0  0  0
 11 13  1  0  0  0
 13 14  1  0  0  0
 14 15  1  0  0  0
  6 16  1  0  0  0
 16 17  1  0  0  0
 17 18  1  0  0  0
 18 19  1  0  0  0
 19 20  1  0  0  0
 16  2  1  0  0  0
 19  2  1  0  0  0
 15  5  1  0  0  0
 15  9  1  0  0  0
 20 21  1  0  0  0
M  END
> <minimizedAffinity>
-7.20488

> <CNNscore>
0.4895252287

> <CNNaffinity>
5.7369346619

> <CNN_VS>
2.8083741665

> <CNNaffinity_variance>
0.2777891755

$$$$
[H]O[C@@]1([H])C([H])([H])C([H])([H])[C@]2([H])[C@]1(C([H])([H])[H])C([H])([H])C([H])([H])[C@]1([H])[C@]3([H])C(=C([H])C(=O)C([H])([H])C3([H])[H])C([H])([H])C([H])([H])[C@@]21[H]


 21 24  0  0  0  0  0  0  0  0999 V2000
  -15.0476   15.5378  -23.7766 C   0  0  0  0  0  0  0  0  0  0  0  0
  -16.5531   15.5138  -23.8902 C   0  0  0  0  0  0  0  0  0  0  0  0
  -17.1755   16.5079  -22.9924 C   0  0  0  0  0  0  0  0  0  0  0  0
  -17.3630   16.0418  -21.5763 C   0  0  0  0  0  0  0  0  0  0  0  0
  -17.7946   14.6275  -21.4380 C   0  0  0  0  0  0  0  0  0  0  0  0
  -16.9771   13.6572  -22.2685 C   0  0  0  0  0  0  0  0  0  0  0  0
  -17.6506   12.2919  -22.1581 C   0  0  0  0  0  0  0  0  0  0  0  0
  -17.5705   11.8114  -20.7296 C   0  0  0  0  0  0  0  0  0  0  0  0
  -18.1963   12.8548  -19.8724 C   0  0  0  0  0  0  0  0  0  0  0  0
  -19.1682   12.5006  -19.0692 C   0  0  0  0  0  0  0  0  0  0  0  0
  -19.7850   13.5154  -18.2277 C   0  0  0  0  0  0  0  0  0  0  0  0
  -20.9903   13.4518  -17.8859 O   0  0  0  0  0  0  0  0  0  0  0  0
  -18.8836   14.6432  -17.7955 C   0  0  0  0  0  0  0  0  0  0  0  0
  -18.3403   15.2185  -19.0855 C   0  0  0  0  0  0  0  0  0  0  0  0
  -17.6860   14.2285  -19.9779 C   0  0  0  0  0  0  0  0  0  0  0  0
  -17.1076   14.1155  -23.6676 C   0  0  0  0  0  0  0  0  0  0  0  0
  -16.4143   13.3522  -24.7151 C   0  0  0  0  0  0  0  0  0  0  0  0
  -16.4231   14.3218  -25.8991 C   0  0  0  0  0  0  0  0  0  0  0  0
  -16.9156   15.6466  -25.3424 C   0  0  0  0  0  0  0  0  0  0  0  0
  -16.3367   16.7337  -25.9589 O   0  0  0  0  0  0  0  0  0  0  0  0
  -16.4051   16.6586  -26.9250 H   0  0  0  0  0  0  0  0  0  0  0  0
  2  1  1  0  0  0
  2  3  1  0  0  0
  3  4  1  0  0  0
  4  5  1  0  0  0
  5  6  1  0  0  0
  6  7  1  0  0  0
  7  8  1  0  0  0
  8  9  1  0  0  0
  9 10  2  0  0  0
 10 11  1  0  0  0
 11 12  2  0  0  0
 11 13  1  0  0  0
 13 14  1  0  0  0
 14 15  1  0  0  0
  6 16  1  0  0  0
 16 17  1  0  0  0
 17 18  1  0  0  0
 18 19  1  0  0  0
 19 20  1  0  0  0
 16  2  1  0  0  0
 19  2  1  0  0  0
 15  5  1  0  0  0
 15  9  1  0  0  0
 20 21  1  0  0  0
M  END
> <minimizedAffinity>
-8.38898

> <CNNscore>
0.4624041915

> <CNNaffinity>
6.0962142944

> <CNN_VS>
2.8189151287

> <CNNaffinity_variance>
0.1251462996

$$$$
[H]O[C@@]1([H])C([H])([H])C([H])([H])[C@]2([H])[C@]1(C([H])([H])[H])C([H])([H])C([H])([H])[C@]1([H])[C@]3([H])C(=C([H])C(=O)C([H])([H])C3([H])[H])C([H])([H])C([H])([H])[C@@]21[H]


 21 24  0  0  0  0  0  0  0  0999 V2000
  -17.9495   10.8071  -22.0718 C   0  0  0  0  0  0  0  0  0  0  0  0
  -17.0391   11.3150  -20.9795 C   0  0  0  0  0  0  0  0  0  0  0  0
  -16.6702   10.2348  -20.0421 C   0  0  0  0  0  0  0  0  0  0  0  0
  -17.6787    9.9740  -18.9592 C   0  0  0  0  0  0  0  0  0  0  0  0
  -18.3090   11.1918  -18.3886 C   0  0  0  0  0  0  0  0  0  0  0  0
  -18.8161   12.1633  -19.4367 C   0  0  0  0  0  0  0  0  0  0  0  0
  -19.2647   13.4240  -18.7024 C   0  0  0  0  0  0  0  0  0  0  0  0
  -20.4406   13.0920  -17.8165 C   0  0  0  0  0  0  0  0  0  0  0  0
  -20.0176   11.9923  -16.9072 C   0  0  0  0  0  0  0  0  0  0  0  0
  -20.1483   12.1668  -15.6158 C   0  0  0  0  0  0  0  0  0  0  0  0
  -19.7369   11.0957  -14.7203 C   0  0  0  0  0  0  0  0  0  0  0  0
  -19.2940   11.3256  -13.5695 O   0  0  0  0  0  0  0  0  0  0  0  0
  -19.8780    9.6974  -15.2647 C   0  0  0  0  0  0  0  0  0  0  0  0
  -19.0865    9.7042  -16.5545 C   0  0  0  0  0  0  0  0  0  0  0  0
  -19.4746   10.7692  -17.5135 C   0  0  0  0  0  0  0  0  0  0  0  0
  -17.6416   12.5134  -20.2630 C   0  0  0  0  0  0  0  0  0  0  0  0
  -17.8313   13.4574  -21.3735 C   0  0  0  0  0  0  0  0  0  0  0  0
  -16.5693   13.2465  -22.2131 C   0  0  0  0  0  0  0  0  0  0  0  0
  -15.8832   12.0253  -21.6253 C   0  0  0  0  0  0  0  0  0  0  0  0
  -15.2315   11.2697  -22.5746 O   0  0  0  0  0  0  0  0  0  0  0  0
  -14.6521   11.8268  -23.1202 H   0  0  0  0  0  0  0  0  0  0  0  0
  2  1  1  0  0  0
  2  3  1  0  0  0
  3  4  1  0  0  0
  4  5  1  0  0  0
  5  6  1  0  0  0
  6  7  1  0  0  0
  7  8  1  0  0  0
  8  9  1  0  0  0
  9 10  2  0  0  0
 10 11  1  0  0  0
 11 12  2  0  0  0
 11 13  1  0  0  0
 13 14  1  0  0  0
 14 15  1  0  0  0
  6 16  1  0  0  0
 16 17  1  0  0  0
 17 18  1  0  0  0
 18 19  1  0  0  0
 19 20  1  0  0  0
 16  2  1  0  0  0
 19  2  1  0  0  0
 15  5  1  0  0  0
 15  9  1  0  0  0
 20 21  1  0  0  0
M  END
> <minimizedAffinity>
-6.80901

> <CNNscore>
0.4511809945

> <CNNaffinity>
5.6348266602

> <CNN_VS>
2.5423266888

> <CNNaffinity_variance>
0.2208122760

$$$$
[H]O[C@@]1([H])C([H])([H])C([H])([H])[C@]2([H])[C@]1(C([H])([H])[H])C([H])([H])C([H])([H])[C@]1([H])[C@]3([H])C(=C([H])C(=O)C([H])([H])C3([H])[H])C([H])([H])C([H])([H])[C@@]21[H]


 21 24  0  0  0  0  0  0  0  0999 V2000
  -17.4980   13.7289  -25.1965 C   0  0  0  0  0  0  0  0  0  0  0  0
  -16.6094   14.3149  -24.1256 C   0  0  0  0  0  0  0  0  0  0  0  0
  -16.0267   13.2584  -23.2735 C   0  0  0  0  0  0  0  0  0  0  0  0
  -16.9172   12.7931  -22.1562 C   0  0  0  0  0  0  0  0  0  0  0  0
  -17.6870   13.8704  -21.4833 C   0  0  0  0  0  0  0  0  0  0  0  0
  -18.3964   14.8040  -22.4449 C   0  0  0  0  0  0  0  0  0  0  0  0
  -18.9832   15.9432  -21.6158 C   0  0  0  0  0  0  0  0  0  0  0  0
  -20.0403   15.3919  -20.6903 C   0  0  0  0  0  0  0  0  0  0  0  0
  -19.4031   14.3259  -19.8702 C   0  0  0  0  0  0  0  0  0  0  0  0
  -19.4798   14.4138  -18.5657 C   0  0  0  0  0  0  0  0  0  0  0  0
  -18.8593   13.3749  -17.7571 C   0  0  0  0  0  0  0  0  0  0  0  0
  -18.3867   13.6123  -16.6196 O   0  0  0  0  0  0  0  0  0  0  0  0
  -18.8221   12.0003  -18.3740 C   0  0  0  0  0  0  0  0  0  0  0  0
  -18.1203   12.1921  -19.7009 C   0  0  0  0  0  0  0  0  0  0  0  0
  -18.7209   13.2317  -20.5745 C   0  0  0  0  0  0  0  0  0  0  0  0
  -17.3398   15.3701  -23.3098 C   0  0  0  0  0  0  0  0  0  0  0  0
  -17.7357   16.3280  -24.3519 C   0  0  0  0  0  0  0  0  0  0  0  0
  -16.5096   16.3544  -25.2674 C   0  0  0  0  0  0  0  0  0  0  0  0
  -15.6141   15.2246  -24.7886 C   0  0  0  0  0  0  0  0  0  0  0  0
  -14.9155   14.6256  -25.8132 O   0  0  0  0  0  0  0  0  0  0  0  0
  -14.4601   15.2912  -26.3549 H   0  0  0  0  0  0  0  0  0  0  0  0
  2  1  1  0  0  0
  2  3  1  0  0  0
  3  4  1  0  0  0
  4  5  1  0  0  0
  5  6  1  0  0  0
  6  7  1  0  0  0
  7  8  1  0  0  0
  8  9  1  0  0  0
  9 10  2  0  0  0
 10 11  1  0  0  0
 11 12  2  0  0  0
 11 13  1  0  0  0
 13 14  1  0  0  0
 14 15  1  0  0  0
  6 16  1  0  0  0
 16 17  1  0  0  0
 17 18  1  0  0  0
 18 19  1  0  0  0
 19 20  1  0  0  0
 16  2  1  0  0  0
 19  2  1  0  0  0
 15  5  1  0  0  0
 15  9  1  0  0  0
 20 21  1  0  0  0
M  END
> <minimizedAffinity>
-8.71029

> <CNNscore>
0.4234744608

> <CNNaffinity>
5.9877624512

> <CNN_VS>
2.5356645584

> <CNNaffinity_variance>
0.2164001167

$$$$
[H]O[C@@]1([H])C([H])([H])C([H])([H])[C@]2([H])[C@]1(C([H])([H])[H])C([H])([H])C([H])([H])[C@]1([H])[C@]3([H])C(=C([H])C(=O)C([H])([H])C3([H])[H])C([H])([H])C([H])([H])[C@@]21[H]


 21 24  0  0  0  0  0  0  0  0999 V2000
  -16.3258   15.1292  -22.3168 C   0  0  0  0  0  0  0  0  0  0  0  0
  -17.6325   14.3930  -22.4910 C   0  0  0  0  0  0  0  0  0  0  0  0
  -18.6835   14.9493  -21.6148 C   0  0  0  0  0  0  0  0  0  0  0  0
  -18.6729   14.4180  -20.2094 C   0  0  0  0  0  0  0  0  0  0  0  0
  -18.3814   12.9662  -20.0943 C   0  0  0  0  0  0  0  0  0  0  0  0
  -17.1727   12.5224  -20.8953 C   0  0  0  0  0  0  0  0  0  0  0  0
  -17.1160   10.9990  -20.8177 C   0  0  0  0  0  0  0  0  0  0  0  0
  -16.8641   10.5825  -19.3891 C   0  0  0  0  0  0  0  0  0  0  0  0
  -17.9403   11.1813  -18.5535 C   0  0  0  0  0  0  0  0  0  0  0  0
  -18.6514   10.3883  -17.7915 C   0  0  0  0  0  0  0  0  0  0  0  0
  -19.7055   10.9667  -16.9713 C   0  0  0  0  0  0  0  0  0  0  0  0
  -20.7449   10.3284  -16.6785 O   0  0  0  0  0  0  0  0  0  0  0  0
  -19.4667   12.3778  -16.4986 C   0  0  0  0  0  0  0  0  0  0  0  0
  -19.2212   13.1717  -17.7633 C   0  0  0  0  0  0  0  0  0  0  0  0
  -18.1444   12.6342  -18.6327 C   0  0  0  0  0  0  0  0  0  0  0  0
  -17.4593   12.8947  -22.2966 C   0  0  0  0  0  0  0  0  0  0  0  0
  -16.4512   12.5785  -23.3185 C   0  0  0  0  0  0  0  0  0  0  0  0
  -16.8823   13.4533  -24.4979 C   0  0  0  0  0  0  0  0  0  0  0  0
  -17.9657   14.3700  -23.9560 C   0  0  0  0  0  0  0  0  0  0  0  0
  -17.9557   15.6152  -24.5442 O   0  0  0  0  0  0  0  0  0  0  0  0
  -17.9476   15.5387  -25.5127 H   0  0  0  0  0  0  0  0  0  0  0  0
  2  1  1  0  0  0
  2  3  1  0  0  0
  3  4  1  0  0  0
  4  5  1  0  0  0
  5  6  1  0  0  0
  6  7  1  0  0  0
  7  8  1  0  0  0
  8  9  1  0  0  0
  9 10  2  0  0  0
 10 11  1  0  0  0
 11 12  2  0  0  0
 11 13  1  0  0  0
 13 14  1  0  0  0
 14 15  1  0  0  0
  6 16  1  0  0  0
 16 17  1  0  0  0
 17 18  1  0  0  0
 18 19  1  0  0  0
 19 20  1  0  0  0
 16  2  1  0  0  0
 19  2  1  0  0  0
 15  5  1  0  0  0
 15  9  1  0  0  0
 20 21  1  0  0  0
M  END
> <minimizedAffinity>
-9.10087

> <CNNscore>
0.3854179382

> <CNNaffinity>
5.7456688881

> <CNN_VS>
2.2144837379

> <CNNaffinity_variance>
0.0507572778

$$$$
[H]O[C@@]1([H])C([H])([H])C([H])([H])[C@]2([H])[C@]1(C([H])([H])[H])C([H])([H])C([H])([H])[C@]1([H])[C@]3([H])C(=C([H])C(=O)C([H])([H])C3([H])[H])C([H])([H])C([H])([H])[C@@]21[H]


 21 24  0  0  0  0  0  0  0  0999 V2000
  -18.2751   13.9065  -17.5545 C   0  0  0  0  0  0  0  0  0  0  0  0
  -19.2790   13.1200  -18.3629 C   0  0  0  0  0  0  0  0  0  0  0  0
  -20.6322   13.2155  -17.7785 C   0  0  0  0  0  0  0  0  0  0  0  0
  -20.9025   12.2456  -16.6632 C   0  0  0  0  0  0  0  0  0  0  0  0
  -20.3382   10.8871  -16.8685 C   0  0  0  0  0  0  0  0  0  0  0  0
  -18.8845   10.8902  -17.3000 C   0  0  0  0  0  0  0  0  0  0  0  0
  -18.5126    9.4493  -17.6391 C   0  0  0  0  0  0  0  0  0  0  0  0
  -18.5900    8.6078  -16.3885 C   0  0  0  0  0  0  0  0  0  0  0  0
  -19.9647    8.7537  -15.8373 C   0  0  0  0  0  0  0  0  0  0  0  0
  -20.6665    7.6697  -15.6186 C   0  0  0  0  0  0  0  0  0  0  0  0
  -22.0116    7.8044  -15.0794 C   0  0  0  0  0  0  0  0  0  0  0  0
  -22.9208    6.9837  -15.3502 O   0  0  0  0  0  0  0  0  0  0  0  0
  -22.2392    8.9903  -14.1775 C   0  0  0  0  0  0  0  0  0  0  0  0
  -21.8291   10.1887  -15.0055 C   0  0  0  0  0  0  0  0  0  0  0  0
  -20.4579   10.1116  -15.5697 C   0  0  0  0  0  0  0  0  0  0  0  0
  -18.8373   11.6770  -18.5504 C   0  0  0  0  0  0  0  0  0  0  0  0
  -17.5364   11.8497  -19.2126 C   0  0  0  0  0  0  0  0  0  0  0  0
  -17.7994   13.0127  -20.1719 C   0  0  0  0  0  0  0  0  0  0  0  0
  -19.1686   13.5536  -19.7973 C   0  0  0  0  0  0  0  0  0  0  0  0
  -19.2711   14.9159  -19.9718 O   0  0  0  0  0  0  0  0  0  0  0  0
  -18.9716   15.1731  -20.8594 H   0  0  0  0  0  0  0  0  0  0  0  0
  2  1  1  0  0  0
  2  3  1  0  0  0
  3  4  1  0  0  0
  4  5  1  0  0  0
  5  6  1  0  0  0
  6  7  1  0  0  0
  7  8  1  0  0  0
  8  9  1  0  0  0
  9 10  2  0  0  0
 10 11  1  0  0  0
 11 12  2  0  0  0
 11 13  1  0  0  0
 13 14  1  0  0  0
 14 15  1  0  0  0
  6 16  1  0  0  0
 16 17  1  0  0  0
 17 18  1  0  0  0
 18 19  1  0  0  0
 19 20  1  0  0  0
 16  2  1  0  0  0
 19  2  1  0  0  0
 15  5  1  0  0  0
 15  9  1  0  0  0
 20 21  1  0  0  0
M  END
> <minimizedAffinity>
-7.56495

> <CNNscore>
0.3567945957

> <CNNaffinity>
5.0013570786

> <CNN_VS>
1.7844572067

> <CNNaffinity_variance>
0.1295122802

$$$$
[H]Oc1c([H])c(O[H])c(C([H])(C([H])([H])[H])C([H])([H])[H])c([H])c1-c1c([H])c(C([H])(C([H])([H])[H])C([H])([H])[H])c(O[H])c([H])c1O[H]


 26 27  0  0  0  0  0  0  0  0999 V2000
  -16.7814   11.5549  -20.9434 C   0  0  0  0  0  0  0  0  0  0  0  0
  -17.2601   12.7623  -21.3495 C   0  0  0  0  0  0  0  0  0  0  0  0
  -16.7970   13.4500  -22.4828 C   0  0  0  0  0  0  0  0  0  0  0  0
  -15.7995   12.9045  -23.2638 C   0  0  0  0  0  0  0  0  0  0  0  0
  -15.4185   13.6469  -24.3469 O   0  0  0  0  0  0  0  0  0  0  0  0
  -15.2799   11.6776  -22.8917 C   0  0  0  0  0  0  0  0  0  0  0  0
  -15.7524   11.0149  -21.7557 C   0  0  0  0  0  0  0  0  0  0  0  0
  -15.2138    9.8040  -21.4243 O   0  0  0  0  0  0  0  0  0  0  0  0
  -14.7253   13.2500  -25.0090 H   0  0  0  0  0  0  0  0  0  0  0  0
  -15.5084    9.2541  -20.6377 H   0  0  0  0  0  0  0  0  0  0  0  0
  -17.3160   14.8018  -22.7290 C   0  0  0  0  0  0  0  0  0  0  0  0
  -17.1511   15.8802  -21.9024 C   0  0  0  0  0  0  0  0  0  0  0  0
  -17.6808   17.1406  -22.2262 C   0  0  0  0  0  0  0  0  0  0  0  0
  -18.3650   17.2008  -23.4073 C   0  0  0  0  0  0  0  0  0  0  0  0
  -18.9046   18.4005  -23.7555 O   0  0  0  0  0  0  0  0  0  0  0  0
  -18.5317   16.1075  -24.2353 C   0  0  0  0  0  0  0  0  0  0  0  0
  -18.0249   14.8828  -23.9452 C   0  0  0  0  0  0  0  0  0  0  0  0
  -18.1878   13.7921  -24.7534 O   0  0  0  0  0  0  0  0  0  0  0  0
  -19.5009   18.4852  -24.6006 H   0  0  0  0  0  0  0  0  0  0  0  0
  -18.7453   13.7827  -25.6192 H   0  0  0  0  0  0  0  0  0  0  0  0
  -17.3465   18.2817  -21.4139 C   0  0  0  0  0  0  0  0  0  0  0  0
  -16.0540   18.0159  -20.6242 C   0  0  0  0  0  0  0  0  0  0  0  0
  -18.3825   18.9784  -20.6331 C   0  0  0  0  0  0  0  0  0  0  0  0
  -18.4636   11.6794  -19.1776 C   0  0  0  0  0  0  0  0  0  0  0  0
  -17.2668   10.8705  -19.7394 C   0  0  0  0  0  0  0  0  0  0  0  0
  -16.2682   10.8993  -18.5923 C   0  0  0  0  0  0  0  0  0  0  0  0
 24 25  1  0  0  0
 25 26  1  0  0  0
 25  1  1  0  0  0
  1  2  2  0  0  0
  2  3  1  0  0  0
  3 11  1  0  0  0
 11 12  2  0  0  0
 12 13  1  0  0  0
 13 21  1  0  0  0
 21 22  1  0  0  0
 21 23  1  0  0  0
 13 14  2  0  0  0
 14 15  1  0  0  0
 14 16  1  0  0  0
 16 17  2  0  0  0
 17 18  1  0  0  0
  3  4  2  0  0  0
  4  5  1  0  0  0
  4  6  1  0  0  0
  6  7  2  0  0  0
  7  8  1  0  0  0
  7  1  1  0  0  0
 17 11  1  0  0  0
 15 19  1  0  0  0
 18 20  1  0  0  0
  5  9  1  0  0  0
  8 10  1  0  0  0
M  END
> <minimizedAffinity>
-7.87392

> <CNNscore>
0.7864573002

> <CNNaffinity>
6.2962446213

> <CNN_VS>
4.9517273903

> <CNNaffinity_variance>
0.1082092151

$$$$
[H]Oc1c([H])c(O[H])c(C([H])(C([H])([H])[H])C([H])([H])[H])c([H])c1-c1c([H])c(C([H])(C([H])([H])[H])C([H])([H])[H])c(O[H])c([H])c1O[H]


 26 27  0  0  0  0  0  0  0  0999 V2000
  -17.8624   12.0526  -20.2225 C   0  0  0  0  0  0  0  0  0  0  0  0
  -17.6835   12.9176  -21.2577 C   0  0  0  0  0  0  0  0  0  0  0  0
  -16.6895   12.7733  -22.2391 C   0  0  0  0  0  0  0  0  0  0  0  0
  -15.8214   11.7025  -22.1926 C   0  0  0  0  0  0  0  0  0  0  0  0
  -14.8911   11.6467  -23.1930 O   0  0  0  0  0  0  0  0  0  0  0  0
  -15.9630   10.7948  -21.1583 C   0  0  0  0  0  0  0  0  0  0  0  0
  -16.9559   10.9629  -20.1893 C   0  0  0  0  0  0  0  0  0  0  0  0
  -17.0632   10.0426  -19.1856 O   0  0  0  0  0  0  0  0  0  0  0  0
  -14.2618   10.8235  -23.2483 H   0  0  0  0  0  0  0  0  0  0  0  0
  -17.7588   10.0780  -18.4625 H   0  0  0  0  0  0  0  0  0  0  0  0
  -16.5321   13.8506  -23.2248 C   0  0  0  0  0  0  0  0  0  0  0  0
  -16.6145   13.7044  -24.5833 C   0  0  0  0  0  0  0  0  0  0  0  0
  -16.4555   14.7989  -25.4500 C   0  0  0  0  0  0  0  0  0  0  0  0
  -16.2115   15.9966  -24.8398 C   0  0  0  0  0  0  0  0  0  0  0  0
  -16.0403   17.0823  -25.6419 O   0  0  0  0  0  0  0  0  0  0  0  0
  -16.1252   16.1369  -23.4680 C   0  0  0  0  0  0  0  0  0  0  0  0
  -16.2802   15.0954  -22.6123 C   0  0  0  0  0  0  0  0  0  0  0  0
  -16.1915   15.2203  -21.2537 O   0  0  0  0  0  0  0  0  0  0  0  0
  -15.7741   18.0002  -25.2375 H   0  0  0  0  0  0  0  0  0  0  0  0
  -15.9510   16.0916  -20.7600 H   0  0  0  0  0  0  0  0  0  0  0  0
  -16.7113   14.6334  -26.8575 C   0  0  0  0  0  0  0  0  0  0  0  0
  -17.1203   13.1821  -27.1597 C   0  0  0  0  0  0  0  0  0  0  0  0
  -15.8010   15.2112  -27.8602 C   0  0  0  0  0  0  0  0  0  0  0  0
  -19.9467   13.2350  -19.7521 C   0  0  0  0  0  0  0  0  0  0  0  0
  -18.8940   12.2424  -19.1962 C   0  0  0  0  0  0  0  0  0  0  0  0
  -18.3778   12.9538  -17.9547 C   0  0  0  0  0  0  0  0  0  0  0  0
 24 25  1  0  0  0
 25 26  1  0  0  0
 25  1  1  0  0  0
  1  2  2  0  0  0
  2  3  1  0  0  0
  3 11  1  0  0  0
 11 12  2  0  0  0
 12 13  1  0  0  0
 13 21  1  0  0  0
 21 22  1  0  0  0
 21 23  1  0  0  0
 13 14  2  0  0  0
 14 15  1  0  0  0
 14 16  1  0  0  0
 16 17  2  0  0  0
 17 18  1  0  0  0
  3  4  2  0  0  0
  4  5  1  0  0  0
  4  6  1  0  0  0
  6  7  2  0  0  0
  7  8  1  0  0  0
  7  1  1  0  0  0
 17 11  1  0  0  0
 15 19  1  0  0  0
 18 20  1  0  0  0
  5  9  1  0  0  0
  8 10  1  0  0  0
M  END
> <minimizedAffinity>
-8.88905

> <CNNscore>
0.7771374583

> <CNNaffinity>
6.4880676270

> <CNN_VS>
5.0421204567

> <CNNaffinity_variance>
0.1837898940

$$$$
[H]Oc1c([H])c(O[H])c(C([H])(C([H])([H])[H])C([H])([H])[H])c([H])c1-c1c([H])c(C([H])(C([H])([H])[H])C([H])([H])[H])c(O[H])c([H])c1O[H]


 26 27  0  0  0  0  0  0  0  0999 V2000
  -19.5133   11.0551  -17.3877 C   0  0  0  0  0  0  0  0  0  0  0  0
  -19.2197   11.9440  -18.3755 C   0  0  0  0  0  0  0  0  0  0  0  0
  -18.1753   11.7755  -19.2989 C   0  0  0  0  0  0  0  0  0  0  0  0
  -17.3745   10.6539  -19.2410 C   0  0  0  0  0  0  0  0  0  0  0  0
  -16.3873   10.5782  -20.1838 O   0  0  0  0  0  0  0  0  0  0  0  0
  -17.6334    9.7203  -18.2535 C   0  0  0  0  0  0  0  0  0  0  0  0
  -18.6746    9.9129  -17.3415 C   0  0  0  0  0  0  0  0  0  0  0  0
  -18.8980    8.9657  -16.3829 O   0  0  0  0  0  0  0  0  0  0  0  0
  -15.8039    9.7216  -20.2325 H   0  0  0  0  0  0  0  0  0  0  0  0
  -19.6349    9.0169  -15.7030 H   0  0  0  0  0  0  0  0  0  0  0  0
  -17.8941   12.8757  -20.2303 C   0  0  0  0  0  0  0  0  0  0  0  0
  -17.6618   12.7421  -21.5726 C   0  0  0  0  0  0  0  0  0  0  0  0
  -17.4069   13.8578  -22.3877 C   0  0  0  0  0  0  0  0  0  0  0  0
  -17.4044   15.0630  -21.7442 C   0  0  0  0  0  0  0  0  0  0  0  0
  -17.1510   16.1702  -22.4937 O   0  0  0  0  0  0  0  0  0  0  0  0
  -17.6353   15.1908  -20.3881 C   0  0  0  0  0  0  0  0  0  0  0  0
  -17.8884   14.1284  -19.5831 C   0  0  0  0  0  0  0  0  0  0  0  0
  -18.1129   14.2413  -18.2391 O   0  0  0  0  0  0  0  0  0  0  0  0
  -17.0582   17.1011  -22.0447 H   0  0  0  0  0  0  0  0  0  0  0  0
  -18.0608   15.1224  -17.7086 H   0  0  0  0  0  0  0  0  0  0  0  0
  -17.3306   13.6914  -23.8161 C   0  0  0  0  0  0  0  0  0  0  0  0
  -15.8627   13.6644  -24.2738 C   0  0  0  0  0  0  0  0  0  0  0  0
  -18.2138   14.4581  -24.7107 C   0  0  0  0  0  0  0  0  0  0  0  0
  -21.1653   12.6933  -16.6456 C   0  0  0  0  0  0  0  0  0  0  0  0
  -20.5955   11.2696  -16.4200 C   0  0  0  0  0  0  0  0  0  0  0  0
  -20.1077   11.3226  -14.9803 C   0  0  0  0  0  0  0  0  0  0  0  0
 24 25  1  0  0  0
 25 26  1  0  0  0
 25  1  1  0  0  0
  1  2  2  0  0  0
  2  3  1  0  0  0
  3 11  1  0  0  0
 11 12  2  0  0  0
 12 13  1  0  0  0
 13 21  1  0  0  0
 21 22  1  0  0  0
 21 23  1  0  0  0
 13 14  2  0  0  0
 14 15  1  0  0  0
 14 16  1  0  0  0
 16 17  2  0  0  0
 17 18  1  0  0  0
  3  4  2  0  0  0
  4  5  1  0  0  0
  4  6  1  0  0  0
  6  7  2  0  0  0
  7  8  1  0  0  0
  7  1  1  0  0  0
 17 11  1  0  0  0
 15 19  1  0  0  0
 18 20  1  0  0  0
  5  9  1  0  0  0
  8 10  1  0  0  0
M  END
> <minimizedAffinity>
-7.78770

> <CNNscore>
0.6956865191

> <CNNaffinity>
5.8976902962

> <CNN_VS>
4.1029434204

> <CNNaffinity_variance>
0.2250528783

$$$$
[H]Oc1c([H])c(O[H])c(C([H])(C([H])([H])[H])C([H])([H])[H])c([H])c1-c1c([H])c(C([H])(C([H])([H])[H])C([H])([H])[H])c(O[H])c([H])c1O[H]


 26 27  0  0  0  0  0  0  0  0999 V2000
  -16.1525   16.0481  -24.1874 C   0  0  0  0  0  0  0  0  0  0  0  0
  -16.4802   15.1024  -23.2654 C   0  0  0  0  0  0  0  0  0  0  0  0
  -17.6192   15.1652  -22.4465 C   0  0  0  0  0  0  0  0  0  0  0  0
  -18.4891   16.2305  -22.5513 C   0  0  0  0  0  0  0  0  0  0  0  0
  -19.5702   16.2006  -21.7149 O   0  0  0  0  0  0  0  0  0  0  0  0
  -18.1990   17.2185  -23.4752 C   0  0  0  0  0  0  0  0  0  0  0  0
  -17.0557   17.1375  -24.2747 C   0  0  0  0  0  0  0  0  0  0  0  0
  -16.8069   18.1334  -25.1761 O   0  0  0  0  0  0  0  0  0  0  0  0
  -20.2944   16.9383  -21.8036 H   0  0  0  0  0  0  0  0  0  0  0  0
  -16.0209   18.1429  -25.8005 H   0  0  0  0  0  0  0  0  0  0  0  0
  -17.7796   14.1388  -21.4083 C   0  0  0  0  0  0  0  0  0  0  0  0
  -18.1054   14.3745  -20.0999 C   0  0  0  0  0  0  0  0  0  0  0  0
  -18.2433   13.3238  -19.1774 C   0  0  0  0  0  0  0  0  0  0  0  0
  -18.0250   12.0724  -19.6803 C   0  0  0  0  0  0  0  0  0  0  0  0
  -18.1374   11.0252  -18.8188 O   0  0  0  0  0  0  0  0  0  0  0  0
  -17.6921   11.8414  -21.0011 C   0  0  0  0  0  0  0  0  0  0  0  0
  -17.5586   12.8397  -21.9101 C   0  0  0  0  0  0  0  0  0  0  0  0
  -17.2241   12.6245  -23.2182 O   0  0  0  0  0  0  0  0  0  0  0  0
  -17.9051   10.0617  -19.1266 H   0  0  0  0  0  0  0  0  0  0  0  0
  -16.9943   11.7046  -23.6203 H   0  0  0  0  0  0  0  0  0  0  0  0
  -18.7454   13.5998  -17.8562 C   0  0  0  0  0  0  0  0  0  0  0  0
  -20.2561   13.3206  -17.7890 C   0  0  0  0  0  0  0  0  0  0  0  0
  -18.3375   14.8177  -17.1361 C   0  0  0  0  0  0  0  0  0  0  0  0
  -15.3560   15.4983  -26.4295 C   0  0  0  0  0  0  0  0  0  0  0  0
  -14.9412   15.9693  -25.0123 C   0  0  0  0  0  0  0  0  0  0  0  0
  -13.9801   14.8807  -24.5595 C   0  0  0  0  0  0  0  0  0  0  0  0
 24 25  1  0  0  0
 25 26  1  0  0  0
 25  1  1  0  0  0
  1  2  2  0  0  0
  2  3  1  0  0  0
  3 11  1  0  0  0
 11 12  2  0  0  0
 12 13  1  0  0  0
 13 21  1  0  0  0
 21 22  1  0  0  0
 21 23  1  0  0  0
 13 14  2  0  0  0
 14 15  1  0  0  0
 14 16  1  0  0  0
 16 17  2  0  0  0
 17 18  1  0  0  0
  3  4  2  0  0  0
  4  5  1  0  0  0
  4  6  1  0  0  0
  6  7  2  0  0  0
  7  8  1  0  0  0
  7  1  1  0  0  0
 17 11  1  0  0  0
 15 19  1  0  0  0
 18 20  1  0  0  0
  5  9  1  0  0  0
  8 10  1  0  0  0
M  END
> <minimizedAffinity>
-8.32822

> <CNNscore>
0.6886873841

> <CNNaffinity>
6.1663384438

> <CNN_VS>
4.2466793060

> <CNNaffinity_variance>
0.1515550315

$$$$
[H]Oc1c([H])c(O[H])c(C([H])(C([H])([H])[H])C([H])([H])[H])c([H])c1-c1c([H])c(C([H])(C([H])([H])[H])C([H])([H])[H])c(O[H])c([H])c1O[H]


 26 27  0  0  0  0  0  0  0  0999 V2000
  -17.7302   12.0097  -20.0950 C   0  0  0  0  0  0  0  0  0  0  0  0
  -17.1944   12.7665  -21.0911 C   0  0  0  0  0  0  0  0  0  0  0  0
  -17.7402   13.9821  -21.5342 C   0  0  0  0  0  0  0  0  0  0  0  0
  -18.8867   14.4796  -20.9505 C   0  0  0  0  0  0  0  0  0  0  0  0
  -19.3391   15.6703  -21.4476 O   0  0  0  0  0  0  0  0  0  0  0  0
  -19.4694   13.7459  -19.9327 C   0  0  0  0  0  0  0  0  0  0  0  0
  -18.9115   12.5353  -19.5131 C   0  0  0  0  0  0  0  0  0  0  0  0
  -19.5170   11.8427  -18.5033 O   0  0  0  0  0  0  0  0  0  0  0  0
  -20.1543   16.1260  -20.9955 H   0  0  0  0  0  0  0  0  0  0  0  0
  -19.1719   10.9771  -18.1296 H   0  0  0  0  0  0  0  0  0  0  0  0
  -17.1280   14.6277  -22.7028 C   0  0  0  0  0  0  0  0  0  0  0  0
  -17.2559   14.2105  -24.0002 C   0  0  0  0  0  0  0  0  0  0  0  0
  -16.6358   14.8988  -25.0566 C   0  0  0  0  0  0  0  0  0  0  0  0
  -15.9047   15.9935  -24.6912 C   0  0  0  0  0  0  0  0  0  0  0  0
  -15.2777   16.6843  -25.6818 O   0  0  0  0  0  0  0  0  0  0  0  0
  -15.7759   16.4069  -23.3792 C   0  0  0  0  0  0  0  0  0  0  0  0
  -16.3696   15.7610  -22.3443 C   0  0  0  0  0  0  0  0  0  0  0  0
  -16.2452   16.1568  -21.0415 O   0  0  0  0  0  0  0  0  0  0  0  0
  -14.6455   17.4752  -25.4546 H   0  0  0  0  0  0  0  0  0  0  0  0
  -15.6569   16.9387  -20.7205 H   0  0  0  0  0  0  0  0  0  0  0  0
  -16.9282   14.5253  -26.4163 C   0  0  0  0  0  0  0  0  0  0  0  0
  -17.2668   13.0275  -26.4985 C   0  0  0  0  0  0  0  0  0  0  0  0
  -16.0841   15.0013  -27.5250 C   0  0  0  0  0  0  0  0  0  0  0  0
  -16.0887   11.0220  -18.5807 C   0  0  0  0  0  0  0  0  0  0  0  0
  -17.1523   10.7296  -19.6696 C   0  0  0  0  0  0  0  0  0  0  0  0
  -16.3425   10.0475  -20.7617 C   0  0  0  0  0  0  0  0  0  0  0  0
 24 25  1  0  0  0
 25 26  1  0  0  0
 25  1  1  0  0  0
  1  2  2  0  0  0
  2  3  1  0  0  0
  3 11  1  0  0  0
 11 12  2  0  0  0
 12 13  1  0  0  0
 13 21  1  0  0  0
 21 22  1  0  0  0
 21 23  1  0  0  0
 13 14  2  0  0  0
 14 15  1  0  0  0
 14 16  1  0  0  0
 16 17  2  0  0  0
 17 18  1  0  0  0
  3  4  2  0  0  0
  4  5  1  0  0  0
  4  6  1  0  0  0
  6  7  2  0  0  0
  7  8  1  0  0  0
  7  1  1  0  0  0
 17 11  1  0  0  0
 15 19  1  0  0  0
 18 20  1  0  0  0
  5  9  1  0  0  0
  8 10  1  0  0  0
M  END
> <minimizedAffinity>
-8.95646

> <CNNscore>
0.6205726862

> <CNNaffinity>
6.1115045547

> <CNN_VS>
3.7926328182

> <CNNaffinity_variance>
0.0765821487

$$$$
[H]Oc1c([H])c(O[H])c(C([H])(C([H])([H])[H])C([H])([H])[H])c([H])c1-c1c([H])c(C([H])(C([H])([H])[H])C([H])([H])[H])c(O[H])c([H])c1O[H]


 26 27  0  0  0  0  0  0  0  0999 V2000
  -17.2045   14.6169  -24.7988 C   0  0  0  0  0  0  0  0  0  0  0  0
  -17.5168   13.9023  -23.6836 C   0  0  0  0  0  0  0  0  0  0  0  0
  -17.2283   14.3225  -22.3751 C   0  0  0  0  0  0  0  0  0  0  0  0
  -16.5938   15.5281  -22.1594 C   0  0  0  0  0  0  0  0  0  0  0  0
  -16.3592   15.8516  -20.8519 O   0  0  0  0  0  0  0  0  0  0  0  0
  -16.2555   16.2915  -23.2625 C   0  0  0  0  0  0  0  0  0  0  0  0
  -16.5472   15.8494  -24.5557 C   0  0  0  0  0  0  0  0  0  0  0  0
  -16.1980   16.6345  -25.6176 O   0  0  0  0  0  0  0  0  0  0  0  0
  -15.9522   16.7797  -20.6294 H   0  0  0  0  0  0  0  0  0  0  0  0
  -16.3875   16.4011  -26.5755 H   0  0  0  0  0  0  0  0  0  0  0  0
  -17.5088   13.3917  -21.2743 C   0  0  0  0  0  0  0  0  0  0  0  0
  -18.3524   13.6329  -20.2237 C   0  0  0  0  0  0  0  0  0  0  0  0
  -18.5631   12.6755  -19.2171 C   0  0  0  0  0  0  0  0  0  0  0  0
  -17.8676   11.5090  -19.3656 C   0  0  0  0  0  0  0  0  0  0  0  0
  -18.0333   10.5572  -18.4074 O   0  0  0  0  0  0  0  0  0  0  0  0
  -17.0141   11.2733  -20.4261 C   0  0  0  0  0  0  0  0  0  0  0  0
  -16.7994   12.1808  -21.4116 C   0  0  0  0  0  0  0  0  0  0  0  0
  -15.9532   11.9617  -22.4629 O   0  0  0  0  0  0  0  0  0  0  0  0
  -17.4705    9.6856  -18.4269 H   0  0  0  0  0  0  0  0  0  0  0  0
  -15.3679   11.1223  -22.5786 H   0  0  0  0  0  0  0  0  0  0  0  0
  -19.5788   12.9029  -18.2219 C   0  0  0  0  0  0  0  0  0  0  0  0
  -20.7478   13.7008  -18.8232 C   0  0  0  0  0  0  0  0  0  0  0  0
  -19.2149   13.3254  -16.8591 C   0  0  0  0  0  0  0  0  0  0  0  0
  -17.6002   12.5952  -26.1102 C   0  0  0  0  0  0  0  0  0  0  0  0
  -17.4954   14.1409  -26.1562 C   0  0  0  0  0  0  0  0  0  0  0  0
  -16.3504   14.3756  -27.1297 C   0  0  0  0  0  0  0  0  0  0  0  0
 24 25  1  0  0  0
 25 26  1  0  0  0
 25  1  1  0  0  0
  1  2  2  0  0  0
  2  3  1  0  0  0
  3 11  1  0  0  0
 11 12  2  0  0  0
 12 13  1  0  0  0
 13 21  1  0  0  0
 21 22  1  0  0  0
 21 23  1  0  0  0
 13 14  2  0  0  0
 14 15  1  0  0  0
 14 16  1  0  0  0
 16 17  2  0  0  0
 17 18  1  0  0  0
  3  4  2  0  0  0
  4  5  1  0  0  0
  4  6  1  0  0  0
  6  7  2  0  0  0
  7  8  1  0  0  0
  7  1  1  0  0  0
 17 11  1  0  0  0
 15 19  1  0  0  0
 18 20  1  0  0  0
  5  9  1  0  0  0
  8 10  1  0  0  0
M  END
> <minimizedAffinity>
-8.15268

> <CNNscore>
0.5870965719

> <CNNaffinity>
6.1819663048

> <CNN_VS>
3.6294112206

> <CNNaffinity_variance>
0.2788805962

$$$$
[H]Oc1c([H])c(O[H])c(C([H])(C([H])([H])[H])C([H])([H])[H])c([H])c1-c1c([H])c(C([H])(C([H])([H])[H])C([H])([H])[H])c(O[H])c([H])c1O[H]


 26 27  0  0  0  0  0  0  0  0999 V2000
  -16.8507   15.3101  -24.7213 C   0  0  0  0  0  0  0  0  0  0  0  0
  -17.3678   14.5771  -23.6980 C   0  0  0  0  0  0  0  0  0  0  0  0
  -17.2434   14.9231  -22.3428 C   0  0  0  0  0  0  0  0  0  0  0  0
  -16.5671   16.0693  -21.9804 C   0  0  0  0  0  0  0  0  0  0  0  0
  -16.5022   16.3230  -20.6385 O   0  0  0  0  0  0  0  0  0  0  0  0
  -16.0228   16.8486  -22.9856 C   0  0  0  0  0  0  0  0  0  0  0  0
  -16.1540   16.4803  -24.3273 C   0  0  0  0  0  0  0  0  0  0  0  0
  -15.6034   17.2787  -25.2893 O   0  0  0  0  0  0  0  0  0  0  0  0
  -16.0702   17.2092  -20.3152 H   0  0  0  0  0  0  0  0  0  0  0  0
  -15.6681   17.0979  -26.2746 H   0  0  0  0  0  0  0  0  0  0  0  0
  -17.7416   13.9728  -21.3398 C   0  0  0  0  0  0  0  0  0  0  0  0
  -17.1688   12.7686  -21.0311 C   0  0  0  0  0  0  0  0  0  0  0  0
  -17.7160   11.9263  -20.0486 C   0  0  0  0  0  0  0  0  0  0  0  0
  -18.8469   12.3944  -19.4417 C   0  0  0  0  0  0  0  0  0  0  0  0
  -19.4171   11.6056  -18.4908 O   0  0  0  0  0  0  0  0  0  0  0  0
  -19.4228   13.6090  -19.7610 C   0  0  0  0  0  0  0  0  0  0  0  0
  -18.9091   14.4403  -20.7022 C   0  0  0  0  0  0  0  0  0  0  0  0
  -19.4727   15.6418  -21.0310 O   0  0  0  0  0  0  0  0  0  0  0  0
  -20.3196   11.8740  -18.0546 H   0  0  0  0  0  0  0  0  0  0  0  0
  -20.3549   16.0016  -20.6399 H   0  0  0  0  0  0  0  0  0  0  0  0
  -16.9942   10.7490  -19.6401 C   0  0  0  0  0  0  0  0  0  0  0  0
  -16.0419   11.0814  -18.4792 C   0  0  0  0  0  0  0  0  0  0  0  0
  -16.4105    9.8399  -20.6406 C   0  0  0  0  0  0  0  0  0  0  0  0
  -17.2284   13.3822  -26.1720 C   0  0  0  0  0  0  0  0  0  0  0  0
  -16.9742   14.9106  -26.1281 C   0  0  0  0  0  0  0  0  0  0  0  0
  -15.6773   15.0624  -26.9082 C   0  0  0  0  0  0  0  0  0  0  0  0
 24 25  1  0  0  0
 25 26  1  0  0  0
 25  1  1  0  0  0
  1  2  2  0  0  0
  2  3  1  0  0  0
  3 11  1  0  0  0
 11 12  2  0  0  0
 12 13  1  0  0  0
 13 21  1  0  0  0
 21 22  1  0  0  0
 21 23  1  0  0  0
 13 14  2  0  0  0
 14 15  1  0  0  0
 14 16  1  0  0  0
 16 17  2  0  0  0
 17 18  1  0  0  0
  3  4  2  0  0  0
  4  5  1  0  0  0
  4  6  1  0  0  0
  6  7  2  0  0  0
  7  8  1  0  0  0
  7  1  1  0  0  0
 17 11  1  0  0  0
 15 19  1  0  0  0
 18 20  1  0  0  0
  5  9  1  0  0  0
  8 10  1  0  0  0
M  END
> <minimizedAffinity>
-8.43363

> <CNNscore>
0.5597534180

> <CNNaffinity>
6.0401616096

> <CNN_VS>
3.3810009956

> <CNNaffinity_variance>
0.0952618718

$$$$
[H]Oc1c([H])c(O[H])c(C([H])(C([H])([H])[H])C([H])([H])[H])c([H])c1-c1c([H])c(C([H])(C([H])([H])[H])C([H])([H])[H])c(O[H])c([H])c1O[H]


 26 27  0  0  0  0  0  0  0  0999 V2000
  -22.2736   18.3689  -23.6494 C   0  0  0  0  0  0  0  0  0  0  0  0
  -21.0969   17.7522  -23.9442 C   0  0  0  0  0  0  0  0  0  0  0  0
  -20.0783   17.5148  -23.0072 C   0  0  0  0  0  0  0  0  0  0  0  0
  -20.2383   17.9106  -21.6956 C   0  0  0  0  0  0  0  0  0  0  0  0
  -19.1936   17.6330  -20.8584 O   0  0  0  0  0  0  0  0  0  0  0  0
  -21.4185   18.5425  -21.3464 C   0  0  0  0  0  0  0  0  0  0  0  0
  -22.4154   18.7736  -22.2980 C   0  0  0  0  0  0  0  0  0  0  0  0
  -23.5668   19.3988  -21.9113 O   0  0  0  0  0  0  0  0  0  0  0  0
  -19.2915   17.8419  -19.8468 H   0  0  0  0  0  0  0  0  0  0  0  0
  -24.3386   19.5855  -22.5255 H   0  0  0  0  0  0  0  0  0  0  0  0
  -18.8110   16.9538  -23.4935 C   0  0  0  0  0  0  0  0  0  0  0  0
  -18.4941   15.6229  -23.5354 C   0  0  0  0  0  0  0  0  0  0  0  0
  -17.2543   15.1789  -24.0252 C   0  0  0  0  0  0  0  0  0  0  0  0
  -16.4048   16.1639  -24.4432 C   0  0  0  0  0  0  0  0  0  0  0  0
  -15.1878   15.7795  -24.9154 O   0  0  0  0  0  0  0  0  0  0  0  0
  -16.7289   17.5060  -24.3943 C   0  0  0  0  0  0  0  0  0  0  0  0
  -17.9214   17.9568  -23.9302 C   0  0  0  0  0  0  0  0  0  0  0  0
  -18.2518   19.2823  -23.8715 O   0  0  0  0  0  0  0  0  0  0  0  0
  -14.4738   16.4877  -25.1715 H   0  0  0  0  0  0  0  0  0  0  0  0
  -17.6186   20.0553  -24.1207 H   0  0  0  0  0  0  0  0  0  0  0  0
  -17.0251   13.7685  -24.2044 C   0  0  0  0  0  0  0  0  0  0  0  0
  -17.7714   13.2592  -25.4488 C   0  0  0  0  0  0  0  0  0  0  0  0
  -17.0880   12.8450  -23.0592 C   0  0  0  0  0  0  0  0  0  0  0  0
  -23.3760   17.4012  -25.6018 C   0  0  0  0  0  0  0  0  0  0  0  0
  -23.3107   18.6268  -24.6553 C   0  0  0  0  0  0  0  0  0  0  0  0
  -22.9576   19.7668  -25.5984 C   0  0  0  0  0  0  0  0  0  0  0  0
 24 25  1  0  0  0
 25 26  1  0  0  0
 25  1  1  0  0  0
  1  2  2  0  0  0
  2  3  1  0  0  0
  3 11  1  0  0  0
 11 12  2  0  0  0
 12 13  1  0  0  0
 13 21  1  0  0  0
 21 22  1  0  0  0
 21 23  1  0  0  0
 13 14  2  0  0  0
 14 15  1  0  0  0
 14 16  1  0  0  0
 16 17  2  0  0  0
 17 18  1  0  0  0
  3  4  2  0  0  0
  4  5  1  0  0  0
  4  6  1  0  0  0
  6  7  2  0  0  0
  7  8  1  0  0  0
  7  1  1  0  0  0
 17 11  1  0  0  0
 15 19  1  0  0  0
 18 20  1  0  0  0
  5  9  1  0  0  0
  8 10  1  0  0  0
M  END
> <minimizedAffinity>
-7.22066

> <CNNscore>
0.4953404367

> <CNNaffinity>
5.5174818039

> <CNN_VS>
2.7330317497

> <CNNaffinity_variance>
0.1411538720

$$$$
[H]Oc1c([H])c(O[H])c(C([H])(C([H])([H])[H])C([H])([H])[H])c([H])c1-c1c([H])c(C([H])(C([H])([H])[H])C([H])([H])[H])c(O[H])c([H])c1O[H]


 26 27  0  0  0  0  0  0  0  0999 V2000
  -17.1166   14.9934  -24.2762 C   0  0  0  0  0  0  0  0  0  0  0  0
  -18.3254   15.5035  -23.9150 C   0  0  0  0  0  0  0  0  0  0  0  0
  -18.5942   16.8765  -23.7945 C   0  0  0  0  0  0  0  0  0  0  0  0
  -17.6034   17.8009  -24.0518 C   0  0  0  0  0  0  0  0  0  0  0  0
  -17.9621   19.1127  -23.9108 O   0  0  0  0  0  0  0  0  0  0  0  0
  -16.3561   17.3312  -24.4227 C   0  0  0  0  0  0  0  0  0  0  0  0
  -16.1105   15.9597  -24.5297 C   0  0  0  0  0  0  0  0  0  0  0  0
  -14.8655   15.5376  -24.9009 O   0  0  0  0  0  0  0  0  0  0  0  0
  -17.2778   19.8505  -24.1636 H   0  0  0  0  0  0  0  0  0  0  0  0
  -14.6109   14.5738  -25.0198 H   0  0  0  0  0  0  0  0  0  0  0  0
  -19.9070   17.2790  -23.2733 C   0  0  0  0  0  0  0  0  0  0  0  0
  -20.9757   17.6770  -24.0304 C   0  0  0  0  0  0  0  0  0  0  0  0
  -22.1985   18.0390  -23.4405 C   0  0  0  0  0  0  0  0  0  0  0  0
  -22.2327   17.9682  -22.0765 C   0  0  0  0  0  0  0  0  0  0  0  0
  -23.3947   18.3204  -21.4622 O   0  0  0  0  0  0  0  0  0  0  0  0
  -21.1491   17.5698  -21.3177 C   0  0  0  0  0  0  0  0  0  0  0  0
  -19.9609   17.2113  -21.8660 C   0  0  0  0  0  0  0  0  0  0  0  0
  -18.8797   16.8208  -21.1258 O   0  0  0  0  0  0  0  0  0  0  0  0
  -23.4524   18.3620  -20.4269 H   0  0  0  0  0  0  0  0  0  0  0  0
  -18.8471   16.8113  -20.0965 H   0  0  0  0  0  0  0  0  0  0  0  0
  -23.3431   18.2927  -24.2768 C   0  0  0  0  0  0  0  0  0  0  0  0
  -23.3928   17.2834  -25.4359 C   0  0  0  0  0  0  0  0  0  0  0  0
  -23.6939   19.6663  -24.6747 C   0  0  0  0  0  0  0  0  0  0  0  0
  -17.8387   12.9540  -25.4090 C   0  0  0  0  0  0  0  0  0  0  0  0
  -16.8569   13.5520  -24.3694 C   0  0  0  0  0  0  0  0  0  0  0  0
  -17.2089   12.7981  -23.0960 C   0  0  0  0  0  0  0  0  0  0  0  0
 24 25  1  0  0  0
 25 26  1  0  0  0
 25  1  1  0  0  0
  1  2  2  0  0  0
  2  3  1  0  0  0
  3 11  1  0  0  0
 11 12  2  0  0  0
 12 13  1  0  0  0
 13 21  1  0  0  0
 21 22  1  0  0  0
 21 23  1  0  0  0
 13 14  2  0  0  0
 14 15  1  0  0  0
 14 16  1  0  0  0
 16 17  2  0  0  0
 17 18  1  0  0  0
  3  4  2  0  0  0
  4  5  1  0  0  0
  4  6  1  0  0  0
  6  7  2  0  0  0
  7  8  1  0  0  0
  7  1  1  0  0  0
 17 11  1  0  0  0
 15 19  1  0  0  0
 18 20  1  0  0  0
  5  9  1  0  0  0
  8 10  1  0  0  0
M  END
> <minimizedAffinity>
-7.21095

> <CNNscore>
0.4733745158

> <CNNaffinity>
5.5430154800

> <CNN_VS>
2.6239223480

> <CNNaffinity_variance>
0.1443272680

$$$$
[H]c1c([H])c(S(=O)(=O)N([H])c2c([H])c(C(F)(F)F)c([H])c(C([H])(C([H])([H])[H])C([H])([H])[H])c2[H])c([H])c([H])c1OC([H])([H])[H]


 26 27  0  0  0  0  0  0  0  0999 V2000
  -18.1646   12.1816  -20.1458 N   0  0  0  0  0  0  0  0  0  0  0  0
  -19.2260   12.1464  -20.2076 H   0  0  0  0  0  0  0  0  0  0  0  0
  -17.5450   13.2148  -20.8565 C   0  0  0  0  0  0  0  0  0  0  0  0
  -16.9655   12.9794  -22.1200 C   0  0  0  0  0  0  0  0  0  0  0  0
  -16.3759   13.9946  -22.8387 C   0  0  0  0  0  0  0  0  0  0  0  0
  -16.3366   15.2689  -22.3424 C   0  0  0  0  0  0  0  0  0  0  0  0
  -16.9018   15.5448  -21.0883 C   0  0  0  0  0  0  0  0  0  0  0  0
  -17.4889   14.5114  -20.3823 C   0  0  0  0  0  0  0  0  0  0  0  0
  -16.8527   16.9258  -20.5881 C   0  0  0  0  0  0  0  0  0  0  0  0
  -17.0060   17.7762  -21.6628 F   0  0  0  0  0  0  0  0  0  0  0  0
  -17.8186   17.1563  -19.6346 F   0  0  0  0  0  0  0  0  0  0  0  0
  -15.6146   17.1274  -19.9560 F   0  0  0  0  0  0  0  0  0  0  0  0
  -15.8109   13.6676  -24.1606 C   0  0  0  0  0  0  0  0  0  0  0  0
  -14.5398   14.4444  -24.3844 C   0  0  0  0  0  0  0  0  0  0  0  0
  -16.7506   13.7260  -25.3072 C   0  0  0  0  0  0  0  0  0  0  0  0
  -17.4203   10.9819  -19.1970 S   0  0  0  0  0  0  0  0  0  0  0  0
  -17.1909    9.7594  -20.0622 O   0  0  0  0  0  0  0  0  0  0  0  0
  -16.1327   11.4346  -18.5810 O   0  0  0  0  0  0  0  0  0  0  0  0
  -20.2807    9.5993  -15.9079 C   0  0  0  0  0  0  0  0  0  0  0  0
  -19.3159    8.7516  -16.4234 C   0  0  0  0  0  0  0  0  0  0  0  0
  -18.4754    9.2023  -17.4174 C   0  0  0  0  0  0  0  0  0  0  0  0
  -18.5447   10.4843  -17.9400 C   0  0  0  0  0  0  0  0  0  0  0  0
  -19.4897   11.3207  -17.4406 C   0  0  0  0  0  0  0  0  0  0  0  0
  -20.3685   10.9018  -16.4252 C   0  0  0  0  0  0  0  0  0  0  0  0
  -21.7393    8.0126  -14.6861 C   0  0  0  0  0  0  0  0  0  0  0  0
  -21.1746    9.2624  -14.9167 O   0  0  0  0  0  0  0  0  0  0  0  0
 25 26  1  0  0  0
 26 19  1  0  0  0
 19 20  2  0  0  0
 20 21  1  0  0  0
 21 22  2  0  0  0
 22 23  1  0  0  0
 23 24  2  0  0  0
 22 16  1  0  0  0
 16 17  2  0  0  0
 16 18  2  0  0  0
 16  1  1  0  0  0
  1  3  1  0  0  0
  3  4  2  0  0  0
  4  5  1  0  0  0
  5  6  2  0  0  0
  6  7  1  0  0  0
  7  8  2  0  0  0
  7  9  1  0  0  0
  9 10  1  0  0  0
  9 11  1  0  0  0
  9 12  1  0  0  0
  5 13  1  0  0  0
 13 14  1  0  0  0
 13 15  1  0  0  0
 24 19  1  0  0  0
  8  3  1  0  0  0
  1  2  1  0  0  0
M  END
> <minimizedAffinity>
-7.99348

> <CNNscore>
0.5783958435

> <CNNaffinity>
6.0283446312

> <CNN_VS>
3.4867694378

> <CNNaffinity_variance>
0.1447137445

$$$$
[H]c1c([H])c(S(=O)(=O)N([H])c2c([H])c(C(F)(F)F)c([H])c(C([H])(C([H])([H])[H])C([H])([H])[H])c2[H])c([H])c([H])c1OC([H])([H])[H]


 26 27  0  0  0  0  0  0  0  0999 V2000
  -17.8747    9.7845  -19.0131 N   0  0  0  0  0  0  0  0  0  0  0  0
  -18.2349    8.9619  -19.5834 H   0  0  0  0  0  0  0  0  0  0  0  0
  -18.5797   10.0696  -17.8391 C   0  0  0  0  0  0  0  0  0  0  0  0
  -19.1927   11.3247  -17.6484 C   0  0  0  0  0  0  0  0  0  0  0  0
  -19.9102   11.6064  -16.5079 C   0  0  0  0  0  0  0  0  0  0  0  0
  -20.0489   10.6684  -15.5216 C   0  0  0  0  0  0  0  0  0  0  0  0
  -19.4538    9.4068  -15.6727 C   0  0  0  0  0  0  0  0  0  0  0  0
  -18.7372    9.1439  -16.8254 C   0  0  0  0  0  0  0  0  0  0  0  0
  -19.6303    8.4178  -14.6002 C   0  0  0  0  0  0  0  0  0  0  0  0
  -18.6253    8.6058  -13.6747 F   0  0  0  0  0  0  0  0  0  0  0  0
  -20.8699    8.5222  -14.0106 F   0  0  0  0  0  0  0  0  0  0  0  0
  -19.5653    7.1327  -15.1635 F   0  0  0  0  0  0  0  0  0  0  0  0
  -20.5363   12.9364  -16.3962 C   0  0  0  0  0  0  0  0  0  0  0  0
  -21.6241   12.9082  -15.3545 C   0  0  0  0  0  0  0  0  0  0  0  0
  -20.9521   13.5737  -17.6698 C   0  0  0  0  0  0  0  0  0  0  0  0
  -16.5133   10.5964  -19.6301 S   0  0  0  0  0  0  0  0  0  0  0  0
  -15.7208   11.1573  -18.4668 O   0  0  0  0  0  0  0  0  0  0  0  0
  -15.6440    9.7232  -20.4812 O   0  0  0  0  0  0  0  0  0  0  0  0
  -17.9464   14.2658  -21.9525 C   0  0  0  0  0  0  0  0  0  0  0  0
  -18.0458   14.2049  -20.5735 C   0  0  0  0  0  0  0  0  0  0  0  0
  -17.6080   13.0806  -19.9089 C   0  0  0  0  0  0  0  0  0  0  0  0
  -17.0624   11.9846  -20.5592 C   0  0  0  0  0  0  0  0  0  0  0  0
  -16.9635   12.0364  -21.9118 C   0  0  0  0  0  0  0  0  0  0  0  0
  -17.3981   13.1649  -22.6302 C   0  0  0  0  0  0  0  0  0  0  0  0
  -19.0589   16.4518  -22.3010 C   0  0  0  0  0  0  0  0  0  0  0  0
  -18.3494   15.3327  -22.7233 O   0  0  0  0  0  0  0  0  0  0  0  0
 25 26  1  0  0  0
 26 19  1  0  0  0
 19 20  2  0  0  0
 20 21  1  0  0  0
 21 22  2  0  0  0
 22 23  1  0  0  0
 23 24  2  0  0  0
 22 16  1  0  0  0
 16 17  2  0  0  0
 16 18  2  0  0  0
 16  1  1  0  0  0
  1  3  1  0  0  0
  3  4  2  0  0  0
  4  5  1  0  0  0
  5  6  2  0  0  0
  6  7  1  0  0  0
  7  8  2  0  0  0
  7  9  1  0  0  0
  9 10  1  0  0  0
  9 11  1  0  0  0
  9 12  1  0  0  0
  5 13  1  0  0  0
 13 14  1  0  0  0
 13 15  1  0  0  0
 24 19  1  0  0  0
  8  3  1  0  0  0
  1  2  1  0  0  0
M  END
> <minimizedAffinity>
-7.20947

> <CNNscore>
0.5134728551

> <CNNaffinity>
5.9211645126

> <CNN_VS>
3.0403573513

> <CNNaffinity_variance>
0.1402293742

$$$$
[H]c1c([H])c(S(=O)(=O)N([H])c2c([H])c(C(F)(F)F)c([H])c(C([H])(C([H])([H])[H])C([H])([H])[H])c2[H])c([H])c([H])c1OC([H])([H])[H]


 26 27  0  0  0  0  0  0  0  0999 V2000
  -17.6311    9.6375  -19.1075 N   0  0  0  0  0  0  0  0  0  0  0  0
  -17.8280    8.7186  -19.6062 H   0  0  0  0  0  0  0  0  0  0  0  0
  -18.4537    9.9279  -18.0141 C   0  0  0  0  0  0  0  0  0  0  0  0
  -18.6859    8.9691  -17.0069 C   0  0  0  0  0  0  0  0  0  0  0  0
  -19.4731    9.2535  -15.9141 C   0  0  0  0  0  0  0  0  0  0  0  0
  -20.0552   10.4838  -15.7750 C   0  0  0  0  0  0  0  0  0  0  0  0
  -19.8491   11.4658  -16.7556 C   0  0  0  0  0  0  0  0  0  0  0  0
  -19.0555   11.1602  -17.8455 C   0  0  0  0  0  0  0  0  0  0  0  0
  -20.4796   12.7805  -16.5715 C   0  0  0  0  0  0  0  0  0  0  0  0
  -21.1721   13.0884  -17.7236 F   0  0  0  0  0  0  0  0  0  0  0  0
  -21.3128   12.7964  -15.4757 F   0  0  0  0  0  0  0  0  0  0  0  0
  -19.4725   13.7265  -16.3185 F   0  0  0  0  0  0  0  0  0  0  0  0
  -19.6489    8.2013  -14.8965 C   0  0  0  0  0  0  0  0  0  0  0  0
  -20.6061    7.1525  -15.3996 C   0  0  0  0  0  0  0  0  0  0  0  0
  -19.9486    8.6653  -13.5196 C   0  0  0  0  0  0  0  0  0  0  0  0
  -16.3571   10.5786  -19.7277 S   0  0  0  0  0  0  0  0  0  0  0  0
  -15.5805   11.1614  -18.5645 O   0  0  0  0  0  0  0  0  0  0  0  0
  -15.4443    9.8094  -20.6318 O   0  0  0  0  0  0  0  0  0  0  0  0
  -18.1541   14.1938  -21.8754 C   0  0  0  0  0  0  0  0  0  0  0  0
  -18.2992   14.0249  -20.5096 C   0  0  0  0  0  0  0  0  0  0  0  0
  -17.7480   12.9203  -19.8984 C   0  0  0  0  0  0  0  0  0  0  0  0
  -17.0419   11.9489  -20.5909 C   0  0  0  0  0  0  0  0  0  0  0  0
  -16.8972   12.1069  -21.9311 C   0  0  0  0  0  0  0  0  0  0  0  0
  -17.4436   13.2199  -22.5955 C   0  0  0  0  0  0  0  0  0  0  0  0
  -18.0018   16.4342  -22.9219 C   0  0  0  0  0  0  0  0  0  0  0  0
  -18.6593   15.2533  -22.5945 O   0  0  0  0  0  0  0  0  0  0  0  0
 25 26  1  0  0  0
 26 19  1  0  0  0
 19 20  2  0  0  0
 20 21  1  0  0  0
 21 22  2  0  0  0
 22 23  1  0  0  0
 23 24  2  0  0  0
 22 16  1  0  0  0
 16 17  2  0  0  0
 16 18  2  0  0  0
 16  1  1  0  0  0
  1  3  1  0  0  0
  3  4  2  0  0  0
  4  5  1  0  0  0
  5  6  2  0  0  0
  6  7  1  0  0  0
  7  8  2  0  0  0
  7  9  1  0  0  0
  9 10  1  0  0  0
  9 11  1  0  0  0
  9 12  1  0  0  0
  5 13  1  0  0  0
 13 14  1  0  0  0
 13 15  1  0  0  0
 24 19  1  0  0  0
  8  3  1  0  0  0
  1  2  1  0  0  0
M  END
> <minimizedAffinity>
-7.35178

> <CNNscore>
0.5013337135

> <CNNaffinity>
5.8897838593

> <CNN_VS>
2.9527471066

> <CNNaffinity_variance>
0.2557890117

$$$$
[H]c1c([H])c(S(=O)(=O)N([H])c2c([H])c(C(F)(F)F)c([H])c(C([H])(C([H])([H])[H])C([H])([H])[H])c2[H])c([H])c([H])c1OC([H])([H])[H]


 26 27  0  0  0  0  0  0  0  0999 V2000
  -18.0827   11.9541  -20.3519 N   0  0  0  0  0  0  0  0  0  0  0  0
  -19.0997   11.7407  -20.5795 H   0  0  0  0  0  0  0  0  0  0  0  0
  -17.5416   13.0846  -20.9730 C   0  0  0  0  0  0  0  0  0  0  0  0
  -17.5857   14.3468  -20.3465 C   0  0  0  0  0  0  0  0  0  0  0  0
  -17.0336   15.4604  -20.9380 C   0  0  0  0  0  0  0  0  0  0  0  0
  -16.4223   15.3713  -22.1587 C   0  0  0  0  0  0  0  0  0  0  0  0
  -16.3576   14.1333  -22.8156 C   0  0  0  0  0  0  0  0  0  0  0  0
  -16.9183   13.0270  -22.2049 C   0  0  0  0  0  0  0  0  0  0  0  0
  -15.6850   14.0688  -24.1206 C   0  0  0  0  0  0  0  0  0  0  0  0
  -15.4830   15.3594  -24.5625 F   0  0  0  0  0  0  0  0  0  0  0  0
  -14.4950   13.3806  -24.0463 F   0  0  0  0  0  0  0  0  0  0  0  0
  -16.5034   13.3521  -25.0092 F   0  0  0  0  0  0  0  0  0  0  0  0
  -17.1052   16.7385  -20.2065 C   0  0  0  0  0  0  0  0  0  0  0  0
  -18.5129   17.2739  -20.2410 C   0  0  0  0  0  0  0  0  0  0  0  0
  -16.0777   17.7506  -20.5541 C   0  0  0  0  0  0  0  0  0  0  0  0
  -17.3063   10.8874  -19.2782 S   0  0  0  0  0  0  0  0  0  0  0  0
  -16.9941    9.6032  -20.0193 O   0  0  0  0  0  0  0  0  0  0  0  0
  -16.0595   11.4608  -18.6792 O   0  0  0  0  0  0  0  0  0  0  0  0
  -20.3106    9.8441  -15.9923 C   0  0  0  0  0  0  0  0  0  0  0  0
  -20.2955   11.0970  -16.5799 C   0  0  0  0  0  0  0  0  0  0  0  0
  -19.3721   11.3760  -17.5633 C   0  0  0  0  0  0  0  0  0  0  0  0
  -18.4384   10.4516  -18.0053 C   0  0  0  0  0  0  0  0  0  0  0  0
  -18.4460    9.2213  -17.4322 C   0  0  0  0  0  0  0  0  0  0  0  0
  -19.3715    8.8939  -16.4248 C   0  0  0  0  0  0  0  0  0  0  0  0
  -21.5122    8.1476  -14.6448 C   0  0  0  0  0  0  0  0  0  0  0  0
  -21.1830    9.4504  -15.0029 O   0  0  0  0  0  0  0  0  0  0  0  0
 25 26  1  0  0  0
 26 19  1  0  0  0
 19 20  2  0  0  0
 20 21  1  0  0  0
 21 22  2  0  0  0
 22 23  1  0  0  0
 23 24  2  0  0  0
 22 16  1  0  0  0
 16 17  2  0  0  0
 16 18  2  0  0  0
 16  1  1  0  0  0
  1  3  1  0  0  0
  3  4  2  0  0  0
  4  5  1  0  0  0
  5  6  2  0  0  0
  6  7  1  0  0  0
  7  8  2  0  0  0
  7  9  1  0  0  0
  9 10  1  0  0  0
  9 11  1  0  0  0
  9 12  1  0  0  0
  5 13  1  0  0  0
 13 14  1  0  0  0
 13 15  1  0  0  0
 24 19  1  0  0  0
  8  3  1  0  0  0
  1  2  1  0  0  0
M  END
> <minimizedAffinity>
-7.84267

> <CNNscore>
0.5007446408

> <CNNaffinity>
5.9783749580

> <CNN_VS>
2.9936392307

> <CNNaffinity_variance>
0.1307896972

$$$$
[H]c1c([H])c(S(=O)(=O)N([H])c2c([H])c(C(F)(F)F)c([H])c(C([H])(C([H])([H])[H])C([H])([H])[H])c2[H])c([H])c([H])c1OC([H])([H])[H]


 26 27  0  0  0  0  0  0  0  0999 V2000
  -17.1776   13.1957  -20.4158 N   0  0  0  0  0  0  0  0  0  0  0  0
  -16.9225   13.7969  -19.5761 H   0  0  0  0  0  0  0  0  0  0  0  0
  -17.4762   13.8873  -21.5944 C   0  0  0  0  0  0  0  0  0  0  0  0
  -17.0762   13.3862  -22.8500 C   0  0  0  0  0  0  0  0  0  0  0  0
  -17.3871   14.0460  -24.0174 C   0  0  0  0  0  0  0  0  0  0  0  0
  -18.0984   15.2144  -23.9901 C   0  0  0  0  0  0  0  0  0  0  0  0
  -18.5150   15.7467  -22.7606 C   0  0  0  0  0  0  0  0  0  0  0  0
  -18.1924   15.0689  -21.5997 C   0  0  0  0  0  0  0  0  0  0  0  0
  -19.2865   16.9975  -22.7660 C   0  0  0  0  0  0  0  0  0  0  0  0
  -20.1654   16.9630  -21.7038 F   0  0  0  0  0  0  0  0  0  0  0  0
  -18.4670   18.1012  -22.6929 F   0  0  0  0  0  0  0  0  0  0  0  0
  -19.9730   17.0927  -23.9878 F   0  0  0  0  0  0  0  0  0  0  0  0
  -16.9481   13.4438  -25.2895 C   0  0  0  0  0  0  0  0  0  0  0  0
  -16.6027   14.5253  -26.2797 C   0  0  0  0  0  0  0  0  0  0  0  0
  -17.8238   12.3853  -25.8497 C   0  0  0  0  0  0  0  0  0  0  0  0
  -17.1735   11.5123  -20.1721 S   0  0  0  0  0  0  0  0  0  0  0  0
  -17.8087   10.8511  -21.3783 O   0  0  0  0  0  0  0  0  0  0  0  0
  -15.8038   10.9565  -19.9329 O   0  0  0  0  0  0  0  0  0  0  0  0
  -19.8291   10.4582  -16.6016 C   0  0  0  0  0  0  0  0  0  0  0  0
  -18.9361    9.5412  -17.1276 C   0  0  0  0  0  0  0  0  0  0  0  0
  -18.1562    9.8935  -18.2071 C   0  0  0  0  0  0  0  0  0  0  0  0
  -18.2184   11.1415  -18.8073 C   0  0  0  0  0  0  0  0  0  0  0  0
  -19.0934   12.0454  -18.2979 C   0  0  0  0  0  0  0  0  0  0  0  0
  -19.9086   11.7277  -17.1965 C   0  0  0  0  0  0  0  0  0  0  0  0
  -22.0470   10.1476  -15.5421 C   0  0  0  0  0  0  0  0  0  0  0  0
  -20.6583   10.2214  -15.5286 O   0  0  0  0  0  0  0  0  0  0  0  0
 25 26  1  0  0  0
 26 19  1  0  0  0
 19 20  2  0  0  0
 20 21  1  0  0  0
 21 22  2  0  0  0
 22 23  1  0  0  0
 23 24  2  0  0  0
 22 16  1  0  0  0
 16 17  2  0  0  0
 16 18  2  0  0  0
 16  1  1  0  0  0
  1  3  1  0  0  0
  3  4  2  0  0  0
  4  5  1  0  0  0
  5  6  2  0  0  0
  6  7  1  0  0  0
  7  8  2  0  0  0
  7  9  1  0  0  0
  9 10  1  0  0  0
  9 11  1  0  0  0
  9 12  1  0  0  0
  5 13  1  0  0  0
 13 14  1  0  0  0
 13 15  1  0  0  0
 24 19  1  0  0  0
  8  3  1  0  0  0
  1  2  1  0  0  0
M  END
> <minimizedAffinity>
-7.67467

> <CNNscore>
0.4091283381

> <CNNaffinity>
6.0428066254

> <CNN_VS>
2.4722833633

> <CNNaffinity_variance>
0.1764355898

$$$$
[H]c1c([H])c(S(=O)(=O)N([H])c2c([H])c(C(F)(F)F)c([H])c(C([H])(C([H])([H])[H])C([H])([H])[H])c2[H])c([H])c([H])c1OC([H])([H])[H]


 26 27  0  0  0  0  0  0  0  0999 V2000
  -17.1981   13.0178  -20.0686 N   0  0  0  0  0  0  0  0  0  0  0  0
  -16.9258   13.6115  -19.2289 H   0  0  0  0  0  0  0  0  0  0  0  0
  -17.5278   13.7201  -21.2325 C   0  0  0  0  0  0  0  0  0  0  0  0
  -18.2621   14.9220  -21.1703 C   0  0  0  0  0  0  0  0  0  0  0  0
  -18.5697   15.6339  -22.3076 C   0  0  0  0  0  0  0  0  0  0  0  0
  -18.1678   15.1907  -23.5380 C   0  0  0  0  0  0  0  0  0  0  0  0
  -17.4353   13.9987  -23.6429 C   0  0  0  0  0  0  0  0  0  0  0  0
  -17.1368   13.2985  -22.4889 C   0  0  0  0  0  0  0  0  0  0  0  0
  -17.0092   13.5554  -24.9777 C   0  0  0  0  0  0  0  0  0  0  0  0
  -15.6311   13.5051  -24.9926 F   0  0  0  0  0  0  0  0  0  0  0  0
  -17.5512   12.3331  -25.3051 F   0  0  0  0  0  0  0  0  0  0  0  0
  -17.4922   14.4712  -25.9270 F   0  0  0  0  0  0  0  0  0  0  0  0
  -19.3239   16.8912  -22.1530 C   0  0  0  0  0  0  0  0  0  0  0  0
  -20.3691   16.7366  -21.0792 C   0  0  0  0  0  0  0  0  0  0  0  0
  -19.8431   17.5014  -23.4016 C   0  0  0  0  0  0  0  0  0  0  0  0
  -17.1803   11.3320  -19.8427 S   0  0  0  0  0  0  0  0  0  0  0  0
  -17.7704   10.6764  -21.0747 O   0  0  0  0  0  0  0  0  0  0  0  0
  -15.8116   10.7903  -19.5679 O   0  0  0  0  0  0  0  0  0  0  0  0
  -19.9299   10.2061  -16.3665 C   0  0  0  0  0  0  0  0  0  0  0  0
  -19.0157    9.3032  -16.8804 C   0  0  0  0  0  0  0  0  0  0  0  0
  -18.2076    9.6769  -17.9315 C   0  0  0  0  0  0  0  0  0  0  0  0
  -18.2614   10.9335  -18.5144 C   0  0  0  0  0  0  0  0  0  0  0  0
  -19.1568   11.8238  -18.0168 C   0  0  0  0  0  0  0  0  0  0  0  0
  -20.0012   11.4840  -16.9443 C   0  0  0  0  0  0  0  0  0  0  0  0
  -22.0452    9.3580  -15.3951 C   0  0  0  0  0  0  0  0  0  0  0  0
  -20.7878    9.9475  -15.3215 O   0  0  0  0  0  0  0  0  0  0  0  0
 25 26  1  0  0  0
 26 19  1  0  0  0
 19 20  2  0  0  0
 20 21  1  0  0  0
 21 22  2  0  0  0
 22 23  1  0  0  0
 23 24  2  0  0  0
 22 16  1  0  0  0
 16 17  2  0  0  0
 16 18  2  0  0  0
 16  1  1  0  0  0
  1  3  1  0  0  0
  3  4  2  0  0  0
  4  5  1  0  0  0
  5  6  2  0  0  0
  6  7  1  0  0  0
  7  8  2  0  0  0
  7  9  1  0  0  0
  9 10  1  0  0  0
  9 11  1  0  0  0
  9 12  1  0  0  0
  5 13  1  0  0  0
 13 14  1  0  0  0
 13 15  1  0  0  0
 24 19  1  0  0  0
  8  3  1  0  0  0
  1  2  1  0  0  0
M  END
> <minimizedAffinity>
-7.61675

> <CNNscore>
0.4010050297

> <CNNaffinity>
5.8708853722

> <CNN_VS>
2.3542544842

> <CNNaffinity_variance>
0.1822355539

$$$$
[H]c1c([H])c(S(=O)(=O)N([H])c2c([H])c(C(F)(F)F)c([H])c(C([H])(C([H])([H])[H])C([H])([H])[H])c2[H])c([H])c([H])c1OC([H])([H])[H]


 26 27  0  0  0  0  0  0  0  0999 V2000
  -16.4911   11.2572  -19.2802 N   0  0  0  0  0  0  0  0  0  0  0  0
  -15.5507   11.4675  -18.8297 H   0  0  0  0  0  0  0  0  0  0  0  0
  -17.6149   11.4610  -18.4727 C   0  0  0  0  0  0  0  0  0  0  0  0
  -18.2786   10.3747  -17.8667 C   0  0  0  0  0  0  0  0  0  0  0  0
  -19.3698   10.5666  -17.0499 C   0  0  0  0  0  0  0  0  0  0  0  0
  -19.8428   11.8263  -16.8021 C   0  0  0  0  0  0  0  0  0  0  0  0
  -19.2106   12.9342  -17.3863 C   0  0  0  0  0  0  0  0  0  0  0  0
  -18.1164   12.7201  -18.2037 C   0  0  0  0  0  0  0  0  0  0  0  0
  -19.7362   14.2745  -17.0918 C   0  0  0  0  0  0  0  0  0  0  0  0
  -18.7148   15.0253  -16.5488 F   0  0  0  0  0  0  0  0  0  0  0  0
  -20.2483   14.8790  -18.2177 F   0  0  0  0  0  0  0  0  0  0  0  0
  -20.8047   14.1461  -16.1891 F   0  0  0  0  0  0  0  0  0  0  0  0
  -19.9937    9.3783  -16.4397 C   0  0  0  0  0  0  0  0  0  0  0  0
  -21.2148    9.7825  -15.6555 C   0  0  0  0  0  0  0  0  0  0  0  0
  -19.0857    8.4709  -15.6960 C   0  0  0  0  0  0  0  0  0  0  0  0
  -16.4552   10.7163  -20.8925 S   0  0  0  0  0  0  0  0  0  0  0  0
  -15.0729   10.1688  -21.1844 O   0  0  0  0  0  0  0  0  0  0  0  0
  -17.4989    9.6845  -21.1896 O   0  0  0  0  0  0  0  0  0  0  0  0
  -17.0630   14.3692  -23.5756 C   0  0  0  0  0  0  0  0  0  0  0  0
  -17.8865   14.1313  -22.4892 C   0  0  0  0  0  0  0  0  0  0  0  0
  -17.6756   13.0174  -21.7067 C   0  0  0  0  0  0  0  0  0  0  0  0
  -16.6632   12.1032  -21.9533 C   0  0  0  0  0  0  0  0  0  0  0  0
  -15.8526   12.3290  -23.0183 C   0  0  0  0  0  0  0  0  0  0  0  0
  -16.0323   13.4539  -23.8435 C   0  0  0  0  0  0  0  0  0  0  0  0
  -16.2579   15.8541  -25.3880 C   0  0  0  0  0  0  0  0  0  0  0  0
  -17.1763   15.4447  -24.4272 O   0  0  0  0  0  0  0  0  0  0  0  0
 25 26  1  0  0  0
 26 19  1  0  0  0
 19 20  2  0  0  0
 20 21  1  0  0  0
 21 22  2  0  0  0
 22 23  1  0  0  0
 23 24  2  0  0  0
 22 16  1  0  0  0
 16 17  2  0  0  0
 16 18  2  0  0  0
 16  1  1  0  0  0
  1  3  1  0  0  0
  3  4  2  0  0  0
  4  5  1  0  0  0
  5  6  2  0  0  0
  6  7  1  0  0  0
  7  8  2  0  0  0
  7  9  1  0  0  0
  9 10  1  0  0  0
  9 11  1  0  0  0
  9 12  1  0  0  0
  5 13  1  0  0  0
 13 14  1  0  0  0
 13 15  1  0  0  0
 24 19  1  0  0  0
  8  3  1  0  0  0
  1  2  1  0  0  0
M  END
> <minimizedAffinity>
-7.15240

> <CNNscore>
0.3848218918

> <CNNaffinity>
5.8446807861

> <CNN_VS>
2.2491610050

> <CNNaffinity_variance>
0.2536981702

$$$$
[H]c1c([H])c(S(=O)(=O)N([H])c2c([H])c(C(F)(F)F)c([H])c(C([H])(C([H])([H])[H])C([H])([H])[H])c2[H])c([H])c([H])c1OC([H])([H])[H]


 26 27  0  0  0  0  0  0  0  0999 V2000
  -17.9032   11.5008  -20.6733 N   0  0  0  0  0  0  0  0  0  0  0  0
  -18.5257   10.8242  -21.2086 H   0  0  0  0  0  0  0  0  0  0  0  0
  -17.5046   12.6463  -21.3701 C   0  0  0  0  0  0  0  0  0  0  0  0
  -17.3455   13.8798  -20.7062 C   0  0  0  0  0  0  0  0  0  0  0  0
  -16.9291   15.0070  -21.3777 C   0  0  0  0  0  0  0  0  0  0  0  0
  -16.6563   14.9598  -22.7175 C   0  0  0  0  0  0  0  0  0  0  0  0
  -16.8026   13.7514  -23.4152 C   0  0  0  0  0  0  0  0  0  0  0  0
  -17.2220   12.6309  -22.7225 C   0  0  0  0  0  0  0  0  0  0  0  0
  -16.4913   13.7313  -24.8513 C   0  0  0  0  0  0  0  0  0  0  0  0
  -16.9781   12.5537  -25.3785 F   0  0  0  0  0  0  0  0  0  0  0  0
  -17.0237   14.8210  -25.5027 F   0  0  0  0  0  0  0  0  0  0  0  0
  -15.0979   13.8173  -25.0068 F   0  0  0  0  0  0  0  0  0  0  0  0
  -16.7690   16.2522  -20.6048 C   0  0  0  0  0  0  0  0  0  0  0  0
  -17.9440   16.4401  -19.6810 C   0  0  0  0  0  0  0  0  0  0  0  0
  -16.4278   17.4676  -21.3841 C   0  0  0  0  0  0  0  0  0  0  0  0
  -17.5109   11.0677  -19.0758 S   0  0  0  0  0  0  0  0  0  0  0  0
  -17.6471    9.5650  -18.9386 O   0  0  0  0  0  0  0  0  0  0  0  0
  -16.1387   11.5070  -18.6681 O   0  0  0  0  0  0  0  0  0  0  0  0
  -20.6076   12.9829  -16.3092 C   0  0  0  0  0  0  0  0  0  0  0  0
  -19.6760   13.7513  -16.9851 C   0  0  0  0  0  0  0  0  0  0  0  0
  -18.7554   13.1381  -17.8060 C   0  0  0  0  0  0  0  0  0  0  0  0
  -18.7102   11.7656  -17.9958 C   0  0  0  0  0  0  0  0  0  0  0  0
  -19.6197   11.0055  -17.3347 C   0  0  0  0  0  0  0  0  0  0  0  0
  -20.5775   11.5903  -16.4866 C   0  0  0  0  0  0  0  0  0  0  0  0
  -22.1282   12.8467  -14.3581 C   0  0  0  0  0  0  0  0  0  0  0  0
  -21.5730   13.4813  -15.4640 O   0  0  0  0  0  0  0  0  0  0  0  0
 25 26  1  0  0  0
 26 19  1  0  0  0
 19 20  2  0  0  0
 20 21  1  0  0  0
 21 22  2  0  0  0
 22 23  1  0  0  0
 23 24  2  0  0  0
 22 16  1  0  0  0
 16 17  2  0  0  0
 16 18  2  0  0  0
 16  1  1  0  0  0
  1  3  1  0  0  0
  3  4  2  0  0  0
  4  5  1  0  0  0
  5  6  2  0  0  0
  6  7  1  0  0  0
  7  8  2  0  0  0
  7  9  1  0  0  0
  9 10  1  0  0  0
  9 11  1  0  0  0
  9 12  1  0  0  0
  5 13  1  0  0  0
 13 14  1  0  0  0
 13 15  1  0  0  0
 24 19  1  0  0  0
  8  3  1  0  0  0
  1  2  1  0  0  0
M  END
> <minimizedAffinity>
-7.33439

> <CNNscore>
0.3232878149

> <CNNaffinity>
5.8483757973

> <CNN_VS>
1.8907086849

> <CNNaffinity_variance>
0.2037909031

$$$$
[H]c1c([H])c(S(=O)(=O)N([H])c2c([H])c(C(F)(F)F)c([H])c(C([H])(C([H])([H])[H])C([H])([H])[H])c2[H])c([H])c([H])c1OC([H])([H])[H]


 26 27  0  0  0  0  0  0  0  0999 V2000
  -16.6555   11.5538  -19.2861 N   0  0  0  0  0  0  0  0  0  0  0  0
  -15.7389   11.8097  -18.8105 H   0  0  0  0  0  0  0  0  0  0  0  0
  -17.8176   11.8083  -18.5503 C   0  0  0  0  0  0  0  0  0  0  0  0
  -18.4498   13.0671  -18.6061 C   0  0  0  0  0  0  0  0  0  0  0  0
  -19.6077   13.3196  -17.9059 C   0  0  0  0  0  0  0  0  0  0  0  0
  -20.1805   12.3480  -17.1314 C   0  0  0  0  0  0  0  0  0  0  0  0
  -19.5822   11.0816  -17.0488 C   0  0  0  0  0  0  0  0  0  0  0  0
  -18.4196   10.8483  -17.7594 C   0  0  0  0  0  0  0  0  0  0  0  0
  -20.2279   10.0566  -16.2169 C   0  0  0  0  0  0  0  0  0  0  0  0
  -19.8566   10.2722  -14.9064 F   0  0  0  0  0  0  0  0  0  0  0  0
  -21.5978   10.0802  -16.3520 F   0  0  0  0  0  0  0  0  0  0  0  0
  -19.8068    8.7920  -16.6604 F   0  0  0  0  0  0  0  0  0  0  0  0
  -20.2156   14.6565  -18.0348 C   0  0  0  0  0  0  0  0  0  0  0  0
  -19.3078   15.6960  -17.4309 C   0  0  0  0  0  0  0  0  0  0  0  0
  -21.6284   14.7785  -17.5987 C   0  0  0  0  0  0  0  0  0  0  0  0
  -16.5395   10.8874  -20.8468 S   0  0  0  0  0  0  0  0  0  0  0  0
  -15.1697   10.2581  -20.9994 O   0  0  0  0  0  0  0  0  0  0  0  0
  -17.6110    9.8827  -21.1379 O   0  0  0  0  0  0  0  0  0  0  0  0
  -16.6361   14.2384  -23.9570 C   0  0  0  0  0  0  0  0  0  0  0  0
  -15.5847   13.3403  -23.9015 C   0  0  0  0  0  0  0  0  0  0  0  0
  -15.5881   12.3470  -22.9472 C   0  0  0  0  0  0  0  0  0  0  0  0
  -16.6078   12.1949  -22.0205 C   0  0  0  0  0  0  0  0  0  0  0  0
  -17.6415   13.0732  -22.0677 C   0  0  0  0  0  0  0  0  0  0  0  0
  -17.6783   14.1024  -23.0258 C   0  0  0  0  0  0  0  0  0  0  0  0
  -16.4560   16.6123  -24.6424 C   0  0  0  0  0  0  0  0  0  0  0  0
  -16.7423   15.2694  -24.8629 O   0  0  0  0  0  0  0  0  0  0  0  0
 25 26  1  0  0  0
 26 19  1  0  0  0
 19 20  2  0  0  0
 20 21  1  0  0  0
 21 22  2  0  0  0
 22 23  1  0  0  0
 23 24  2  0  0  0
 22 16  1  0  0  0
 16 17  2  0  0  0
 16 18  2  0  0  0
 16  1  1  0  0  0
  1  3  1  0  0  0
  3  4  2  0  0  0
  4  5  1  0  0  0
  5  6  2  0  0  0
  6  7  1  0  0  0
  7  8  2  0  0  0
  7  9  1  0  0  0
  9 10  1  0  0  0
  9 11  1  0  0  0
  9 12  1  0  0  0
  5 13  1  0  0  0
 13 14  1  0  0  0
 13 15  1  0  0  0
 24 19  1  0  0  0
  8  3  1  0  0  0
  1  2  1  0  0  0
M  END
> <minimizedAffinity>
-6.86179

> <CNNscore>
0.3195601702

> <CNNaffinity>
5.7544813156

> <CNN_VS>
1.8389030695

> <CNNaffinity_variance>
0.3144367635

$$$$
[H]c1c([H])c([H])c(C([H])([H])[C@@]2([H])C(=O)N([H])[C@@]([H])([C@@]([H])(C([H])([H])[H])C([H])([H])C([H])([H])[H])C(=O)N([H])[C@@]([H])(C([H])([H])c3c([H])c([H])c([H])c([H])c3[H])C(=O)N([H])[C@]([H])(C([H])([H])C([H])([H])C([H])([H])N=C(N([H])[H])N([H])[H])C(=O)N3C([H])([H])C([H])([H])C([H])([H])[C@@]3([H])C(=O)N2[H])c([H])c1[H]


 56 59  0  0  0  0  0  0  0  0999 V2000
  -20.3124   17.7491  -23.0938 C   0  0  0  0  0  0  0  0  0  0  0  0
  -20.3392   16.8851  -24.2586 N   0  0  0  0  0  0  0  0  0  0  0  0
  -19.7582   15.6042  -24.3638 C   0  0  0  0  0  0  0  0  0  0  0  0
  -20.4988   14.6963  -24.8275 O   0  0  0  0  0  0  0  0  0  0  0  0
  -18.3712   15.2186  -23.9862 C   0  0  0  0  0  0  0  0  0  0  0  0
  -18.2408   13.8088  -24.2925 N   0  0  0  0  0  0  0  0  0  0  0  0
  -17.9489   12.7436  -23.4395 C   0  0  0  0  0  0  0  0  0  0  0  0
  -18.7975   11.8129  -23.4131 O   0  0  0  0  0  0  0  0  0  0  0  0
  -16.7613   12.6431  -22.6123 C   0  0  0  0  0  0  0  0  0  0  0  0
  -16.2836   11.1778  -22.9106 C   0  0  0  0  0  0  0  0  0  0  0  0
  -15.3423   10.8822  -21.8174 C   0  0  0  0  0  0  0  0  0  0  0  0
  -15.5784   11.9299  -20.8106 C   0  0  0  0  0  0  0  0  0  0  0  0
  -16.8213   12.6568  -21.2049 N   0  0  0  0  0  0  0  0  0  0  0  0
  -17.7041   13.1986  -20.2689 C   0  0  0  0  0  0  0  0  0  0  0  0
  -17.2162   13.6940  -19.1574 O   0  0  0  0  0  0  0  0  0  0  0  0
  -19.1821   13.3118  -20.3285 C   0  0  0  0  0  0  0  0  0  0  0  0
  -19.6442   14.2234  -19.2999 N   0  0  0  0  0  0  0  0  0  0  0  0
  -20.3888   15.3780  -19.3938 C   0  0  0  0  0  0  0  0  0  0  0  0
  -21.4836   15.4544  -18.7248 O   0  0  0  0  0  0  0  0  0  0  0  0
  -20.0878   16.5912  -20.1928 C   0  0  0  0  0  0  0  0  0  0  0  0
  -21.3218   17.0883  -20.8298 N   0  0  0  0  0  0  0  0  0  0  0  0
  -21.4539   17.4086  -22.1760 C   0  0  0  0  0  0  0  0  0  0  0  0
  -22.5946   17.4290  -22.7176 O   0  0  0  0  0  0  0  0  0  0  0  0
  -20.8739   17.3112  -25.0858 H   0  0  0  0  0  0  0  0  0  0  0  0
  -18.4269   13.6354  -25.3532 H   0  0  0  0  0  0  0  0  0  0  0  0
  -19.3454   13.9393  -18.3126 H   0  0  0  0  0  0  0  0  0  0  0  0
  -22.1285   17.1896  -20.1754 H   0  0  0  0  0  0  0  0  0  0  0  0
  -20.5208   19.2016  -23.4773 C   0  0  0  0  0  0  0  0  0  0  0  0
  -21.7298   19.3728  -24.3652 C   0  0  0  0  0  0  0  0  0  0  0  0
  -19.5686   21.1975  -22.4773 C   0  0  0  0  0  0  0  0  0  0  0  0
  -20.6372   20.1246  -22.3106 C   0  0  0  0  0  0  0  0  0  0  0  0
  -17.4913   16.0692  -24.8943 C   0  0  0  0  0  0  0  0  0  0  0  0
  -16.1208   15.6329  -25.0475 C   0  0  0  0  0  0  0  0  0  0  0  0
  -15.3209   15.3816  -23.9544 C   0  0  0  0  0  0  0  0  0  0  0  0
  -14.0060   14.9779  -24.1261 C   0  0  0  0  0  0  0  0  0  0  0  0
  -13.4494   14.8125  -25.3715 C   0  0  0  0  0  0  0  0  0  0  0  0
  -14.2501   15.0639  -26.4730 C   0  0  0  0  0  0  0  0  0  0  0  0
  -15.5676   15.4683  -26.3126 C   0  0  0  0  0  0  0  0  0  0  0  0
  -19.8508   11.9798  -19.9802 C   0  0  0  0  0  0  0  0  0  0  0  0
  -20.1689   11.8179  -18.5342 C   0  0  0  0  0  0  0  0  0  0  0  0
  -18.9876   11.0570  -17.9147 C   0  0  0  0  0  0  0  0  0  0  0  0
  -19.2538   10.7334  -16.5464 N   0  0  0  0  0  0  0  0  0  0  0  0
  -19.3305    9.5250  -16.1084 C   0  0  0  0  0  0  0  0  0  0  0  0
  -19.5942    9.2453  -14.7560 N   0  0  0  0  0  0  0  0  0  0  0  0
  -19.1422    8.4581  -17.0210 N   0  0  0  0  0  0  0  0  0  0  0  0
  -18.9344    8.7451  -14.1189 H   0  0  0  0  0  0  0  0  0  0  0  0
  -20.5032    9.5502  -14.3457 H   0  0  0  0  0  0  0  0  0  0  0  0
  -18.2080    8.0204  -17.1966 H   0  0  0  0  0  0  0  0  0  0  0  0
  -19.9772    8.0939  -17.5430 H   0  0  0  0  0  0  0  0  0  0  0  0
  -19.5197   17.6551  -19.2863 C   0  0  0  0  0  0  0  0  0  0  0  0
  -18.1422   18.0687  -19.6192 C   0  0  0  0  0  0  0  0  0  0  0  0
  -17.8932   19.3349  -20.0742 C   0  0  0  0  0  0  0  0  0  0  0  0
  -16.6046   19.7089  -20.3651 C   0  0  0  0  0  0  0  0  0  0  0  0
  -15.5588   18.8314  -20.2062 C   0  0  0  0  0  0  0  0  0  0  0  0
  -15.7819   17.5413  -19.7465 C   0  0  0  0  0  0  0  0  0  0  0  0
  -17.0868   17.2013  -19.4651 C   0  0  0  0  0  0  0  0  0  0  0  0
 30 31  1  0  0  0
 31 28  1  0  0  0
 28 29  1  0  0  0
 28  1  1  0  0  0
  1  2  1  0  0  0
  2  3  1  0  0  0
  3  4  2  0  0  0
  3  5  1  0  0  0
  5 32  1  0  0  0
 32 33  1  0  0  0
 33 34  2  0  0  0
 34 35  1  0  0  0
 35 36  2  0  0  0
 36 37  1  0  0  0
 37 38  2  0  0  0
  5  6  1  0  0  0
  6  7  1  0  0  0
  7  8  2  0  0  0
  7  9  1  0  0  0
  9 10  1  0  0  0
 10 11  1  0  0  0
 11 12  1  0  0  0
 12 13  1  0  0  0
 13 14  1  0  0  0
 14 15  2  0  0  0
 14 16  1  0  0  0
 16 39  1  0  0  0
 39 40  1  0  0  0
 40 41  1  0  0  0
 41 42  1  0  0  0
 42 43  2  0  0  0
 43 44  1  0  0  0
 43 45  1  0  0  0
 16 17  1  0  0  0
 17 18  1  0  0  0
 18 19  2  0  0  0
 18 20  1  0  0  0
 20 50  1  0  0  0
 50 51  1  0  0  0
 51 52  2  0  0  0
 52 53  1  0  0  0
 53 54  2  0  0  0
 54 55  1  0  0  0
 55 56  2  0  0  0
 20 21  1  0  0  0
 21 22  1  0  0  0
 22 23  2  0  0  0
 22  1  1  0  0  0
 38 33  1  0  0  0
 13  9  1  0  0  0
 56 51  1  0  0  0
  2 24  1  0  0  0
  6 25  1  0  0  0
 44 46  1  0  0  0
 44 47  1  0  0  0
 45 48  1  0  0  0
 45 49  1  0  0  0
 17 26  1  0  0  0
 21 27  1  0  0  0
M  END
> <minimizedAffinity>
4.32466

> <CNNscore>
0.3997751474

> <CNNaffinity>
7.1205801964

> <CNN_VS>
2.8466310501

> <CNNaffinity_variance>
0.8702777624

$$$$
[H]c1c([H])c([H])c(C([H])([H])[C@@]2([H])C(=O)N([H])[C@@]([H])([C@@]([H])(C([H])([H])[H])C([H])([H])C([H])([H])[H])C(=O)N([H])[C@@]([H])(C([H])([H])c3c([H])c([H])c([H])c([H])c3[H])C(=O)N([H])[C@]([H])(C([H])([H])C([H])([H])C([H])([H])N=C(N([H])[H])N([H])[H])C(=O)N3C([H])([H])C([H])([H])C([H])([H])[C@@]3([H])C(=O)N2[H])c([H])c1[H]


 56 59  0  0  0  0  0  0  0  0999 V2000
  -20.3152   18.7807  -17.6487 C   0  0  0  0  0  0  0  0  0  0  0  0
  -19.4572   17.7558  -17.0853 N   0  0  0  0  0  0  0  0  0  0  0  0
  -18.7648   16.7575  -17.8016 C   0  0  0  0  0  0  0  0  0  0  0  0
  -17.5435   16.6215  -17.5225 O   0  0  0  0  0  0  0  0  0  0  0  0
  -19.3247   15.8556  -18.8448 C   0  0  0  0  0  0  0  0  0  0  0  0
  -18.2375   14.9983  -19.2708 N   0  0  0  0  0  0  0  0  0  0  0  0
  -17.6728   14.8530  -20.5387 C   0  0  0  0  0  0  0  0  0  0  0  0
  -16.4344   15.0702  -20.6164 O   0  0  0  0  0  0  0  0  0  0  0  0
  -18.4017   14.4722  -21.7340 C   0  0  0  0  0  0  0  0  0  0  0  0
  -17.4760   13.3555  -22.3340 C   0  0  0  0  0  0  0  0  0  0  0  0
  -17.9392   13.2206  -23.7254 C   0  0  0  0  0  0  0  0  0  0  0  0
  -18.7678   14.4117  -23.9737 C   0  0  0  0  0  0  0  0  0  0  0  0
  -18.5628   15.3458  -22.8273 N   0  0  0  0  0  0  0  0  0  0  0  0
  -18.5977   16.7338  -22.9732 C   0  0  0  0  0  0  0  0  0  0  0  0
  -19.4266   17.2537  -23.8458 O   0  0  0  0  0  0  0  0  0  0  0  0
  -17.8090   17.7721  -22.2656 C   0  0  0  0  0  0  0  0  0  0  0  0
  -18.3988   19.0763  -22.4976 N   0  0  0  0  0  0  0  0  0  0  0  0
  -18.8678   20.0188  -21.6098 C   0  0  0  0  0  0  0  0  0  0  0  0
  -18.3717   21.2035  -21.6585 O   0  0  0  0  0  0  0  0  0  0  0  0
  -19.9069   19.8458  -20.5652 C   0  0  0  0  0  0  0  0  0  0  0  0
  -19.4919   20.5355  -19.3293 N   0  0  0  0  0  0  0  0  0  0  0  0
  -19.4920   19.9703  -18.0592 C   0  0  0  0  0  0  0  0  0  0  0  0
  -18.7646   20.4528  -17.1466 O   0  0  0  0  0  0  0  0  0  0  0  0
  -19.3726   17.8189  -16.0173 H   0  0  0  0  0  0  0  0  0  0  0  0
  -17.8497   14.4326  -18.4226 H   0  0  0  0  0  0  0  0  0  0  0  0
  -18.4786   19.3302  -23.5339 H   0  0  0  0  0  0  0  0  0  0  0  0
  -19.1835   21.5220  -19.4744 H   0  0  0  0  0  0  0  0  0  0  0  0
  -21.2995   19.3050  -16.6209 C   0  0  0  0  0  0  0  0  0  0  0  0
  -22.5933   19.7421  -17.2646 C   0  0  0  0  0  0  0  0  0  0  0  0
  -21.2018   19.0053  -14.2144 C   0  0  0  0  0  0  0  0  0  0  0  0
  -21.6015   18.3387  -15.5247 C   0  0  0  0  0  0  0  0  0  0  0  0
  -20.4015   15.0657  -18.1107 C   0  0  0  0  0  0  0  0  0  0  0  0
  -21.7142   15.6708  -18.0588 C   0  0  0  0  0  0  0  0  0  0  0  0
  -22.1739   16.4772  -19.0769 C   0  0  0  0  0  0  0  0  0  0  0  0
  -23.4302   17.0575  -18.9983 C   0  0  0  0  0  0  0  0  0  0  0  0
  -24.2604   16.8593  -17.9214 C   0  0  0  0  0  0  0  0  0  0  0  0
  -23.8023   16.0494  -16.8960 C   0  0  0  0  0  0  0  0  0  0  0  0
  -22.5465   15.4633  -16.9643 C   0  0  0  0  0  0  0  0  0  0  0  0
  -16.3991   17.8864  -22.8504 C   0  0  0  0  0  0  0  0  0  0  0  0
  -15.9281   16.6582  -23.5489 C   0  0  0  0  0  0  0  0  0  0  0  0
  -15.6677   17.0637  -25.0070 C   0  0  0  0  0  0  0  0  0  0  0  0
  -16.3919   16.2182  -25.9061 N   0  0  0  0  0  0  0  0  0  0  0  0
  -15.8416   15.2708  -26.5825 C   0  0  0  0  0  0  0  0  0  0  0  0
  -16.5859   14.4597  -27.4573 N   0  0  0  0  0  0  0  0  0  0  0  0
  -14.4506   15.0485  -26.4334 N   0  0  0  0  0  0  0  0  0  0  0  0
  -16.7078   13.4284  -27.3434 H   0  0  0  0  0  0  0  0  0  0  0  0
  -17.0535   14.9002  -28.2787 H   0  0  0  0  0  0  0  0  0  0  0  0
  -14.0554   14.3775  -25.7344 H   0  0  0  0  0  0  0  0  0  0  0  0
  -13.7904   15.5823  -27.0511 H   0  0  0  0  0  0  0  0  0  0  0  0
  -21.2092   20.4264  -21.0585 C   0  0  0  0  0  0  0  0  0  0  0  0
  -21.7820   19.7330  -22.2292 C   0  0  0  0  0  0  0  0  0  0  0  0
  -21.7078   20.3012  -23.4718 C   0  0  0  0  0  0  0  0  0  0  0  0
  -22.2319   19.6367  -24.5528 C   0  0  0  0  0  0  0  0  0  0  0  0
  -22.8305   18.4080  -24.4075 C   0  0  0  0  0  0  0  0  0  0  0  0
  -22.9198   17.8081  -23.1595 C   0  0  0  0  0  0  0  0  0  0  0  0
  -22.3835   18.5038  -22.0983 C   0  0  0  0  0  0  0  0  0  0  0  0
 30 31  1  0  0  0
 31 28  1  0  0  0
 28 29  1  0  0  0
 28  1  1  0  0  0
  1  2  1  0  0  0
  2  3  1  0  0  0
  3  4  2  0  0  0
  3  5  1  0  0  0
  5 32  1  0  0  0
 32 33  1  0  0  0
 33 34  2  0  0  0
 34 35  1  0  0  0
 35 36  2  0  0  0
 36 37  1  0  0  0
 37 38  2  0  0  0
  5  6  1  0  0  0
  6  7  1  0  0  0
  7  8  2  0  0  0
  7  9  1  0  0  0
  9 10  1  0  0  0
 10 11  1  0  0  0
 11 12  1  0  0  0
 12 13  1  0  0  0
 13 14  1  0  0  0
 14 15  2  0  0  0
 14 16  1  0  0  0
 16 39  1  0  0  0
 39 40  1  0  0  0
 40 41  1  0  0  0
 41 42  1  0  0  0
 42 43  2  0  0  0
 43 44  1  0  0  0
 43 45  1  0  0  0
 16 17  1  0  0  0
 17 18  1  0  0  0
 18 19  2  0  0  0
 18 20  1  0  0  0
 20 50  1  0  0  0
 50 51  1  0  0  0
 51 52  2  0  0  0
 52 53  1  0  0  0
 53 54  2  0  0  0
 54 55  1  0  0  0
 55 56  2  0  0  0
 20 21  1  0  0  0
 21 22  1  0  0  0
 22 23  2  0  0  0
 22  1  1  0  0  0
 38 33  1  0  0  0
 13  9  1  0  0  0
 56 51  1  0  0  0
  2 24  1  0  0  0
  6 25  1  0  0  0
 44 46  1  0  0  0
 44 47  1  0  0  0
 45 48  1  0  0  0
 45 49  1  0  0  0
 17 26  1  0  0  0
 21 27  1  0  0  0
M  END
> <minimizedAffinity>
-5.37883

> <CNNscore>
0.3724561036

> <CNNaffinity>
7.1229805946

> <CNN_VS>
2.6529974937

> <CNNaffinity_variance>
0.4325104356

$$$$
[H]c1c([H])c([H])c(C([H])([H])[C@@]2([H])C(=O)N([H])[C@@]([H])([C@@]([H])(C([H])([H])[H])C([H])([H])C([H])([H])[H])C(=O)N([H])[C@@]([H])(C([H])([H])c3c([H])c([H])c([H])c([H])c3[H])C(=O)N([H])[C@]([H])(C([H])([H])C([H])([H])C([H])([H])N=C(N([H])[H])N([H])[H])C(=O)N3C([H])([H])C([H])([H])C([H])([H])[C@@]3([H])C(=O)N2[H])c([H])c1[H]


 56 59  0  0  0  0  0  0  0  0999 V2000
  -19.9448   17.7469  -21.0180 C   0  0  0  0  0  0  0  0  0  0  0  0
  -19.6243   16.9808  -22.2073 N   0  0  0  0  0  0  0  0  0  0  0  0
  -19.0423   15.6966  -22.2438 C   0  0  0  0  0  0  0  0  0  0  0  0
  -19.6128   14.8505  -22.9830 O   0  0  0  0  0  0  0  0  0  0  0  0
  -17.8329   15.2426  -21.5046 C   0  0  0  0  0  0  0  0  0  0  0  0
  -17.6210   13.8590  -21.8775 N   0  0  0  0  0  0  0  0  0  0  0  0
  -17.6009   12.7204  -21.0706 C   0  0  0  0  0  0  0  0  0  0  0  0
  -18.4213   11.8151  -21.3781 O   0  0  0  0  0  0  0  0  0  0  0  0
  -16.7157   12.5198  -19.9389 C   0  0  0  0  0  0  0  0  0  0  0  0
  -16.1750   11.0704  -20.2055 C   0  0  0  0  0  0  0  0  0  0  0  0
  -15.6048   10.6609  -18.9110 C   0  0  0  0  0  0  0  0  0  0  0  0
  -16.1283   11.6302  -17.9346 C   0  0  0  0  0  0  0  0  0  0  0  0
  -17.1941   12.4216  -18.6176 N   0  0  0  0  0  0  0  0  0  0  0  0
  -18.3150   12.9109  -17.9444 C   0  0  0  0  0  0  0  0  0  0  0  0
  -18.1806   13.3008  -16.6999 O   0  0  0  0  0  0  0  0  0  0  0  0
  -19.7070   13.0704  -18.4318 C   0  0  0  0  0  0  0  0  0  0  0  0
  -20.4531   13.9087  -17.5135 N   0  0  0  0  0  0  0  0  0  0  0  0
  -21.1321   15.0878  -17.7259 C   0  0  0  0  0  0  0  0  0  0  0  0
  -22.3767   15.1411  -17.4095 O   0  0  0  0  0  0  0  0  0  0  0  0
  -20.6022   16.3525  -18.2921 C   0  0  0  0  0  0  0  0  0  0  0  0
  -21.5875   16.9343  -19.2228 N   0  0  0  0  0  0  0  0  0  0  0  0
  -21.3096   17.3659  -20.5147 C   0  0  0  0  0  0  0  0  0  0  0  0
  -22.2359   17.4623  -21.3678 O   0  0  0  0  0  0  0  0  0  0  0  0
  -19.8857   17.4873  -23.1166 H   0  0  0  0  0  0  0  0  0  0  0  0
  -17.4816   13.7771  -22.9562 H   0  0  0  0  0  0  0  0  0  0  0  0
  -20.4644   13.5375  -16.5101 H   0  0  0  0  0  0  0  0  0  0  0  0
  -22.5528   17.0053  -18.8324 H   0  0  0  0  0  0  0  0  0  0  0  0
  -20.0246   19.2309  -21.3205 C   0  0  0  0  0  0  0  0  0  0  0  0
  -18.9779   19.6492  -22.3249 C   0  0  0  0  0  0  0  0  0  0  0  0
  -21.3142   21.1975  -21.9205 C   0  0  0  0  0  0  0  0  0  0  0  0
  -21.3656   19.6799  -21.7967 C   0  0  0  0  0  0  0  0  0  0  0  0
  -16.7191   16.1384  -22.0330 C   0  0  0  0  0  0  0  0  0  0  0  0
  -16.1518   15.7664  -23.3104 C   0  0  0  0  0  0  0  0  0  0  0  0
  -16.6494   16.2719  -24.4915 C   0  0  0  0  0  0  0  0  0  0  0  0
  -16.0982   15.8899  -25.7046 C   0  0  0  0  0  0  0  0  0  0  0  0
  -15.0494   15.0057  -25.7844 C   0  0  0  0  0  0  0  0  0  0  0  0
  -14.5461   14.4954  -24.5996 C   0  0  0  0  0  0  0  0  0  0  0  0
  -15.0901   14.8711  -23.3797 C   0  0  0  0  0  0  0  0  0  0  0  0
  -20.4533   11.7342  -18.4137 C   0  0  0  0  0  0  0  0  0  0  0  0
  -19.8780   10.7279  -17.4786 C   0  0  0  0  0  0  0  0  0  0  0  0
  -20.8145   10.6837  -16.2623 C   0  0  0  0  0  0  0  0  0  0  0  0
  -20.4671    9.6010  -15.3934 N   0  0  0  0  0  0  0  0  0  0  0  0
  -19.8772    9.7658  -14.2608 C   0  0  0  0  0  0  0  0  0  0  0  0
  -19.5510    8.6770  -13.4331 N   0  0  0  0  0  0  0  0  0  0  0  0
  -19.5539   11.0816  -13.8479 N   0  0  0  0  0  0  0  0  0  0  0  0
  -19.9388    8.5297  -12.4742 H   0  0  0  0  0  0  0  0  0  0  0  0
  -18.8796    7.9602  -13.7836 H   0  0  0  0  0  0  0  0  0  0  0  0
  -20.1953   11.6661  -13.2630 H   0  0  0  0  0  0  0  0  0  0  0  0
  -18.6312   11.4856  -14.1441 H   0  0  0  0  0  0  0  0  0  0  0  0
  -20.3283   17.3232  -17.1700 C   0  0  0  0  0  0  0  0  0  0  0  0
  -19.9372   18.6756  -17.6146 C   0  0  0  0  0  0  0  0  0  0  0  0
  -18.6930   18.8960  -18.1397 C   0  0  0  0  0  0  0  0  0  0  0  0
  -18.3499   20.1562  -18.5627 C   0  0  0  0  0  0  0  0  0  0  0  0
  -19.2369   21.2018  -18.4678 C   0  0  0  0  0  0  0  0  0  0  0  0
  -20.5052   21.0073  -17.9396 C   0  0  0  0  0  0  0  0  0  0  0  0
  -20.8144   19.7304  -17.5255 C   0  0  0  0  0  0  0  0  0  0  0  0
 30 31  1  0  0  0
 31 28  1  0  0  0
 28 29  1  0  0  0
 28  1  1  0  0  0
  1  2  1  0  0  0
  2  3  1  0  0  0
  3  4  2  0  0  0
  3  5  1  0  0  0
  5 32  1  0  0  0
 32 33  1  0  0  0
 33 34  2  0  0  0
 34 35  1  0  0  0
 35 36  2  0  0  0
 36 37  1  0  0  0
 37 38  2  0  0  0
  5  6  1  0  0  0
  6  7  1  0  0  0
  7  8  2  0  0  0
  7  9  1  0  0  0
  9 10  1  0  0  0
 10 11  1  0  0  0
 11 12  1  0  0  0
 12 13  1  0  0  0
 13 14  1  0  0  0
 14 15  2  0  0  0
 14 16  1  0  0  0
 16 39  1  0  0  0
 39 40  1  0  0  0
 40 41  1  0  0  0
 41 42  1  0  0  0
 42 43  2  0  0  0
 43 44  1  0  0  0
 43 45  1  0  0  0
 16 17  1  0  0  0
 17 18  1  0  0  0
 18 19  2  0  0  0
 18 20  1  0  0  0
 20 50  1  0  0  0
 50 51  1  0  0  0
 51 52  2  0  0  0
 52 53  1  0  0  0
 53 54  2  0  0  0
 54 55  1  0  0  0
 55 56  2  0  0  0
 20 21  1  0  0  0
 21 22  1  0  0  0
 22 23  2  0  0  0
 22  1  1  0  0  0
 38 33  1  0  0  0
 13  9  1  0  0  0
 56 51  1  0  0  0
  2 24  1  0  0  0
  6 25  1  0  0  0
 44 46  1  0  0  0
 44 47  1  0  0  0
 45 48  1  0  0  0
 45 49  1  0  0  0
 17 26  1  0  0  0
 21 27  1  0  0  0
M  END
> <minimizedAffinity>
-4.28196

> <CNNscore>
0.3693216741

> <CNNaffinity>
7.0678787231

> <CNN_VS>
2.6103208065

> <CNNaffinity_variance>
0.8823059797

$$$$
[H]c1c([H])c([H])c(C([H])([H])[C@@]2([H])C(=O)N([H])[C@@]([H])([C@@]([H])(C([H])([H])[H])C([H])([H])C([H])([H])[H])C(=O)N([H])[C@@]([H])(C([H])([H])c3c([H])c([H])c([H])c([H])c3[H])C(=O)N([H])[C@]([H])(C([H])([H])C([H])([H])C([H])([H])N=C(N([H])[H])N([H])[H])C(=O)N3C([H])([H])C([H])([H])C([H])([H])[C@@]3([H])C(=O)N2[H])c([H])c1[H]


 56 59  0  0  0  0  0  0  0  0999 V2000
  -20.0202   18.8034  -20.7027 C   0  0  0  0  0  0  0  0  0  0  0  0
  -20.1689   17.9173  -21.8415 N   0  0  0  0  0  0  0  0  0  0  0  0
  -19.8774   16.5377  -21.8719 C   0  0  0  0  0  0  0  0  0  0  0  0
  -20.7710   15.7931  -22.3563 O   0  0  0  0  0  0  0  0  0  0  0  0
  -18.6322   15.8770  -21.3942 C   0  0  0  0  0  0  0  0  0  0  0  0
  -18.7963   14.4608  -21.6507 N   0  0  0  0  0  0  0  0  0  0  0  0
  -18.7938   13.3946  -20.7502 C   0  0  0  0  0  0  0  0  0  0  0  0
  -19.8256   12.6718  -20.7522 O   0  0  0  0  0  0  0  0  0  0  0  0
  -17.7062   13.0742  -19.8451 C   0  0  0  0  0  0  0  0  0  0  0  0
  -17.5446   11.5290  -20.0695 C   0  0  0  0  0  0  0  0  0  0  0  0
  -16.7547   11.0828  -18.9095 C   0  0  0  0  0  0  0  0  0  0  0  0
  -16.8128   12.1983  -17.9507 C   0  0  0  0  0  0  0  0  0  0  0  0
  -17.8419   13.1600  -18.4456 N   0  0  0  0  0  0  0  0  0  0  0  0
  -18.6367   13.9193  -17.5849 C   0  0  0  0  0  0  0  0  0  0  0  0
  -18.1164   14.3436  -16.4587 O   0  0  0  0  0  0  0  0  0  0  0  0
  -20.0482   14.3473  -17.7435 C   0  0  0  0  0  0  0  0  0  0  0  0
  -20.3575   15.3800  -16.7736 N   0  0  0  0  0  0  0  0  0  0  0  0
  -20.8248   16.6635  -16.9489 C   0  0  0  0  0  0  0  0  0  0  0  0
  -21.9127   17.0035  -16.3548 O   0  0  0  0  0  0  0  0  0  0  0  0
  -20.2205   17.7478  -17.7612 C   0  0  0  0  0  0  0  0  0  0  0  0
  -21.2773   18.4731  -18.4910 N   0  0  0  0  0  0  0  0  0  0  0  0
  -21.2590   18.7574  -19.8516 C   0  0  0  0  0  0  0  0  0  0  0  0
  -22.3348   19.0015  -20.4665 O   0  0  0  0  0  0  0  0  0  0  0  0
  -20.5493   18.4138  -22.7135 H   0  0  0  0  0  0  0  0  0  0  0  0
  -18.9550   14.2871  -22.7158 H   0  0  0  0  0  0  0  0  0  0  0  0
  -20.1850   15.0799  -15.7613 H   0  0  0  0  0  0  0  0  0  0  0  0
  -22.0783   18.7744  -17.8935 H   0  0  0  0  0  0  0  0  0  0  0  0
  -19.8834   20.2490  -21.1406 C   0  0  0  0  0  0  0  0  0  0  0  0
  -20.0382   21.1980  -19.9765 C   0  0  0  0  0  0  0  0  0  0  0  0
  -18.0658   19.2272  -22.3825 C   0  0  0  0  0  0  0  0  0  0  0  0
  -18.6041   20.5483  -21.8480 C   0  0  0  0  0  0  0  0  0  0  0  0
  -17.5372   16.4776  -22.2673 C   0  0  0  0  0  0  0  0  0  0  0  0
  -17.0688   15.6551  -23.3611 C   0  0  0  0  0  0  0  0  0  0  0  0
  -15.8068   15.1026  -23.3546 C   0  0  0  0  0  0  0  0  0  0  0  0
  -15.3749   14.3292  -24.4207 C   0  0  0  0  0  0  0  0  0  0  0  0
  -16.1705   14.0821  -25.5135 C   0  0  0  0  0  0  0  0  0  0  0  0
  -17.4398   14.6355  -25.5240 C   0  0  0  0  0  0  0  0  0  0  0  0
  -17.8824   15.4111  -24.4620 C   0  0  0  0  0  0  0  0  0  0  0  0
  -21.0110   13.2079  -17.4011 C   0  0  0  0  0  0  0  0  0  0  0  0
  -21.9404   13.5126  -16.2779 C   0  0  0  0  0  0  0  0  0  0  0  0
  -21.3556   12.8259  -15.0350 C   0  0  0  0  0  0  0  0  0  0  0  0
  -21.1895   11.4227  -15.2613 N   0  0  0  0  0  0  0  0  0  0  0  0
  -21.4952   10.5257  -14.3897 C   0  0  0  0  0  0  0  0  0  0  0  0
  -21.3177    9.1549  -14.6476 N   0  0  0  0  0  0  0  0  0  0  0  0
  -22.0236   10.9416  -13.1429 N   0  0  0  0  0  0  0  0  0  0  0  0
  -22.0945    8.4572  -14.6825 H   0  0  0  0  0  0  0  0  0  0  0  0
  -20.3541    8.7942  -14.8173 H   0  0  0  0  0  0  0  0  0  0  0  0
  -23.0505   11.0391  -12.9664 H   0  0  0  0  0  0  0  0  0  0  0  0
  -21.3539   11.1622  -12.3650 H   0  0  0  0  0  0  0  0  0  0  0  0
  -19.4859   18.7007  -16.8507 C   0  0  0  0  0  0  0  0  0  0  0  0
  -20.3629   19.5445  -16.0150 C   0  0  0  0  0  0  0  0  0  0  0  0
  -20.0961   19.7092  -14.6830 C   0  0  0  0  0  0  0  0  0  0  0  0
  -20.9125   20.5093  -13.9226 C   0  0  0  0  0  0  0  0  0  0  0  0
  -21.9948   21.1490  -14.4780 C   0  0  0  0  0  0  0  0  0  0  0  0
  -22.2891   21.0002  -15.8258 C   0  0  0  0  0  0  0  0  0  0  0  0
  -21.4487   20.1902  -16.5573 C   0  0  0  0  0  0  0  0  0  0  0  0
 30 31  1  0  0  0
 31 28  1  0  0  0
 28 29  1  0  0  0
 28  1  1  0  0  0
  1  2  1  0  0  0
  2  3  1  0  0  0
  3  4  2  0  0  0
  3  5  1  0  0  0
  5 32  1  0  0  0
 32 33  1  0  0  0
 33 34  2  0  0  0
 34 35  1  0  0  0
 35 36  2  0  0  0
 36 37  1  0  0  0
 37 38  2  0  0  0
  5  6  1  0  0  0
  6  7  1  0  0  0
  7  8  2  0  0  0
  7  9  1  0  0  0
  9 10  1  0  0  0
 10 11  1  0  0  0
 11 12  1  0  0  0
 12 13  1  0  0  0
 13 14  1  0  0  0
 14 15  2  0  0  0
 14 16  1  0  0  0
 16 39  1  0  0  0
 39 40  1  0  0  0
 40 41  1  0  0  0
 41 42  1  0  0  0
 42 43  2  0  0  0
 43 44  1  0  0  0
 43 45  1  0  0  0
 16 17  1  0  0  0
 17 18  1  0  0  0
 18 19  2  0  0  0
 18 20  1  0  0  0
 20 50  1  0  0  0
 50 51  1  0  0  0
 51 52  2  0  0  0
 52 53  1  0  0  0
 53 54  2  0  0  0
 54 55  1  0  0  0
 55 56  2  0  0  0
 20 21  1  0  0  0
 21 22  1  0  0  0
 22 23  2  0  0  0
 22  1  1  0  0  0
 38 33  1  0  0  0
 13  9  1  0  0  0
 56 51  1  0  0  0
  2 24  1  0  0  0
  6 25  1  0  0  0
 44 46  1  0  0  0
 44 47  1  0  0  0
 45 48  1  0  0  0
 45 49  1  0  0  0
 17 26  1  0  0  0
 21 27  1  0  0  0
M  END
> <minimizedAffinity>
-5.48510

> <CNNscore>
0.3049021363

> <CNNaffinity>
7.1052727699

> <CNN_VS>
2.1664128304

> <CNNaffinity_variance>
0.7176072001

$$$$
[H]c1c([H])c([H])c(C([H])([H])[C@@]2([H])C(=O)N([H])[C@@]([H])([C@@]([H])(C([H])([H])[H])C([H])([H])C([H])([H])[H])C(=O)N([H])[C@@]([H])(C([H])([H])c3c([H])c([H])c([H])c([H])c3[H])C(=O)N([H])[C@]([H])(C([H])([H])C([H])([H])C([H])([H])N=C(N([H])[H])N([H])[H])C(=O)N3C([H])([H])C([H])([H])C([H])([H])[C@@]3([H])C(=O)N2[H])c([H])c1[H]


 56 59  0  0  0  0  0  0  0  0999 V2000
  -21.6963   12.8292  -14.6073 C   0  0  0  0  0  0  0  0  0  0  0  0
  -22.9940   13.3809  -14.2675 N   0  0  0  0  0  0  0  0  0  0  0  0
  -23.5118   14.6230  -14.6900 C   0  0  0  0  0  0  0  0  0  0  0  0
  -24.6796   14.6044  -15.1631 O   0  0  0  0  0  0  0  0  0  0  0  0
  -22.8255   15.9424  -14.6345 C   0  0  0  0  0  0  0  0  0  0  0  0
  -23.7619   16.9131  -15.1628 N   0  0  0  0  0  0  0  0  0  0  0  0
  -23.6316   17.7541  -16.2690 C   0  0  0  0  0  0  0  0  0  0  0  0
  -24.5236   17.6426  -17.1516 O   0  0  0  0  0  0  0  0  0  0  0  0
  -22.5681   18.7232  -16.4550 C   0  0  0  0  0  0  0  0  0  0  0  0
  -23.3696   20.0031  -16.8836 C   0  0  0  0  0  0  0  0  0  0  0  0
  -22.3450   20.8835  -17.4697 C   0  0  0  0  0  0  0  0  0  0  0  0
  -21.1754   20.0183  -17.6947 C   0  0  0  0  0  0  0  0  0  0  0  0
  -21.6166   18.6072  -17.4872 N   0  0  0  0  0  0  0  0  0  0  0  0
  -21.0763   17.5378  -18.2037 C   0  0  0  0  0  0  0  0  0  0  0  0
  -19.8077   17.5780  -18.5325 O   0  0  0  0  0  0  0  0  0  0  0  0
  -21.7368   16.2976  -18.6794 C   0  0  0  0  0  0  0  0  0  0  0  0
  -20.7323   15.3344  -19.0867 N   0  0  0  0  0  0  0  0  0  0  0  0
  -20.4979   14.0473  -18.6567 C   0  0  0  0  0  0  0  0  0  0  0  0
  -20.4990   13.1028  -19.5283 O   0  0  0  0  0  0  0  0  0  0  0  0
  -20.2348   13.5855  -17.2717 C   0  0  0  0  0  0  0  0  0  0  0  0
  -20.9675   12.3312  -17.0160 N   0  0  0  0  0  0  0  0  0  0  0  0
  -21.7794   12.0895  -15.9138 C   0  0  0  0  0  0  0  0  0  0  0  0
  -22.6687   11.1940  -15.9611 O   0  0  0  0  0  0  0  0  0  0  0  0
  -23.5747   12.7332  -13.6389 H   0  0  0  0  0  0  0  0  0  0  0  0
  -24.6768   16.9156  -14.5688 H   0  0  0  0  0  0  0  0  0  0  0  0
  -20.0710   15.7018  -19.8433 H   0  0  0  0  0  0  0  0  0  0  0  0
  -20.8318   11.6010  -17.7493 H   0  0  0  0  0  0  0  0  0  0  0  0
  -21.2483   11.8000  -13.5873 C   0  0  0  0  0  0  0  0  0  0  0  0
  -19.7825   11.4711  -13.7384 C   0  0  0  0  0  0  0  0  0  0  0  0
  -20.7969   11.1888  -11.2823 C   0  0  0  0  0  0  0  0  0  0  0  0
  -21.5174   12.1929  -12.1732 C   0  0  0  0  0  0  0  0  0  0  0  0
  -22.5724   16.1648  -13.1483 C   0  0  0  0  0  0  0  0  0  0  0  0
  -22.3574   17.5340  -12.7346 C   0  0  0  0  0  0  0  0  0  0  0  0
  -21.2793   18.2608  -13.1901 C   0  0  0  0  0  0  0  0  0  0  0  0
  -21.0863   19.5671  -12.7685 C   0  0  0  0  0  0  0  0  0  0  0  0
  -21.9453   20.1866  -11.8929 C   0  0  0  0  0  0  0  0  0  0  0  0
  -23.0303   19.4596  -11.4328 C   0  0  0  0  0  0  0  0  0  0  0  0
  -23.2332   18.1515  -11.8484 C   0  0  0  0  0  0  0  0  0  0  0  0
  -22.5469   16.5584  -19.9516 C   0  0  0  0  0  0  0  0  0  0  0  0
  -22.2974   17.8900  -20.5702 C   0  0  0  0  0  0  0  0  0  0  0  0
  -21.6512   17.6172  -21.9364 C   0  0  0  0  0  0  0  0  0  0  0  0
  -20.2765   17.2503  -21.7834 N   0  0  0  0  0  0  0  0  0  0  0  0
  -19.2990   18.0215  -22.1116 C   0  0  0  0  0  0  0  0  0  0  0  0
  -17.9596   17.6264  -21.9469 N   0  0  0  0  0  0  0  0  0  0  0  0
  -19.5919   19.2983  -22.6506 N   0  0  0  0  0  0  0  0  0  0  0  0
  -17.2768   18.1080  -21.3197 H   0  0  0  0  0  0  0  0  0  0  0  0
  -17.6083   16.8007  -22.4781 H   0  0  0  0  0  0  0  0  0  0  0  0
  -19.6813   20.1567  -22.0589 H   0  0  0  0  0  0  0  0  0  0  0  0
  -19.7258   19.3836  -23.6885 H   0  0  0  0  0  0  0  0  0  0  0  0
  -18.7542   13.3537  -17.0977 C   0  0  0  0  0  0  0  0  0  0  0  0
  -18.2182   12.2199  -17.8768 C   0  0  0  0  0  0  0  0  0  0  0  0
  -17.3488   12.4425  -18.9097 C   0  0  0  0  0  0  0  0  0  0  0  0
  -16.8475   11.3765  -19.6147 C   0  0  0  0  0  0  0  0  0  0  0  0
  -17.2047   10.0872  -19.2996 C   0  0  0  0  0  0  0  0  0  0  0  0
  -18.0843    9.8319  -18.2573 C   0  0  0  0  0  0  0  0  0  0  0  0
  -18.5670   10.9254  -17.5725 C   0  0  0  0  0  0  0  0  0  0  0  0
 30 31  1  0  0  0
 31 28  1  0  0  0
 28 29  1  0  0  0
 28  1  1  0  0  0
  1  2  1  0  0  0
  2  3  1  0  0  0
  3  4  2  0  0  0
  3  5  1  0  0  0
  5 32  1  0  0  0
 32 33  1  0  0  0
 33 34  2  0  0  0
 34 35  1  0  0  0
 35 36  2  0  0  0
 36 37  1  0  0  0
 37 38  2  0  0  0
  5  6  1  0  0  0
  6  7  1  0  0  0
  7  8  2  0  0  0
  7  9  1  0  0  0
  9 10  1  0  0  0
 10 11  1  0  0  0
 11 12  1  0  0  0
 12 13  1  0  0  0
 13 14  1  0  0  0
 14 15  2  0  0  0
 14 16  1  0  0  0
 16 39  1  0  0  0
 39 40  1  0  0  0
 40 41  1  0  0  0
 41 42  1  0  0  0
 42 43  2  0  0  0
 43 44  1  0  0  0
 43 45  1  0  0  0
 16 17  1  0  0  0
 17 18  1  0  0  0
 18 19  2  0  0  0
 18 20  1  0  0  0
 20 50  1  0  0  0
 50 51  1  0  0  0
 51 52  2  0  0  0
 52 53  1  0  0  0
 53 54  2  0  0  0
 54 55  1  0  0  0
 55 56  2  0  0  0
 20 21  1  0  0  0
 21 22  1  0  0  0
 22 23  2  0  0  0
 22  1  1  0  0  0
 38 33  1  0  0  0
 13  9  1  0  0  0
 56 51  1  0  0  0
  2 24  1  0  0  0
  6 25  1  0  0  0
 44 46  1  0  0  0
 44 47  1  0  0  0
 45 48  1  0  0  0
 45 49  1  0  0  0
 17 26  1  0  0  0
 21 27  1  0  0  0
M  END
> <minimizedAffinity>
-5.27077

> <CNNscore>
0.2963343263

> <CNNaffinity>
6.9014639854

> <CNN_VS>
2.0451407433

> <CNNaffinity_variance>
1.3495329618

$$$$
[H]c1c([H])c([H])c(C([H])([H])[C@@]2([H])C(=O)N([H])[C@@]([H])([C@@]([H])(C([H])([H])[H])C([H])([H])C([H])([H])[H])C(=O)N([H])[C@@]([H])(C([H])([H])c3c([H])c([H])c([H])c([H])c3[H])C(=O)N([H])[C@]([H])(C([H])([H])C([H])([H])C([H])([H])N=C(N([H])[H])N([H])[H])C(=O)N3C([H])([H])C([H])([H])C([H])([H])[C@@]3([H])C(=O)N2[H])c([H])c1[H]


 56 59  0  0  0  0  0  0  0  0999 V2000
  -18.1400   17.7766  -20.4288 C   0  0  0  0  0  0  0  0  0  0  0  0
  -18.4210   16.4484  -20.9397 N   0  0  0  0  0  0  0  0  0  0  0  0
  -19.2394   15.4739  -20.3316 C   0  0  0  0  0  0  0  0  0  0  0  0
  -20.0987   14.9296  -21.0753 O   0  0  0  0  0  0  0  0  0  0  0  0
  -19.1921   15.0264  -18.9130 C   0  0  0  0  0  0  0  0  0  0  0  0
  -20.2089   14.0044  -18.7722 N   0  0  0  0  0  0  0  0  0  0  0  0
  -21.3289   13.9822  -17.9399 C   0  0  0  0  0  0  0  0  0  0  0  0
  -22.4394   13.8399  -18.5175 O   0  0  0  0  0  0  0  0  0  0  0  0
  -21.2923   14.1025  -16.4946 C   0  0  0  0  0  0  0  0  0  0  0  0
  -22.2289   12.9242  -16.0491 C   0  0  0  0  0  0  0  0  0  0  0  0
  -22.5526   13.2389  -14.6474 C   0  0  0  0  0  0  0  0  0  0  0  0
  -22.1537   14.6441  -14.4651 C   0  0  0  0  0  0  0  0  0  0  0  0
  -21.8535   15.2026  -15.8167 N   0  0  0  0  0  0  0  0  0  0  0  0
  -22.0944   16.5369  -16.1491 C   0  0  0  0  0  0  0  0  0  0  0  0
  -21.9298   17.4543  -15.2270 O   0  0  0  0  0  0  0  0  0  0  0  0
  -22.5292   17.1181  -17.4429 C   0  0  0  0  0  0  0  0  0  0  0  0
  -22.3379   18.5554  -17.4218 N   0  0  0  0  0  0  0  0  0  0  0  0
  -21.6090   19.3751  -18.2544 C   0  0  0  0  0  0  0  0  0  0  0  0
  -22.2162   20.3438  -18.8417 O   0  0  0  0  0  0  0  0  0  0  0  0
  -20.1639   19.2884  -18.5781 C   0  0  0  0  0  0  0  0  0  0  0  0
  -19.9587   19.5384  -20.0172 N   0  0  0  0  0  0  0  0  0  0  0  0
  -19.2124   18.7337  -20.8703 C   0  0  0  0  0  0  0  0  0  0  0  0
  -19.4105   18.7705  -22.1171 O   0  0  0  0  0  0  0  0  0  0  0  0
  -17.9395   16.2483  -21.8777 H   0  0  0  0  0  0  0  0  0  0  0  0
  -20.0097   13.1785  -19.4564 H   0  0  0  0  0  0  0  0  0  0  0  0
  -22.8510   19.0422  -16.6190 H   0  0  0  0  0  0  0  0  0  0  0  0
  -20.4314   20.3985  -20.3722 H   0  0  0  0  0  0  0  0  0  0  0  0
  -16.8467   18.3267  -20.9991 C   0  0  0  0  0  0  0  0  0  0  0  0
  -15.6784   18.0614  -20.0803 C   0  0  0  0  0  0  0  0  0  0  0  0
  -15.8821   16.4440  -22.1887 C   0  0  0  0  0  0  0  0  0  0  0  0
  -16.5214   17.8158  -22.3628 C   0  0  0  0  0  0  0  0  0  0  0  0
  -17.7924   14.4445  -18.7558 C   0  0  0  0  0  0  0  0  0  0  0  0
  -17.5775   13.1336  -19.3281 C   0  0  0  0  0  0  0  0  0  0  0  0
  -17.3489   12.9676  -20.6766 C   0  0  0  0  0  0  0  0  0  0  0  0
  -17.1596   11.7000  -21.2044 C   0  0  0  0  0  0  0  0  0  0  0  0
  -17.1903   10.5708  -20.4221 C   0  0  0  0  0  0  0  0  0  0  0  0
  -17.4196   10.7332  -19.0661 C   0  0  0  0  0  0  0  0  0  0  0  0
  -17.6103   11.9975  -18.5272 C   0  0  0  0  0  0  0  0  0  0  0  0
  -24.0356   16.9412  -17.6475 C   0  0  0  0  0  0  0  0  0  0  0  0
  -24.5596   17.5717  -18.8909 C   0  0  0  0  0  0  0  0  0  0  0  0
  -23.4872   17.3570  -19.9689 C   0  0  0  0  0  0  0  0  0  0  0  0
  -24.0878   17.2016  -21.2585 N   0  0  0  0  0  0  0  0  0  0  0  0
  -23.5552   17.6450  -22.3437 C   0  0  0  0  0  0  0  0  0  0  0  0
  -24.1753   17.4737  -23.5939 N   0  0  0  0  0  0  0  0  0  0  0  0
  -22.3125   18.3203  -22.2644 N   0  0  0  0  0  0  0  0  0  0  0  0
  -23.7658   16.9265  -24.3841 H   0  0  0  0  0  0  0  0  0  0  0  0
  -25.1053   17.9151  -23.7604 H   0  0  0  0  0  0  0  0  0  0  0  0
  -21.3934   17.8301  -22.3641 H   0  0  0  0  0  0  0  0  0  0  0  0
  -22.3170   19.3568  -22.0970 H   0  0  0  0  0  0  0  0  0  0  0  0
  -19.4111   20.3173  -17.7712 C   0  0  0  0  0  0  0  0  0  0  0  0
  -19.6416   20.2389  -16.3150 C   0  0  0  0  0  0  0  0  0  0  0  0
  -19.1119   19.2082  -15.5874 C   0  0  0  0  0  0  0  0  0  0  0  0
  -19.3227   19.1577  -14.2317 C   0  0  0  0  0  0  0  0  0  0  0  0
  -20.0576   20.1272  -13.5921 C   0  0  0  0  0  0  0  0  0  0  0  0
  -20.6064   21.1838  -14.3046 C   0  0  0  0  0  0  0  0  0  0  0  0
  -20.3746   21.2016  -15.6624 C   0  0  0  0  0  0  0  0  0  0  0  0
 30 31  1  0  0  0
 31 28  1  0  0  0
 28 29  1  0  0  0
 28  1  1  0  0  0
  1  2  1  0  0  0
  2  3  1  0  0  0
  3  4  2  0  0  0
  3  5  1  0  0  0
  5 32  1  0  0  0
 32 33  1  0  0  0
 33 34  2  0  0  0
 34 35  1  0  0  0
 35 36  2  0  0  0
 36 37  1  0  0  0
 37 38  2  0  0  0
  5  6  1  0  0  0
  6  7  1  0  0  0
  7  8  2  0  0  0
  7  9  1  0  0  0
  9 10  1  0  0  0
 10 11  1  0  0  0
 11 12  1  0  0  0
 12 13  1  0  0  0
 13 14  1  0  0  0
 14 15  2  0  0  0
 14 16  1  0  0  0
 16 39  1  0  0  0
 39 40  1  0  0  0
 40 41  1  0  0  0
 41 42  1  0  0  0
 42 43  2  0  0  0
 43 44  1  0  0  0
 43 45  1  0  0  0
 16 17  1  0  0  0
 17 18  1  0  0  0
 18 19  2  0  0  0
 18 20  1  0  0  0
 20 50  1  0  0  0
 50 51  1  0  0  0
 51 52  2  0  0  0
 52 53  1  0  0  0
 53 54  2  0  0  0
 54 55  1  0  0  0
 55 56  2  0  0  0
 20 21  1  0  0  0
 21 22  1  0  0  0
 22 23  2  0  0  0
 22  1  1  0  0  0
 38 33  1  0  0  0
 13  9  1  0  0  0
 56 51  1  0  0  0
  2 24  1  0  0  0
  6 25  1  0  0  0
 44 46  1  0  0  0
 44 47  1  0  0  0
 45 48  1  0  0  0
 45 49  1  0  0  0
 17 26  1  0  0  0
 21 27  1  0  0  0
M  END
> <minimizedAffinity>
-3.48551

> <CNNscore>
0.2352064401

> <CNNaffinity>
6.6468935013

> <CNN_VS>
1.5633921623

> <CNNaffinity_variance>
0.7435266376

$$$$
[H]c1c([H])c([H])c(C([H])([H])[C@@]2([H])C(=O)N([H])[C@@]([H])([C@@]([H])(C([H])([H])[H])C([H])([H])C([H])([H])[H])C(=O)N([H])[C@@]([H])(C([H])([H])c3c([H])c([H])c([H])c([H])c3[H])C(=O)N([H])[C@]([H])(C([H])([H])C([H])([H])C([H])([H])N=C(N([H])[H])N([H])[H])C(=O)N3C([H])([H])C([H])([H])C([H])([H])[C@@]3([H])C(=O)N2[H])c([H])c1[H]


 56 59  0  0  0  0  0  0  0  0999 V2000
  -20.4155   19.1557  -22.1943 C   0  0  0  0  0  0  0  0  0  0  0  0
  -21.6405   19.1557  -21.4175 N   0  0  0  0  0  0  0  0  0  0  0  0
  -21.9943   18.2309  -20.4131 C   0  0  0  0  0  0  0  0  0  0  0  0
  -22.4030   18.7220  -19.3270 O   0  0  0  0  0  0  0  0  0  0  0  0
  -21.9348   16.7466  -20.5043 C   0  0  0  0  0  0  0  0  0  0  0  0
  -22.4122   16.2393  -19.2343 N   0  0  0  0  0  0  0  0  0  0  0  0
  -21.7524   15.4417  -18.2982 C   0  0  0  0  0  0  0  0  0  0  0  0
  -21.6649   15.9183  -17.1353 O   0  0  0  0  0  0  0  0  0  0  0  0
  -21.1850   14.1350  -18.5729 C   0  0  0  0  0  0  0  0  0  0  0  0
  -21.7274   13.2881  -17.3676 C   0  0  0  0  0  0  0  0  0  0  0  0
  -20.8744   12.0877  -17.3654 C   0  0  0  0  0  0  0  0  0  0  0  0
  -19.7330   12.4234  -18.2323 C   0  0  0  0  0  0  0  0  0  0  0  0
  -19.7994   13.8885  -18.5114 N   0  0  0  0  0  0  0  0  0  0  0  0
  -18.6578   14.6727  -18.6869 C   0  0  0  0  0  0  0  0  0  0  0  0
  -17.6136   14.1406  -19.2747 O   0  0  0  0  0  0  0  0  0  0  0  0
  -18.4193   16.0839  -18.2965 C   0  0  0  0  0  0  0  0  0  0  0  0
  -17.2280   16.5793  -18.9582 N   0  0  0  0  0  0  0  0  0  0  0  0
  -17.0506   17.6575  -19.7962 C   0  0  0  0  0  0  0  0  0  0  0  0
  -16.1793   18.5453  -19.4726 O   0  0  0  0  0  0  0  0  0  0  0  0
  -17.7556   17.9447  -21.0695 C   0  0  0  0  0  0  0  0  0  0  0  0
  -18.0854   19.3803  -21.1449 N   0  0  0  0  0  0  0  0  0  0  0  0
  -19.3381   19.8981  -21.4533 C   0  0  0  0  0  0  0  0  0  0  0  0
  -19.6447   21.0736  -21.1081 O   0  0  0  0  0  0  0  0  0  0  0  0
  -22.2979   19.9657  -21.6695 H   0  0  0  0  0  0  0  0  0  0  0  0
  -23.4298   16.5857  -19.0491 H   0  0  0  0  0  0  0  0  0  0  0  0
  -16.3535   15.9976  -18.7539 H   0  0  0  0  0  0  0  0  0  0  0  0
  -17.2810   20.0138  -20.9426 H   0  0  0  0  0  0  0  0  0  0  0  0
  -20.5912   19.8988  -23.5048 C   0  0  0  0  0  0  0  0  0  0  0  0
  -19.2652   20.1517  -24.1810 C   0  0  0  0  0  0  0  0  0  0  0  0
  -21.8588   20.2359  -25.5468 C   0  0  0  0  0  0  0  0  0  0  0  0
  -21.5084   19.2204  -24.4666 C   0  0  0  0  0  0  0  0  0  0  0  0
  -22.8970   16.4074  -21.6363 C   0  0  0  0  0  0  0  0  0  0  0  0
  -23.4946   17.5302  -22.3251 C   0  0  0  0  0  0  0  0  0  0  0  0
  -23.8214   18.6904  -21.6579 C   0  0  0  0  0  0  0  0  0  0  0  0
  -24.4063   19.7481  -22.3366 C   0  0  0  0  0  0  0  0  0  0  0  0
  -24.6824   19.6898  -23.6814 C   0  0  0  0  0  0  0  0  0  0  0  0
  -24.3555   18.5255  -24.3558 C   0  0  0  0  0  0  0  0  0  0  0  0
  -23.7695   17.4607  -23.6864 C   0  0  0  0  0  0  0  0  0  0  0  0
  -18.0961   16.1954  -16.8046 C   0  0  0  0  0  0  0  0  0  0  0  0
  -18.1249   17.5881  -16.2777 C   0  0  0  0  0  0  0  0  0  0  0  0
  -19.6061   17.9503  -16.0952 C   0  0  0  0  0  0  0  0  0  0  0  0
  -19.7424   19.2403  -15.4910 N   0  0  0  0  0  0  0  0  0  0  0  0
  -19.9939   19.4111  -14.2397 C   0  0  0  0  0  0  0  0  0  0  0  0
  -20.1214   20.6951  -13.6810 N   0  0  0  0  0  0  0  0  0  0  0  0
  -20.1433   18.2696  -13.4144 N   0  0  0  0  0  0  0  0  0  0  0  0
  -19.4920   21.0803  -12.9414 H   0  0  0  0  0  0  0  0  0  0  0  0
  -20.8890   21.3168  -14.0153 H   0  0  0  0  0  0  0  0  0  0  0  0
  -19.3454   17.8397  -12.8914 H   0  0  0  0  0  0  0  0  0  0  0  0
  -21.0963   17.8378  -13.3269 H   0  0  0  0  0  0  0  0  0  0  0  0
  -16.8648   17.5664  -22.2271 C   0  0  0  0  0  0  0  0  0  0  0  0
  -17.1418   16.2345  -22.8005 C   0  0  0  0  0  0  0  0  0  0  0  0
  -17.9818   16.1065  -23.8731 C   0  0  0  0  0  0  0  0  0  0  0  0
  -18.2172   14.8626  -24.4042 C   0  0  0  0  0  0  0  0  0  0  0  0
  -17.6219   13.7420  -23.8761 C   0  0  0  0  0  0  0  0  0  0  0  0
  -16.7657   13.8420  -22.7888 C   0  0  0  0  0  0  0  0  0  0  0  0
  -16.5532   15.1054  -22.2822 C   0  0  0  0  0  0  0  0  0  0  0  0
 30 31  1  0  0  0
 31 28  1  0  0  0
 28 29  1  0  0  0
 28  1  1  0  0  0
  1  2  1  0  0  0
  2  3  1  0  0  0
  3  4  2  0  0  0
  3  5  1  0  0  0
  5 32  1  0  0  0
 32 33  1  0  0  0
 33 34  2  0  0  0
 34 35  1  0  0  0
 35 36  2  0  0  0
 36 37  1  0  0  0
 37 38  2  0  0  0
  5  6  1  0  0  0
  6  7  1  0  0  0
  7  8  2  0  0  0
  7  9  1  0  0  0
  9 10  1  0  0  0
 10 11  1  0  0  0
 11 12  1  0  0  0
 12 13  1  0  0  0
 13 14  1  0  0  0
 14 15  2  0  0  0
 14 16  1  0  0  0
 16 39  1  0  0  0
 39 40  1  0  0  0
 40 41  1  0  0  0
 41 42  1  0  0  0
 42 43  2  0  0  0
 43 44  1  0  0  0
 43 45  1  0  0  0
 16 17  1  0  0  0
 17 18  1  0  0  0
 18 19  2  0  0  0
 18 20  1  0  0  0
 20 50  1  0  0  0
 50 51  1  0  0  0
 51 52  2  0  0  0
 52 53  1  0  0  0
 53 54  2  0  0  0
 54 55  1  0  0  0
 55 56  2  0  0  0
 20 21  1  0  0  0
 21 22  1  0  0  0
 22 23  2  0  0  0
 22  1  1  0  0  0
 38 33  1  0  0  0
 13  9  1  0  0  0
 56 51  1  0  0  0
  2 24  1  0  0  0
  6 25  1  0  0  0
 44 46  1  0  0  0
 44 47  1  0  0  0
 45 48  1  0  0  0
 45 49  1  0  0  0
 17 26  1  0  0  0
 21 27  1  0  0  0
M  END
> <minimizedAffinity>
-2.59953

> <CNNscore>
0.2036302984

> <CNNaffinity>
6.4467649460

> <CNN_VS>
1.3127566576

> <CNNaffinity_variance>
0.4790373445

$$$$
[H]c1c([H])c([H])c(C([H])([H])[C@@]2([H])C(=O)N([H])[C@@]([H])([C@@]([H])(C([H])([H])[H])C([H])([H])C([H])([H])[H])C(=O)N([H])[C@@]([H])(C([H])([H])c3c([H])c([H])c([H])c([H])c3[H])C(=O)N([H])[C@]([H])(C([H])([H])C([H])([H])C([H])([H])N=C(N([H])[H])N([H])[H])C(=O)N3C([H])([H])C([H])([H])C([H])([H])[C@@]3([H])C(=O)N2[H])c([H])c1[H]


 56 59  0  0  0  0  0  0  0  0999 V2000
  -20.5855   19.1551  -19.0375 C   0  0  0  0  0  0  0  0  0  0  0  0
  -20.9546   18.5601  -20.3078 N   0  0  0  0  0  0  0  0  0  0  0  0
  -20.6988   17.2347  -20.7167 C   0  0  0  0  0  0  0  0  0  0  0  0
  -21.6790   16.6034  -21.1945 O   0  0  0  0  0  0  0  0  0  0  0  0
  -19.4000   16.5116  -20.6421 C   0  0  0  0  0  0  0  0  0  0  0  0
  -19.6339   15.1926  -21.1932 N   0  0  0  0  0  0  0  0  0  0  0  0
  -19.4879   13.9441  -20.5871 C   0  0  0  0  0  0  0  0  0  0  0  0
  -20.5161   13.2163  -20.5742 O   0  0  0  0  0  0  0  0  0  0  0  0
  -18.2603   13.4464  -19.9954 C   0  0  0  0  0  0  0  0  0  0  0  0
  -18.1706   12.0027  -20.6052 C   0  0  0  0  0  0  0  0  0  0  0  0
  -17.1919   11.3151  -19.7463 C   0  0  0  0  0  0  0  0  0  0  0  0
  -17.0546   12.1703  -18.5560 C   0  0  0  0  0  0  0  0  0  0  0  0
  -18.1385   13.1953  -18.6145 N   0  0  0  0  0  0  0  0  0  0  0  0
  -18.7499   13.7089  -17.4694 C   0  0  0  0  0  0  0  0  0  0  0  0
  -18.0264   13.8679  -16.3877 O   0  0  0  0  0  0  0  0  0  0  0  0
  -20.1586   14.1263  -17.2646 C   0  0  0  0  0  0  0  0  0  0  0  0
  -20.2679   14.8921  -16.0381 N   0  0  0  0  0  0  0  0  0  0  0  0
  -20.7355   16.1683  -15.8166 C   0  0  0  0  0  0  0  0  0  0  0  0
  -21.6912   16.3303  -14.9726 O   0  0  0  0  0  0  0  0  0  0  0  0
  -20.2686   17.4290  -16.4438 C   0  0  0  0  0  0  0  0  0  0  0  0
  -21.4267   18.2792  -16.7777 N   0  0  0  0  0  0  0  0  0  0  0  0
  -21.6501   18.8776  -18.0124 C   0  0  0  0  0  0  0  0  0  0  0  0
  -22.8149   19.2329  -18.3473 O   0  0  0  0  0  0  0  0  0  0  0  0
  -21.4775   19.2390  -20.9538 H   0  0  0  0  0  0  0  0  0  0  0  0
  -19.9863   15.2719  -22.2225 H   0  0  0  0  0  0  0  0  0  0  0  0
  -19.9203   14.3654  -15.1741 H   0  0  0  0  0  0  0  0  0  0  0  0
  -22.1004   18.4101  -15.9914 H   0  0  0  0  0  0  0  0  0  0  0  0
  -20.5038   20.6663  -19.1372 C   0  0  0  0  0  0  0  0  0  0  0  0
  -19.2828   21.2035  -18.4300 C   0  0  0  0  0  0  0  0  0  0  0  0
  -19.0821   21.2035  -21.0294 C   0  0  0  0  0  0  0  0  0  0  0  0
  -20.5237   21.1821  -20.5372 C   0  0  0  0  0  0  0  0  0  0  0  0
  -18.4706   17.3294  -21.5307 C   0  0  0  0  0  0  0  0  0  0  0  0
  -17.6792   16.5841  -22.4848 C   0  0  0  0  0  0  0  0  0  0  0  0
  -18.0671   16.4643  -23.8013 C   0  0  0  0  0  0  0  0  0  0  0  0
  -17.2996   15.7330  -24.6943 C   0  0  0  0  0  0  0  0  0  0  0  0
  -16.1376   15.1051  -24.3153 C   0  0  0  0  0  0  0  0  0  0  0  0
  -15.7440   15.2230  -22.9929 C   0  0  0  0  0  0  0  0  0  0  0  0
  -16.5047   15.9528  -22.0906 C   0  0  0  0  0  0  0  0  0  0  0  0
  -21.0642   12.9141  -17.0343 C   0  0  0  0  0  0  0  0  0  0  0  0
  -20.5353   11.9387  -16.0408 C   0  0  0  0  0  0  0  0  0  0  0  0
  -20.1028   10.7004  -16.8394 C   0  0  0  0  0  0  0  0  0  0  0  0
  -20.0456    9.5464  -15.9951 N   0  0  0  0  0  0  0  0  0  0  0  0
  -19.1377    8.6394  -16.0993 C   0  0  0  0  0  0  0  0  0  0  0  0
  -19.1136    7.5181  -15.2512 N   0  0  0  0  0  0  0  0  0  0  0  0
  -18.1425    8.7852  -17.0967 N   0  0  0  0  0  0  0  0  0  0  0  0
  -18.3380    7.2997  -14.5862 H   0  0  0  0  0  0  0  0  0  0  0  0
  -19.9143    6.8506  -15.2746 H   0  0  0  0  0  0  0  0  0  0  0  0
  -17.2276    9.2612  -16.9195 H   0  0  0  0  0  0  0  0  0  0  0  0
  -18.3345    8.3994  -18.0541 H   0  0  0  0  0  0  0  0  0  0  0  0
  -19.3638   18.1577  -15.4813 C   0  0  0  0  0  0  0  0  0  0  0  0
  -20.0628   19.0844  -14.5690 C   0  0  0  0  0  0  0  0  0  0  0  0
  -20.3749   20.3519  -14.9794 C   0  0  0  0  0  0  0  0  0  0  0  0
  -21.0386   21.1965  -14.1245 C   0  0  0  0  0  0  0  0  0  0  0  0
  -21.3959   20.7893  -12.8613 C   0  0  0  0  0  0  0  0  0  0  0  0
  -21.0924   19.5097  -12.4186 C   0  0  0  0  0  0  0  0  0  0  0  0
  -20.4261   18.6903  -13.3030 C   0  0  0  0  0  0  0  0  0  0  0  0
 30 31  1  0  0  0
 31 28  1  0  0  0
 28 29  1  0  0  0
 28  1  1  0  0  0
  1  2  1  0  0  0
  2  3  1  0  0  0
  3  4  2  0  0  0
  3  5  1  0  0  0
  5 32  1  0  0  0
 32 33  1  0  0  0
 33 34  2  0  0  0
 34 35  1  0  0  0
 35 36  2  0  0  0
 36 37  1  0  0  0
 37 38  2  0  0  0
  5  6  1  0  0  0
  6  7  1  0  0  0
  7  8  2  0  0  0
  7  9  1  0  0  0
  9 10  1  0  0  0
 10 11  1  0  0  0
 11 12  1  0  0  0
 12 13  1  0  0  0
 13 14  1  0  0  0
 14 15  2  0  0  0
 14 16  1  0  0  0
 16 39  1  0  0  0
 39 40  1  0  0  0
 40 41  1  0  0  0
 41 42  1  0  0  0
 42 43  2  0  0  0
 43 44  1  0  0  0
 43 45  1  0  0  0
 16 17  1  0  0  0
 17 18  1  0  0  0
 18 19  2  0  0  0
 18 20  1  0  0  0
 20 50  1  0  0  0
 50 51  1  0  0  0
 51 52  2  0  0  0
 52 53  1  0  0  0
 53 54  2  0  0  0
 54 55  1  0  0  0
 55 56  2  0  0  0
 20 21  1  0  0  0
 21 22  1  0  0  0
 22 23  2  0  0  0
 22  1  1  0  0  0
 38 33  1  0  0  0
 13  9  1  0  0  0
 56 51  1  0  0  0
  2 24  1  0  0  0
  6 25  1  0  0  0
 44 46  1  0  0  0
 44 47  1  0  0  0
 45 48  1  0  0  0
 45 49  1  0  0  0
 17 26  1  0  0  0
 21 27  1  0  0  0
M  END
> <minimizedAffinity>
-8.42113

> <CNNscore>
0.1656563282

> <CNNaffinity>
6.6649651527

> <CNN_VS>
1.1040936708

> <CNNaffinity_variance>
0.7233825326

$$$$
[H]c1c([H])c([H])c(C([H])([H])[C@@]2([H])C(=O)N([H])[C@@]([H])([C@@]([H])(C([H])([H])[H])C([H])([H])C([H])([H])[H])C(=O)N([H])[C@@]([H])(C([H])([H])c3c([H])c([H])c([H])c([H])c3[H])C(=O)N([H])[C@]([H])(C([H])([H])C([H])([H])C([H])([H])N=C(N([H])[H])N([H])[H])C(=O)N3C([H])([H])C([H])([H])C([H])([H])[C@@]3([H])C(=O)N2[H])c([H])c1[H]


 56 59  0  0  0  0  0  0  0  0999 V2000
  -20.7941   13.4285  -15.5095 C   0  0  0  0  0  0  0  0  0  0  0  0
  -21.9864   14.2029  -15.2220 N   0  0  0  0  0  0  0  0  0  0  0  0
  -22.3106   15.4685  -15.7537 C   0  0  0  0  0  0  0  0  0  0  0  0
  -23.4728   15.5901  -16.2252 O   0  0  0  0  0  0  0  0  0  0  0  0
  -21.4275   16.6649  -15.8142 C   0  0  0  0  0  0  0  0  0  0  0  0
  -22.2085   17.7193  -16.4278 N   0  0  0  0  0  0  0  0  0  0  0  0
  -21.9630   18.4294  -17.6039 C   0  0  0  0  0  0  0  0  0  0  0  0
  -22.8722   18.3809  -18.4745 O   0  0  0  0  0  0  0  0  0  0  0  0
  -20.7645   19.2014  -17.8732 C   0  0  0  0  0  0  0  0  0  0  0  0
  -21.3632   20.5477  -18.4148 C   0  0  0  0  0  0  0  0  0  0  0  0
  -20.2217   21.2033  -19.0749 C   0  0  0  0  0  0  0  0  0  0  0  0
  -19.2031   20.1505  -19.2205 C   0  0  0  0  0  0  0  0  0  0  0  0
  -19.8551   18.8489  -18.8897 N   0  0  0  0  0  0  0  0  0  0  0  0
  -19.4958   17.6497  -19.5077 C   0  0  0  0  0  0  0  0  0  0  0  0
  -18.2405   17.4633  -19.8368 O   0  0  0  0  0  0  0  0  0  0  0  0
  -20.3463   16.4904  -19.8729 C   0  0  0  0  0  0  0  0  0  0  0  0
  -19.5082   15.3508  -20.1917 N   0  0  0  0  0  0  0  0  0  0  0  0
  -19.4709   14.0857  -19.6490 C   0  0  0  0  0  0  0  0  0  0  0  0
  -19.6289   13.0800  -20.4336 O   0  0  0  0  0  0  0  0  0  0  0  0
  -19.2656   13.7119  -18.2281 C   0  0  0  0  0  0  0  0  0  0  0  0
  -20.1807   12.6140  -17.8636 N   0  0  0  0  0  0  0  0  0  0  0  0
  -21.0067   12.5991  -16.7456 C   0  0  0  0  0  0  0  0  0  0  0  0
  -22.0245   11.8520  -16.7149 O   0  0  0  0  0  0  0  0  0  0  0  0
  -22.6527   13.7110  -14.5395 H   0  0  0  0  0  0  0  0  0  0  0  0
  -23.1046   17.9160  -15.8378 H   0  0  0  0  0  0  0  0  0  0  0  0
  -18.8072   15.5432  -20.9768 H   0  0  0  0  0  0  0  0  0  0  0  0
  -20.1687   11.8101  -18.5291 H   0  0  0  0  0  0  0  0  0  0  0  0
  -20.4986   12.4357  -14.4017 C   0  0  0  0  0  0  0  0  0  0  0  0
  -21.7395   12.1049  -13.6079 C   0  0  0  0  0  0  0  0  0  0  0  0
  -20.2493   10.0779  -13.8827 C   0  0  0  0  0  0  0  0  0  0  0  0
  -19.8705   11.1683  -14.8770 C   0  0  0  0  0  0  0  0  0  0  0  0
  -21.1249   16.9747  -14.3531 C   0  0  0  0  0  0  0  0  0  0  0  0
  -21.2286   18.3627  -13.9594 C   0  0  0  0  0  0  0  0  0  0  0  0
  -22.2990   18.8223  -13.2238 C   0  0  0  0  0  0  0  0  0  0  0  0
  -22.3836   20.1599  -12.8702 C   0  0  0  0  0  0  0  0  0  0  0  0
  -21.4218   21.0729  -13.2301 C   0  0  0  0  0  0  0  0  0  0  0  0
  -20.3442   20.6151  -13.9694 C   0  0  0  0  0  0  0  0  0  0  0  0
  -20.2493   19.2782  -14.3286 C   0  0  0  0  0  0  0  0  0  0  0  0
  -21.1217   16.7614  -21.1644 C   0  0  0  0  0  0  0  0  0  0  0  0
  -20.4384   17.6973  -22.1000 C   0  0  0  0  0  0  0  0  0  0  0  0
  -19.5963   16.8264  -23.0437 C   0  0  0  0  0  0  0  0  0  0  0  0
  -18.5344   17.5890  -23.6258 N   0  0  0  0  0  0  0  0  0  0  0  0
  -17.5753   17.0613  -24.3037 C   0  0  0  0  0  0  0  0  0  0  0  0
  -16.5481   17.8431  -24.8610 N   0  0  0  0  0  0  0  0  0  0  0  0
  -17.5651   15.6567  -24.4869 N   0  0  0  0  0  0  0  0  0  0  0  0
  -16.3594   17.9235  -25.8854 H   0  0  0  0  0  0  0  0  0  0  0  0
  -15.9244   18.3846  -24.2245 H   0  0  0  0  0  0  0  0  0  0  0  0
  -18.0084   15.1892  -25.3115 H   0  0  0  0  0  0  0  0  0  0  0  0
  -17.0928   15.0618  -23.7621 H   0  0  0  0  0  0  0  0  0  0  0  0
  -17.8368   13.2689  -18.0320 C   0  0  0  0  0  0  0  0  0  0  0  0
  -17.4760   12.0335  -18.7553 C   0  0  0  0  0  0  0  0  0  0  0  0
  -17.8324   10.8114  -18.2534 C   0  0  0  0  0  0  0  0  0  0  0  0
  -17.5027    9.6726  -18.9457 C   0  0  0  0  0  0  0  0  0  0  0  0
  -16.8199    9.7397  -20.1367 C   0  0  0  0  0  0  0  0  0  0  0  0
  -16.4459   10.9652  -20.6692 C   0  0  0  0  0  0  0  0  0  0  0  0
  -16.7933   12.0859  -19.9474 C   0  0  0  0  0  0  0  0  0  0  0  0
 30 31  1  0  0  0
 31 28  1  0  0  0
 28 29  1  0  0  0
 28  1  1  0  0  0
  1  2  1  0  0  0
  2  3  1  0  0  0
  3  4  2  0  0  0
  3  5  1  0  0  0
  5 32  1  0  0  0
 32 33  1  0  0  0
 33 34  2  0  0  0
 34 35  1  0  0  0
 35 36  2  0  0  0
 36 37  1  0  0  0
 37 38  2  0  0  0
  5  6  1  0  0  0
  6  7  1  0  0  0
  7  8  2  0  0  0
  7  9  1  0  0  0
  9 10  1  0  0  0
 10 11  1  0  0  0
 11 12  1  0  0  0
 12 13  1  0  0  0
 13 14  1  0  0  0
 14 15  2  0  0  0
 14 16  1  0  0  0
 16 39  1  0  0  0
 39 40  1  0  0  0
 40 41  1  0  0  0
 41 42  1  0  0  0
 42 43  2  0  0  0
 43 44  1  0  0  0
 43 45  1  0  0  0
 16 17  1  0  0  0
 17 18  1  0  0  0
 18 19  2  0  0  0
 18 20  1  0  0  0
 20 50  1  0  0  0
 50 51  1  0  0  0
 51 52  2  0  0  0
 52 53  1  0  0  0
 53 54  2  0  0  0
 54 55  1  0  0  0
 55 56  2  0  0  0
 20 21  1  0  0  0
 21 22  1  0  0  0
 22 23  2  0  0  0
 22  1  1  0  0  0
 38 33  1  0  0  0
 13  9  1  0  0  0
 56 51  1  0  0  0
  2 24  1  0  0  0
  6 25  1  0  0  0
 44 46  1  0  0  0
 44 47  1  0  0  0
 45 48  1  0  0  0
 45 49  1  0  0  0
 17 26  1  0  0  0
 21 27  1  0  0  0
M  END
> <minimizedAffinity>
-5.71131

> <CNNscore>
0.1554540992

> <CNNaffinity>
6.7308282852

> <CNN_VS>
1.0463348627

> <CNNaffinity_variance>
0.2332783937

$$$$
[H]c1c([H])c(F)c(-c2nnc3c(c2[H])[C@]2([H])C([H])([H])C([H])([H])[C@@]3(C([H])([H])N(C([H])([H])C([H])([H])[H])S(=O)(=O)c3c([H])c([H])c(F)c([H])c3[H])C2(C([H])([H])[H])C([H])([H])[H])c(F)c1[H]


 35 39  0  0  0  0  0  0  0  0999 V2000
  -19.7519   17.6124  -21.1973 C   0  0  0  0  0  0  0  0  0  0  0  0
  -19.4217   18.3280  -19.9360 C   0  0  0  0  0  0  0  0  0  0  0  0
  -17.8877   18.2112  -19.8528 C   0  0  0  0  0  0  0  0  0  0  0  0
  -17.5089   17.4216  -21.0852 C   0  0  0  0  0  0  0  0  0  0  0  0
  -18.0057   16.0600  -20.8809 C   0  0  0  0  0  0  0  0  0  0  0  0
  -17.3762   14.8631  -20.6648 C   0  0  0  0  0  0  0  0  0  0  0  0
  -18.1840   13.7375  -20.4954 C   0  0  0  0  0  0  0  0  0  0  0  0
  -19.5099   13.8829  -20.5521 N   0  0  0  0  0  0  0  0  0  0  0  0
  -20.1155   15.0500  -20.7629 N   0  0  0  0  0  0  0  0  0  0  0  0
  -19.3780   16.1512  -20.9301 C   0  0  0  0  0  0  0  0  0  0  0  0
  -18.5794   17.9568  -22.0663 C   0  0  0  0  0  0  0  0  0  0  0  0
  -18.3349   19.4102  -22.2952 C   0  0  0  0  0  0  0  0  0  0  0  0
  -18.5052   17.1992  -23.3541 C   0  0  0  0  0  0  0  0  0  0  0  0
  -17.5143   12.4747  -20.2672 C   0  0  0  0  0  0  0  0  0  0  0  0
  -17.3453   12.0246  -18.9847 C   0  0  0  0  0  0  0  0  0  0  0  0
  -17.8042   12.7626  -17.9513 F   0  0  0  0  0  0  0  0  0  0  0  0
  -16.7050   10.8137  -18.7341 C   0  0  0  0  0  0  0  0  0  0  0  0
  -16.2449   10.0782  -19.8113 C   0  0  0  0  0  0  0  0  0  0  0  0
  -16.4050   10.5134  -21.1082 C   0  0  0  0  0  0  0  0  0  0  0  0
  -17.0456   11.7195  -21.3083 C   0  0  0  0  0  0  0  0  0  0  0  0
  -17.2110   12.1620  -22.5854 F   0  0  0  0  0  0  0  0  0  0  0  0
  -21.0960   17.7064  -21.7466 C   0  0  0  0  0  0  0  0  0  0  0  0
  -22.0166   18.6658  -21.3511 N   0  0  0  0  0  0  0  0  0  0  0  0
  -23.5603   18.6393  -22.0156 S   0  0  0  0  0  0  0  0  0  0  0  0
  -24.2404   17.3483  -21.5887 O   0  0  0  0  0  0  0  0  0  0  0  0
  -24.4651   19.7515  -21.5680 O   0  0  0  0  0  0  0  0  0  0  0  0
  -23.5840   18.5859  -23.7653 C   0  0  0  0  0  0  0  0  0  0  0  0
  -23.4802   17.4222  -24.4999 C   0  0  0  0  0  0  0  0  0  0  0  0
  -23.5059   17.4284  -25.8864 C   0  0  0  0  0  0  0  0  0  0  0  0
  -23.6370   18.6083  -26.5770 C   0  0  0  0  0  0  0  0  0  0  0  0
  -23.6598   18.5875  -27.9503 F   0  0  0  0  0  0  0  0  0  0  0  0
  -23.7417   19.7763  -25.8715 C   0  0  0  0  0  0  0  0  0  0  0  0
  -23.7134   19.7419  -24.4980 C   0  0  0  0  0  0  0  0  0  0  0  0
  -21.4123   21.0164  -21.7746 C   0  0  0  0  0  0  0  0  0  0  0  0
  -21.5759   19.8876  -20.7860 C   0  0  0  0  0  0  0  0  0  0  0  0
 34 35  1  0  0  0
 35 23  1  0  0  0
 23 22  1  0  0  0
  1 22  1  0  0  0
  1  2  1  0  0  0
  2  3  1  0  0  0
  3  4  1  0  0  0
  4  5  1  0  0  0
  5  6  2  0  0  0
  6  7  1  0  0  0
  7  8  2  0  0  0
  8  9  1  0  0  0
  9 10  2  0  0  0
  7 14  1  0  0  0
 14 15  2  0  0  0
 15 16  1  0  0  0
 15 17  1  0  0  0
 17 18  2  0  0  0
 18 19  1  0  0  0
 19 20  2  0  0  0
 20 21  1  0  0  0
  4 11  1  0  0  0
 11 12  1  0  0  0
 11 13  1  0  0  0
 23 24  1  0  0  0
 24 25  2  0  0  0
 24 26  2  0  0  0
 24 27  1  0  0  0
 27 28  2  0  0  0
 28 29  1  0  0  0
 29 30  2  0  0  0
 30 31  1  0  0  0
 30 32  1  0  0  0
 32 33  2  0  0  0
 10  1  1  0  0  0
 20 14  1  0  0  0
 33 27  1  0  0  0
 11  1  1  0  0  0
 10  5  1  0  0  0
M  END
> <minimizedAffinity>
-9.82208

> <CNNscore>
0.4455156624

> <CNNaffinity>
7.0458526611

> <CNN_VS>
3.1390376091

> <CNNaffinity_variance>
0.2698177099

$$$$
[H]c1c([H])c(F)c(-c2nnc3c(c2[H])[C@]2([H])C([H])([H])C([H])([H])[C@@]3(C([H])([H])N(C([H])([H])C([H])([H])[H])S(=O)(=O)c3c([H])c([H])c(F)c([H])c3[H])C2(C([H])([H])[H])C([H])([H])[H])c(F)c1[H]


 35 39  0  0  0  0  0  0  0  0999 V2000
  -20.2161   15.7120  -19.7599 C   0  0  0  0  0  0  0  0  0  0  0  0
  -21.0427   14.4820  -19.8848 C   0  0  0  0  0  0  0  0  0  0  0  0
  -19.9936   13.3588  -19.9927 C   0  0  0  0  0  0  0  0  0  0  0  0
  -18.6679   14.0828  -19.9287 C   0  0  0  0  0  0  0  0  0  0  0  0
  -18.5427   14.8412  -21.1744 C   0  0  0  0  0  0  0  0  0  0  0  0
  -17.7259   14.7089  -22.2656 C   0  0  0  0  0  0  0  0  0  0  0  0
  -17.8940   15.6253  -23.3048 C   0  0  0  0  0  0  0  0  0  0  0  0
  -18.8290   16.5707  -23.1837 N   0  0  0  0  0  0  0  0  0  0  0  0
  -19.6198   16.6938  -22.1194 N   0  0  0  0  0  0  0  0  0  0  0  0
  -19.4905   15.8365  -21.1030 C   0  0  0  0  0  0  0  0  0  0  0  0
  -19.0501   15.2226  -18.9541 C   0  0  0  0  0  0  0  0  0  0  0  0
  -19.3724   14.6279  -17.6249 C   0  0  0  0  0  0  0  0  0  0  0  0
  -17.9135   16.1885  -18.8392 C   0  0  0  0  0  0  0  0  0  0  0  0
  -17.0286   15.4815  -24.4561 C   0  0  0  0  0  0  0  0  0  0  0  0
  -15.8709   16.2103  -24.5232 C   0  0  0  0  0  0  0  0  0  0  0  0
  -15.5518   17.0523  -23.5170 F   0  0  0  0  0  0  0  0  0  0  0  0
  -15.0187   16.0929  -25.6181 C   0  0  0  0  0  0  0  0  0  0  0  0
  -15.3701   15.2231  -26.6345 C   0  0  0  0  0  0  0  0  0  0  0  0
  -16.5297   14.4815  -26.5858 C   0  0  0  0  0  0  0  0  0  0  0  0
  -17.3436   14.6306  -25.4811 C   0  0  0  0  0  0  0  0  0  0  0  0
  -18.4933   13.9034  -25.4196 F   0  0  0  0  0  0  0  0  0  0  0  0
  -20.8505   16.9712  -19.4002 C   0  0  0  0  0  0  0  0  0  0  0  0
  -22.1672   17.0679  -18.9744 N   0  0  0  0  0  0  0  0  0  0  0  0
  -23.1974   18.1495  -19.7453 S   0  0  0  0  0  0  0  0  0  0  0  0
  -24.6299   17.7529  -19.4259 O   0  0  0  0  0  0  0  0  0  0  0  0
  -23.0576   19.5808  -19.3118 O   0  0  0  0  0  0  0  0  0  0  0  0
  -23.1105   18.0967  -21.4930 C   0  0  0  0  0  0  0  0  0  0  0  0
  -22.2856   18.9074  -22.2461 C   0  0  0  0  0  0  0  0  0  0  0  0
  -22.2489   18.8285  -23.6302 C   0  0  0  0  0  0  0  0  0  0  0  0
  -23.0428   17.9297  -24.2995 C   0  0  0  0  0  0  0  0  0  0  0  0
  -22.9879   17.8713  -25.6708 F   0  0  0  0  0  0  0  0  0  0  0  0
  -23.8698   17.1144  -23.5755 C   0  0  0  0  0  0  0  0  0  0  0  0
  -23.8867   17.2132  -22.2049 C   0  0  0  0  0  0  0  0  0  0  0  0
  -21.7818   17.3359  -16.5558 C   0  0  0  0  0  0  0  0  0  0  0  0
  -22.5287   16.6461  -17.6715 C   0  0  0  0  0  0  0  0  0  0  0  0
 34 35  1  0  0  0
 35 23  1  0  0  0
 23 22  1  0  0  0
  1 22  1  0  0  0
  1  2  1  0  0  0
  2  3  1  0  0  0
  3  4  1  0  0  0
  4  5  1  0  0  0
  5  6  2  0  0  0
  6  7  1  0  0  0
  7  8  2  0  0  0
  8  9  1  0  0  0
  9 10  2  0  0  0
  7 14  1  0  0  0
 14 15  2  0  0  0
 15 16  1  0  0  0
 15 17  1  0  0  0
 17 18  2  0  0  0
 18 19  1  0  0  0
 19 20  2  0  0  0
 20 21  1  0  0  0
  4 11  1  0  0  0
 11 12  1  0  0  0
 11 13  1  0  0  0
 23 24  1  0  0  0
 24 25  2  0  0  0
 24 26  2  0  0  0
 24 27  1  0  0  0
 27 28  2  0  0  0
 28 29  1  0  0  0
 29 30  2  0  0  0
 30 31  1  0  0  0
 30 32  1  0  0  0
 32 33  2  0  0  0
 10  1  1  0  0  0
 20 14  1  0  0  0
 33 27  1  0  0  0
 11  1  1  0  0  0
 10  5  1  0  0  0
M  END
> <minimizedAffinity>
-8.98781

> <CNNscore>
0.4032104909

> <CNNaffinity>
7.1505956650

> <CNN_VS>
2.8831951618

> <CNNaffinity_variance>
0.2397620678

$$$$
[H]c1c([H])c(F)c(-c2nnc3c(c2[H])[C@]2([H])C([H])([H])C([H])([H])[C@@]3(C([H])([H])N(C([H])([H])C([H])([H])[H])S(=O)(=O)c3c([H])c([H])c(F)c([H])c3[H])C2(C([H])([H])[H])C([H])([H])[H])c(F)c1[H]


 35 39  0  0  0  0  0  0  0  0999 V2000
  -20.2118   15.7384  -19.7462 C   0  0  0  0  0  0  0  0  0  0  0  0
  -21.0332   14.5047  -19.8683 C   0  0  0  0  0  0  0  0  0  0  0  0
  -19.9793   13.3853  -19.9698 C   0  0  0  0  0  0  0  0  0  0  0  0
  -18.6567   14.1149  -19.9055 C   0  0  0  0  0  0  0  0  0  0  0  0
  -18.5318   14.8691  -21.1538 C   0  0  0  0  0  0  0  0  0  0  0  0
  -17.7121   14.7360  -22.2427 C   0  0  0  0  0  0  0  0  0  0  0  0
  -17.8816   15.6479  -23.2857 C   0  0  0  0  0  0  0  0  0  0  0  0
  -18.8206   16.5899  -23.1701 N   0  0  0  0  0  0  0  0  0  0  0  0
  -19.6142   16.7139  -22.1080 N   0  0  0  0  0  0  0  0  0  0  0  0
  -19.4837   15.8609  -21.0882 C   0  0  0  0  0  0  0  0  0  0  0  0
  -19.0455   15.2567  -18.9361 C   0  0  0  0  0  0  0  0  0  0  0  0
  -19.3684   14.6656  -17.6054 C   0  0  0  0  0  0  0  0  0  0  0  0
  -17.9131   16.2275  -18.8223 C   0  0  0  0  0  0  0  0  0  0  0  0
  -17.0130   15.5033  -24.4346 C   0  0  0  0  0  0  0  0  0  0  0  0
  -17.3743   14.6571  -25.4492 C   0  0  0  0  0  0  0  0  0  0  0  0
  -18.5335   13.9697  -25.3656 F   0  0  0  0  0  0  0  0  0  0  0  0
  -16.5592   14.4975  -26.5668 C   0  0  0  0  0  0  0  0  0  0  0  0
  -15.3775   15.2139  -26.6263 C   0  0  0  0  0  0  0  0  0  0  0  0
  -14.9965   16.0697  -25.6166 C   0  0  0  0  0  0  0  0  0  0  0  0
  -15.8360   16.1959  -24.5283 C   0  0  0  0  0  0  0  0  0  0  0  0
  -15.4719   17.0386  -23.5226 F   0  0  0  0  0  0  0  0  0  0  0  0
  -20.8519   16.9964  -19.3926 C   0  0  0  0  0  0  0  0  0  0  0  0
  -22.1758   17.0919  -18.9893 N   0  0  0  0  0  0  0  0  0  0  0  0
  -23.1925   18.1760  -19.7744 S   0  0  0  0  0  0  0  0  0  0  0  0
  -24.6298   17.8020  -19.4493 O   0  0  0  0  0  0  0  0  0  0  0  0
  -23.0344   19.6111  -19.3602 O   0  0  0  0  0  0  0  0  0  0  0  0
  -23.1070   18.0986  -21.5213 C   0  0  0  0  0  0  0  0  0  0  0  0
  -22.2770   18.8932  -22.2858 C   0  0  0  0  0  0  0  0  0  0  0  0
  -22.2417   18.7951  -23.6687 C   0  0  0  0  0  0  0  0  0  0  0  0
  -23.0421   17.8927  -24.3253 C   0  0  0  0  0  0  0  0  0  0  0  0
  -22.9884   17.8150  -25.6956 F   0  0  0  0  0  0  0  0  0  0  0  0
  -23.8742   17.0931  -23.5897 C   0  0  0  0  0  0  0  0  0  0  0  0
  -23.8897   17.2107  -22.2206 C   0  0  0  0  0  0  0  0  0  0  0  0
  -21.8443   17.3640  -16.5632 C   0  0  0  0  0  0  0  0  0  0  0  0
  -22.5598   16.6660  -17.6941 C   0  0  0  0  0  0  0  0  0  0  0  0
 34 35  1  0  0  0
 35 23  1  0  0  0
 23 22  1  0  0  0
  1 22  1  0  0  0
  1  2  1  0  0  0
  2  3  1  0  0  0
  3  4  1  0  0  0
  4  5  1  0  0  0
  5  6  2  0  0  0
  6  7  1  0  0  0
  7  8  2  0  0  0
  8  9  1  0  0  0
  9 10  2  0  0  0
  7 14  1  0  0  0
 14 15  2  0  0  0
 15 16  1  0  0  0
 15 17  1  0  0  0
 17 18  2  0  0  0
 18 19  1  0  0  0
 19 20  2  0  0  0
 20 21  1  0  0  0
  4 11  1  0  0  0
 11 12  1  0  0  0
 11 13  1  0  0  0
 23 24  1  0  0  0
 24 25  2  0  0  0
 24 26  2  0  0  0
 24 27  1  0  0  0
 27 28  2  0  0  0
 28 29  1  0  0  0
 29 30  2  0  0  0
 30 31  1  0  0  0
 30 32  1  0  0  0
 32 33  2  0  0  0
 10  1  1  0  0  0
 20 14  1  0  0  0
 33 27  1  0  0  0
 11  1  1  0  0  0
 10  5  1  0  0  0
M  END
> <minimizedAffinity>
-8.99895

> <CNNscore>
0.3994285166

> <CNNaffinity>
7.1465210915

> <CNN_VS>
2.8545243740

> <CNNaffinity_variance>
0.2408462316

$$$$
[H]c1c([H])c(F)c(-c2nnc3c(c2[H])[C@]2([H])C([H])([H])C([H])([H])[C@@]3(C([H])([H])N(C([H])([H])C([H])([H])[H])S(=O)(=O)c3c([H])c([H])c(F)c([H])c3[H])C2(C([H])([H])[H])C([H])([H])[H])c(F)c1[H]


 35 39  0  0  0  0  0  0  0  0999 V2000
  -20.1879   17.4703  -19.9396 C   0  0  0  0  0  0  0  0  0  0  0  0
  -21.0787   17.9065  -18.8314 C   0  0  0  0  0  0  0  0  0  0  0  0
  -20.2209   17.6720  -17.5732 C   0  0  0  0  0  0  0  0  0  0  0  0
  -18.9237   17.1097  -18.1089 C   0  0  0  0  0  0  0  0  0  0  0  0
  -19.2249   15.7711  -18.6188 C   0  0  0  0  0  0  0  0  0  0  0  0
  -18.8858   14.5150  -18.1913 C   0  0  0  0  0  0  0  0  0  0  0  0
  -19.3709   13.4353  -18.9309 C   0  0  0  0  0  0  0  0  0  0  0  0
  -20.1296   13.6787  -20.0022 N   0  0  0  0  0  0  0  0  0  0  0  0
  -20.4553   14.9029  -20.4126 N   0  0  0  0  0  0  0  0  0  0  0  0
  -20.0108   15.9631  -19.7321 C   0  0  0  0  0  0  0  0  0  0  0  0
  -18.8393   17.8946  -19.4398 C   0  0  0  0  0  0  0  0  0  0  0  0
  -18.6787   19.3449  -19.1308 C   0  0  0  0  0  0  0  0  0  0  0  0
  -17.6825   17.3950  -20.2460 C   0  0  0  0  0  0  0  0  0  0  0  0
  -19.0100   12.1097  -18.4752 C   0  0  0  0  0  0  0  0  0  0  0  0
  -19.7822   11.4898  -17.5290 C   0  0  0  0  0  0  0  0  0  0  0  0
  -20.8681   12.1214  -17.0338 F   0  0  0  0  0  0  0  0  0  0  0  0
  -19.4601   10.2148  -17.0714 C   0  0  0  0  0  0  0  0  0  0  0  0
  -18.3424    9.5911  -17.5957 C   0  0  0  0  0  0  0  0  0  0  0  0
  -17.5531   10.1975  -18.5477 C   0  0  0  0  0  0  0  0  0  0  0  0
  -17.9111   11.4615  -18.9712 C   0  0  0  0  0  0  0  0  0  0  0  0
  -17.1398   12.0729  -19.9122 F   0  0  0  0  0  0  0  0  0  0  0  0
  -20.5590   17.7591  -21.3166 C   0  0  0  0  0  0  0  0  0  0  0  0
  -21.3425   18.8431  -21.6843 N   0  0  0  0  0  0  0  0  0  0  0  0
  -22.9227   18.5744  -22.1904 S   0  0  0  0  0  0  0  0  0  0  0  0
  -23.3159   17.1604  -21.7934 O   0  0  0  0  0  0  0  0  0  0  0  0
  -23.9512   19.4786  -21.5734 O   0  0  0  0  0  0  0  0  0  0  0  0
  -23.1327   18.6130  -23.9280 C   0  0  0  0  0  0  0  0  0  0  0  0
  -23.0930   19.7688  -24.6811 C   0  0  0  0  0  0  0  0  0  0  0  0
  -23.2628   19.7505  -26.0574 C   0  0  0  0  0  0  0  0  0  0  0  0
  -23.4782   18.5662  -26.7185 C   0  0  0  0  0  0  0  0  0  0  0  0
  -23.6434   18.5749  -28.0821 F   0  0  0  0  0  0  0  0  0  0  0  0
  -23.5220   17.4059  -25.9942 C   0  0  0  0  0  0  0  0  0  0  0  0
  -23.3507   17.4522  -24.6315 C   0  0  0  0  0  0  0  0  0  0  0  0
  -19.4432   19.9066  -22.8383 C   0  0  0  0  0  0  0  0  0  0  0  0
  -20.7361   20.0621  -22.0751 C   0  0  0  0  0  0  0  0  0  0  0  0
 34 35  1  0  0  0
 35 23  1  0  0  0
 23 22  1  0  0  0
  1 22  1  0  0  0
  1  2  1  0  0  0
  2  3  1  0  0  0
  3  4  1  0  0  0
  4  5  1  0  0  0
  5  6  2  0  0  0
  6  7  1  0  0  0
  7  8  2  0  0  0
  8  9  1  0  0  0
  9 10  2  0  0  0
  7 14  1  0  0  0
 14 15  2  0  0  0
 15 16  1  0  0  0
 15 17  1  0  0  0
 17 18  2  0  0  0
 18 19  1  0  0  0
 19 20  2  0  0  0
 20 21  1  0  0  0
  4 11  1  0  0  0
 11 12  1  0  0  0
 11 13  1  0  0  0
 23 24  1  0  0  0
 24 25  2  0  0  0
 24 26  2  0  0  0
 24 27  1  0  0  0
 27 28  2  0  0  0
 28 29  1  0  0  0
 29 30  2  0  0  0
 30 31  1  0  0  0
 30 32  1  0  0  0
 32 33  2  0  0  0
 10  1  1  0  0  0
 20 14  1  0  0  0
 33 27  1  0  0  0
 11  1  1  0  0  0
 10  5  1  0  0  0
M  END
> <minimizedAffinity>
-9.08329

> <CNNscore>
0.3542169333

> <CNNaffinity>
6.8123574257

> <CNN_VS>
2.4130523205

> <CNNaffinity_variance>
0.1890417784

$$$$
[H]c1c([H])c(F)c(-c2nnc3c(c2[H])[C@]2([H])C([H])([H])C([H])([H])[C@@]3(C([H])([H])N(C([H])([H])C([H])([H])[H])S(=O)(=O)c3c([H])c([H])c(F)c([H])c3[H])C2(C([H])([H])[H])C([H])([H])[H])c(F)c1[H]


 35 39  0  0  0  0  0  0  0  0999 V2000
  -19.1459   15.5793  -19.8802 C   0  0  0  0  0  0  0  0  0  0  0  0
  -20.5174   15.7776  -20.4200 C   0  0  0  0  0  0  0  0  0  0  0  0
  -21.4033   15.7428  -19.1599 C   0  0  0  0  0  0  0  0  0  0  0  0
  -20.4279   15.5137  -18.0277 C   0  0  0  0  0  0  0  0  0  0  0  0
  -19.9246   14.1473  -18.1767 C   0  0  0  0  0  0  0  0  0  0  0  0
  -20.1043   13.0049  -17.4430 C   0  0  0  0  0  0  0  0  0  0  0  0
  -19.4677   11.8481  -17.8952 C   0  0  0  0  0  0  0  0  0  0  0  0
  -18.7266   11.9133  -19.0038 N   0  0  0  0  0  0  0  0  0  0  0  0
  -18.5558   13.0278  -19.7123 N   0  0  0  0  0  0  0  0  0  0  0  0
  -19.1482   14.1566  -19.3129 C   0  0  0  0  0  0  0  0  0  0  0  0
  -19.2178   16.3096  -18.5726 C   0  0  0  0  0  0  0  0  0  0  0  0
  -19.5873   17.7528  -18.6446 C   0  0  0  0  0  0  0  0  0  0  0  0
  -18.0387   16.1105  -17.6736 C   0  0  0  0  0  0  0  0  0  0  0  0
  -19.6606   10.6431  -17.1167 C   0  0  0  0  0  0  0  0  0  0  0  0
  -20.7799   10.5172  -16.3375 C   0  0  0  0  0  0  0  0  0  0  0  0
  -21.6876   11.5162  -16.3049 F   0  0  0  0  0  0  0  0  0  0  0  0
  -20.9926    9.3697  -15.5778 C   0  0  0  0  0  0  0  0  0  0  0  0
  -20.0465    8.3620  -15.6300 C   0  0  0  0  0  0  0  0  0  0  0  0
  -18.9146    8.4695  -16.4072 C   0  0  0  0  0  0  0  0  0  0  0  0
  -18.7460    9.6250  -17.1432 C   0  0  0  0  0  0  0  0  0  0  0  0
  -17.6314    9.7447  -17.9162 F   0  0  0  0  0  0  0  0  0  0  0  0
  -17.9953   15.7847  -20.7470 C   0  0  0  0  0  0  0  0  0  0  0  0
  -17.8677   16.8701  -21.6014 N   0  0  0  0  0  0  0  0  0  0  0  0
  -17.9503   16.6171  -23.2610 S   0  0  0  0  0  0  0  0  0  0  0  0
  -18.9752   15.5258  -23.5260 O   0  0  0  0  0  0  0  0  0  0  0  0
  -18.3941   17.8058  -24.0648 O   0  0  0  0  0  0  0  0  0  0  0  0
  -16.4693   16.0035  -23.9646 C   0  0  0  0  0  0  0  0  0  0  0  0
  -15.6434   15.0902  -23.3413 C   0  0  0  0  0  0  0  0  0  0  0  0
  -14.4796   14.6304  -23.9390 C   0  0  0  0  0  0  0  0  0  0  0  0
  -14.1109   15.0767  -25.1844 C   0  0  0  0  0  0  0  0  0  0  0  0
  -12.9534   14.6059  -25.7547 F   0  0  0  0  0  0  0  0  0  0  0  0
  -14.9130   15.9829  -25.8235 C   0  0  0  0  0  0  0  0  0  0  0  0
  -16.0609   16.4222  -25.2087 C   0  0  0  0  0  0  0  0  0  0  0  0
  -15.9485   17.8380  -20.3973 C   0  0  0  0  0  0  0  0  0  0  0  0
  -17.2336   18.0567  -21.1581 C   0  0  0  0  0  0  0  0  0  0  0  0
 34 35  1  0  0  0
 35 23  1  0  0  0
 23 22  1  0  0  0
  1 22  1  0  0  0
  1  2  1  0  0  0
  2  3  1  0  0  0
  3  4  1  0  0  0
  4  5  1  0  0  0
  5  6  2  0  0  0
  6  7  1  0  0  0
  7  8  2  0  0  0
  8  9  1  0  0  0
  9 10  2  0  0  0
  7 14  1  0  0  0
 14 15  2  0  0  0
 15 16  1  0  0  0
 15 17  1  0  0  0
 17 18  2  0  0  0
 18 19  1  0  0  0
 19 20  2  0  0  0
 20 21  1  0  0  0
  4 11  1  0  0  0
 11 12  1  0  0  0
 11 13  1  0  0  0
 23 24  1  0  0  0
 24 25  2  0  0  0
 24 26  2  0  0  0
 24 27  1  0  0  0
 27 28  2  0  0  0
 28 29  1  0  0  0
 29 30  2  0  0  0
 30 31  1  0  0  0
 30 32  1  0  0  0
 32 33  2  0  0  0
 10  1  1  0  0  0
 20 14  1  0  0  0
 33 27  1  0  0  0
 11  1  1  0  0  0
 10  5  1  0  0  0
M  END
> <minimizedAffinity>
-9.12957

> <CNNscore>
0.2597813904

> <CNNaffinity>
7.2187180519

> <CNN_VS>
1.8752886057

> <CNNaffinity_variance>
0.1280427575

$$$$
[H]c1c([H])c(F)c(-c2nnc3c(c2[H])[C@]2([H])C([H])([H])C([H])([H])[C@@]3(C([H])([H])N(C([H])([H])C([H])([H])[H])S(=O)(=O)c3c([H])c([H])c(F)c([H])c3[H])C2(C([H])([H])[H])C([H])([H])[H])c(F)c1[H]


 35 39  0  0  0  0  0  0  0  0999 V2000
  -20.3468   18.0696  -20.1027 C   0  0  0  0  0  0  0  0  0  0  0  0
  -21.0357   17.0967  -19.2136 C   0  0  0  0  0  0  0  0  0  0  0  0
  -19.8838   16.4947  -18.3861 C   0  0  0  0  0  0  0  0  0  0  0  0
  -18.6483   17.1911  -18.9099 C   0  0  0  0  0  0  0  0  0  0  0  0
  -18.4349   16.7002  -20.2722 C   0  0  0  0  0  0  0  0  0  0  0  0
  -17.4773   15.8971  -20.8320 C   0  0  0  0  0  0  0  0  0  0  0  0
  -17.5943   15.6172  -22.1944 C   0  0  0  0  0  0  0  0  0  0  0  0
  -18.6189   16.1394  -22.8726 N   0  0  0  0  0  0  0  0  0  0  0  0
  -19.5466   16.9200  -22.3219 N   0  0  0  0  0  0  0  0  0  0  0  0
  -19.4704   17.2119  -21.0205 C   0  0  0  0  0  0  0  0  0  0  0  0
  -19.2532   18.5826  -19.2143 C   0  0  0  0  0  0  0  0  0  0  0  0
  -19.6867   19.2071  -17.9311 C   0  0  0  0  0  0  0  0  0  0  0  0
  -18.2329   19.4359  -19.8989 C   0  0  0  0  0  0  0  0  0  0  0  0
  -16.5799   14.7679  -22.7817 C   0  0  0  0  0  0  0  0  0  0  0  0
  -16.7364   13.4078  -22.7440 C   0  0  0  0  0  0  0  0  0  0  0  0
  -17.8325   12.8769  -22.1608 F   0  0  0  0  0  0  0  0  0  0  0  0
  -15.7775   12.5655  -23.3007 C   0  0  0  0  0  0  0  0  0  0  0  0
  -14.6647   13.1361  -23.8916 C   0  0  0  0  0  0  0  0  0  0  0  0
  -14.4888   14.5013  -23.9397 C   0  0  0  0  0  0  0  0  0  0  0  0
  -15.4654   15.2967  -23.3750 C   0  0  0  0  0  0  0  0  0  0  0  0
  -15.3046   16.6483  -23.4155 F   0  0  0  0  0  0  0  0  0  0  0  0
  -21.1334   19.0151  -20.8804 C   0  0  0  0  0  0  0  0  0  0  0  0
  -22.3426   19.5393  -20.4475 N   0  0  0  0  0  0  0  0  0  0  0  0
  -23.7595   19.0701  -21.2205 S   0  0  0  0  0  0  0  0  0  0  0  0
  -24.0706   17.6379  -20.8164 O   0  0  0  0  0  0  0  0  0  0  0  0
  -24.9763   19.8748  -20.8626 O   0  0  0  0  0  0  0  0  0  0  0  0
  -23.6358   19.0129  -22.9659 C   0  0  0  0  0  0  0  0  0  0  0  0
  -23.6455   20.1317  -23.7739 C   0  0  0  0  0  0  0  0  0  0  0  0
  -23.5428   20.0377  -25.1536 C   0  0  0  0  0  0  0  0  0  0  0  0
  -23.4270   18.8125  -25.7632 C   0  0  0  0  0  0  0  0  0  0  0  0
  -23.3267   18.7462  -27.1316 F   0  0  0  0  0  0  0  0  0  0  0  0
  -23.4150   17.6875  -24.9839 C   0  0  0  0  0  0  0  0  0  0  0  0
  -23.5183   17.8089  -23.6190 C   0  0  0  0  0  0  0  0  0  0  0  0
  -22.9253   20.6347  -18.3190 C   0  0  0  0  0  0  0  0  0  0  0  0
  -22.3741   20.7537  -19.7191 C   0  0  0  0  0  0  0  0  0  0  0  0
 34 35  1  0  0  0
 35 23  1  0  0  0
 23 22  1  0  0  0
  1 22  1  0  0  0
  1  2  1  0  0  0
  2  3  1  0  0  0
  3  4  1  0  0  0
  4  5  1  0  0  0
  5  6  2  0  0  0
  6  7  1  0  0  0
  7  8  2  0  0  0
  8  9  1  0  0  0
  9 10  2  0  0  0
  7 14  1  0  0  0
 14 15  2  0  0  0
 15 16  1  0  0  0
 15 17  1  0  0  0
 17 18  2  0  0  0
 18 19  1  0  0  0
 19 20  2  0  0  0
 20 21  1  0  0  0
  4 11  1  0  0  0
 11 12  1  0  0  0
 11 13  1  0  0  0
 23 24  1  0  0  0
 24 25  2  0  0  0
 24 26  2  0  0  0
 24 27  1  0  0  0
 27 28  2  0  0  0
 28 29  1  0  0  0
 29 30  2  0  0  0
 30 31  1  0  0  0
 30 32  1  0  0  0
 32 33  2  0  0  0
 10  1  1  0  0  0
 20 14  1  0  0  0
 33 27  1  0  0  0
 11  1  1  0  0  0
 10  5  1  0  0  0
M  END
> <minimizedAffinity>
-8.24742

> <CNNscore>
0.2342182249

> <CNNaffinity>
6.9178442955

> <CNN_VS>
1.6202851534

> <CNNaffinity_variance>
0.1575847268

$$$$
[H]c1c([H])c(F)c(-c2nnc3c(c2[H])[C@]2([H])C([H])([H])C([H])([H])[C@@]3(C([H])([H])N(C([H])([H])C([H])([H])[H])S(=O)(=O)c3c([H])c([H])c(F)c([H])c3[H])C2(C([H])([H])[H])C([H])([H])[H])c(F)c1[H]


 35 39  0  0  0  0  0  0  0  0999 V2000
  -20.5642   17.8025  -18.8000 C   0  0  0  0  0  0  0  0  0  0  0  0
  -21.1618   17.6324  -17.4488 C   0  0  0  0  0  0  0  0  0  0  0  0
  -19.9577   17.2289  -16.5764 C   0  0  0  0  0  0  0  0  0  0  0  0
  -18.7939   17.2015  -17.5412 C   0  0  0  0  0  0  0  0  0  0  0  0
  -19.0152   16.0630  -18.4342 C   0  0  0  0  0  0  0  0  0  0  0  0
  -18.3781   14.8598  -18.5823 C   0  0  0  0  0  0  0  0  0  0  0  0
  -18.8786   13.9863  -19.5490 C   0  0  0  0  0  0  0  0  0  0  0  0
  -19.9375   14.3629  -20.2697 N   0  0  0  0  0  0  0  0  0  0  0  0
  -20.5521   15.5348  -20.1207 N   0  0  0  0  0  0  0  0  0  0  0  0
  -20.1037   16.3993  -19.2061 C   0  0  0  0  0  0  0  0  0  0  0  0
  -19.2124   18.3634  -18.4738 C   0  0  0  0  0  0  0  0  0  0  0  0
  -19.1984   19.6334  -17.6920 C   0  0  0  0  0  0  0  0  0  0  0  0
  -18.2677   18.4448  -19.6309 C   0  0  0  0  0  0  0  0  0  0  0  0
  -18.2022   12.7157  -19.7018 C   0  0  0  0  0  0  0  0  0  0  0  0
  -17.4637   12.4778  -20.8305 C   0  0  0  0  0  0  0  0  0  0  0  0
  -17.3758   13.4292  -21.7847 F   0  0  0  0  0  0  0  0  0  0  0  0
  -16.8019   11.2652  -21.0053 C   0  0  0  0  0  0  0  0  0  0  0  0
  -16.9091   10.3086  -20.0121 C   0  0  0  0  0  0  0  0  0  0  0  0
  -17.6468   10.5284  -18.8700 C   0  0  0  0  0  0  0  0  0  0  0  0
  -18.2855   11.7451  -18.7401 C   0  0  0  0  0  0  0  0  0  0  0  0
  -19.0183   11.9762  -17.6158 F   0  0  0  0  0  0  0  0  0  0  0  0
  -21.3497   18.4127  -19.8621 C   0  0  0  0  0  0  0  0  0  0  0  0
  -21.6740   17.7601  -21.0425 N   0  0  0  0  0  0  0  0  0  0  0  0
  -20.8273   18.1389  -22.4442 S   0  0  0  0  0  0  0  0  0  0  0  0
  -20.1752   19.4991  -22.2538 O   0  0  0  0  0  0  0  0  0  0  0  0
  -19.7147   17.1915  -22.7915 O   0  0  0  0  0  0  0  0  0  0  0  0
  -21.8395   18.3357  -23.8590 C   0  0  0  0  0  0  0  0  0  0  0  0
  -22.1202   19.5560  -24.4392 C   0  0  0  0  0  0  0  0  0  0  0  0
  -22.9268   19.6631  -25.5622 C   0  0  0  0  0  0  0  0  0  0  0  0
  -23.4764   18.5431  -26.1364 C   0  0  0  0  0  0  0  0  0  0  0  0
  -24.2719   18.6760  -27.2483 F   0  0  0  0  0  0  0  0  0  0  0  0
  -23.2132   17.3209  -25.5798 C   0  0  0  0  0  0  0  0  0  0  0  0
  -22.4107   17.2429  -24.4670 C   0  0  0  0  0  0  0  0  0  0  0  0
  -24.1120   18.0341  -20.8162 C   0  0  0  0  0  0  0  0  0  0  0  0
  -22.9455   17.1554  -21.1976 C   0  0  0  0  0  0  0  0  0  0  0  0
 34 35  1  0  0  0
 35 23  1  0  0  0
 23 22  1  0  0  0
  1 22  1  0  0  0
  1  2  1  0  0  0
  2  3  1  0  0  0
  3  4  1  0  0  0
  4  5  1  0  0  0
  5  6  2  0  0  0
  6  7  1  0  0  0
  7  8  2  0  0  0
  8  9  1  0  0  0
  9 10  2  0  0  0
  7 14  1  0  0  0
 14 15  2  0  0  0
 15 16  1  0  0  0
 15 17  1  0  0  0
 17 18  2  0  0  0
 18 19  1  0  0  0
 19 20  2  0  0  0
 20 21  1  0  0  0
  4 11  1  0  0  0
 11 12  1  0  0  0
 11 13  1  0  0  0
 23 24  1  0  0  0
 24 25  2  0  0  0
 24 26  2  0  0  0
 24 27  1  0  0  0
 27 28  2  0  0  0
 28 29  1  0  0  0
 29 30  2  0  0  0
 30 31  1  0  0  0
 30 32  1  0  0  0
 32 33  2  0  0  0
 10  1  1  0  0  0
 20 14  1  0  0  0
 33 27  1  0  0  0
 11  1  1  0  0  0
 10  5  1  0  0  0
M  END
> <minimizedAffinity>
-8.28360

> <CNNscore>
0.1980637908

> <CNNaffinity>
6.6401977539

> <CNN_VS>
1.3151826859

> <CNNaffinity_variance>
0.2203798294

$$$$
[H]c1c([H])c(F)c(-c2nnc3c(c2[H])[C@]2([H])C([H])([H])C([H])([H])[C@@]3(C([H])([H])N(C([H])([H])C([H])([H])[H])S(=O)(=O)c3c([H])c([H])c(F)c([H])c3[H])C2(C([H])([H])[H])C([H])([H])[H])c(F)c1[H]


 35 39  0  0  0  0  0  0  0  0999 V2000
  -19.1765   15.7402  -19.8629 C   0  0  0  0  0  0  0  0  0  0  0  0
  -18.0868   16.3046  -19.0227 C   0  0  0  0  0  0  0  0  0  0  0  0
  -17.6957   17.5949  -19.7683 C   0  0  0  0  0  0  0  0  0  0  0  0
  -18.6091   17.6178  -20.9730 C   0  0  0  0  0  0  0  0  0  0  0  0
  -18.1774   16.5270  -21.8484 C   0  0  0  0  0  0  0  0  0  0  0  0
  -17.5660   16.5042  -23.0736 C   0  0  0  0  0  0  0  0  0  0  0  0
  -17.2821   15.2531  -23.6232 C   0  0  0  0  0  0  0  0  0  0  0  0
  -17.6163   14.1581  -22.9364 N   0  0  0  0  0  0  0  0  0  0  0  0
  -18.2110   14.1874  -21.7453 N   0  0  0  0  0  0  0  0  0  0  0  0
  -18.5000   15.3652  -21.1849 C   0  0  0  0  0  0  0  0  0  0  0  0
  -19.8708   16.9788  -20.3449 C   0  0  0  0  0  0  0  0  0  0  0  0
  -20.3947   17.8924  -19.2888 C   0  0  0  0  0  0  0  0  0  0  0  0
  -20.9009   16.7517  -21.4057 C   0  0  0  0  0  0  0  0  0  0  0  0
  -16.6358   15.2340  -24.9183 C   0  0  0  0  0  0  0  0  0  0  0  0
  -17.1879   14.5014  -25.9353 C   0  0  0  0  0  0  0  0  0  0  0  0
  -18.3256   13.8074  -25.7180 F   0  0  0  0  0  0  0  0  0  0  0  0
  -16.5889   14.4640  -27.1917 C   0  0  0  0  0  0  0  0  0  0  0  0
  -15.4242   15.1842  -27.3864 C   0  0  0  0  0  0  0  0  0  0  0  0
  -14.8534   15.9269  -26.3767 C   0  0  0  0  0  0  0  0  0  0  0  0
  -15.4823   15.9342  -25.1481 C   0  0  0  0  0  0  0  0  0  0  0  0
  -14.9290   16.6644  -24.1406 F   0  0  0  0  0  0  0  0  0  0  0  0
  -19.9710   14.6300  -19.3595 C   0  0  0  0  0  0  0  0  0  0  0  0
  -20.3350   14.4943  -18.0278 N   0  0  0  0  0  0  0  0  0  0  0  0
  -19.4706   13.4361  -17.0487 S   0  0  0  0  0  0  0  0  0  0  0  0
  -18.3899   14.2278  -16.3297 O   0  0  0  0  0  0  0  0  0  0  0  0
  -20.2748   12.7626  -15.9738 O   0  0  0  0  0  0  0  0  0  0  0  0
  -18.5938   12.2030  -17.9293 C   0  0  0  0  0  0  0  0  0  0  0  0
  -18.8210   10.8492  -17.7871 C   0  0  0  0  0  0  0  0  0  0  0  0
  -18.1021    9.9077  -18.5083 C   0  0  0  0  0  0  0  0  0  0  0  0
  -17.1309   10.3010  -19.3961 C   0  0  0  0  0  0  0  0  0  0  0  0
  -16.4329    9.3489  -20.0983 F   0  0  0  0  0  0  0  0  0  0  0  0
  -16.8864   11.6381  -19.5552 C   0  0  0  0  0  0  0  0  0  0  0  0
  -17.6131   12.5500  -18.8282 C   0  0  0  0  0  0  0  0  0  0  0  0
  -21.6895   15.9275  -16.5509 C   0  0  0  0  0  0  0  0  0  0  0  0
  -21.6397   14.8481  -17.6049 C   0  0  0  0  0  0  0  0  0  0  0  0
 34 35  1  0  0  0
 35 23  1  0  0  0
 23 22  1  0  0  0
  1 22  1  0  0  0
  1  2  1  0  0  0
  2  3  1  0  0  0
  3  4  1  0  0  0
  4  5  1  0  0  0
  5  6  2  0  0  0
  6  7  1  0  0  0
  7  8  2  0  0  0
  8  9  1  0  0  0
  9 10  2  0  0  0
  7 14  1  0  0  0
 14 15  2  0  0  0
 15 16  1  0  0  0
 15 17  1  0  0  0
 17 18  2  0  0  0
 18 19  1  0  0  0
 19 20  2  0  0  0
 20 21  1  0  0  0
  4 11  1  0  0  0
 11 12  1  0  0  0
 11 13  1  0  0  0
 23 24  1  0  0  0
 24 25  2  0  0  0
 24 26  2  0  0  0
 24 27  1  0  0  0
 27 28  2  0  0  0
 28 29  1  0  0  0
 29 30  2  0  0  0
 30 31  1  0  0  0
 30 32  1  0  0  0
 32 33  2  0  0  0
 10  1  1  0  0  0
 20 14  1  0  0  0
 33 27  1  0  0  0
 11  1  1  0  0  0
 10  5  1  0  0  0
M  END
> <minimizedAffinity>
-9.08787

> <CNNscore>
0.1933752149

> <CNNaffinity>
7.3781814575

> <CNN_VS>
1.4267574549

> <CNNaffinity_variance>
0.1407772601

$$$$
[H]c1c([H])c(F)c(-c2nnc3c(c2[H])[C@]2([H])C([H])([H])C([H])([H])[C@@]3(C([H])([H])N(C([H])([H])C([H])([H])[H])S(=O)(=O)c3c([H])c([H])c(F)c([H])c3[H])C2(C([H])([H])[H])C([H])([H])[H])c(F)c1[H]


 35 39  0  0  0  0  0  0  0  0999 V2000
  -16.3943   15.4864  -23.5623 C   0  0  0  0  0  0  0  0  0  0  0  0
  -14.9404   15.2006  -23.6904 C   0  0  0  0  0  0  0  0  0  0  0  0
  -14.9009   13.6904  -23.9932 C   0  0  0  0  0  0  0  0  0  0  0  0
  -16.3545   13.2744  -23.9926 C   0  0  0  0  0  0  0  0  0  0  0  0
  -16.8190   13.3726  -22.6079 C   0  0  0  0  0  0  0  0  0  0  0  0
  -17.1806   12.4331  -21.6795 C   0  0  0  0  0  0  0  0  0  0  0  0
  -17.5695   12.8947  -20.4210 C   0  0  0  0  0  0  0  0  0  0  0  0
  -17.5693   14.2096  -20.1899 N   0  0  0  0  0  0  0  0  0  0  0  0
  -17.2167   15.1179  -21.0976 N   0  0  0  0  0  0  0  0  0  0  0  0
  -16.8382   14.7170  -22.3144 C   0  0  0  0  0  0  0  0  0  0  0  0
  -16.9846   14.5590  -24.5821 C   0  0  0  0  0  0  0  0  0  0  0  0
  -16.5023   14.7292  -25.9831 C   0  0  0  0  0  0  0  0  0  0  0  0
  -18.4761   14.4498  -24.5464 C   0  0  0  0  0  0  0  0  0  0  0  0
  -17.9508   11.8980  -19.4429 C   0  0  0  0  0  0  0  0  0  0  0  0
  -17.1611   10.7932  -19.2648 C   0  0  0  0  0  0  0  0  0  0  0  0
  -16.0393   10.6474  -20.0020 F   0  0  0  0  0  0  0  0  0  0  0  0
  -17.5022    9.8179  -18.3314 C   0  0  0  0  0  0  0  0  0  0  0  0
  -18.6567    9.9926  -17.5899 C   0  0  0  0  0  0  0  0  0  0  0  0
  -19.4640   11.0964  -17.7542 C   0  0  0  0  0  0  0  0  0  0  0  0
  -19.0861   12.0370  -18.6909 C   0  0  0  0  0  0  0  0  0  0  0  0
  -19.8749   13.1335  -18.8638 F   0  0  0  0  0  0  0  0  0  0  0  0
  -16.8536   16.8659  -23.5055 C   0  0  0  0  0  0  0  0  0  0  0  0
  -17.2858   17.4788  -22.3384 N   0  0  0  0  0  0  0  0  0  0  0  0
  -18.9112   17.8759  -22.1782 S   0  0  0  0  0  0  0  0  0  0  0  0
  -19.0211   19.3860  -22.0400 O   0  0  0  0  0  0  0  0  0  0  0  0
  -19.7758   17.5033  -23.3485 O   0  0  0  0  0  0  0  0  0  0  0  0
  -19.6594   17.2502  -20.7244 C   0  0  0  0  0  0  0  0  0  0  0  0
  -20.5862   16.2276  -20.7164 C   0  0  0  0  0  0  0  0  0  0  0  0
  -21.1515   15.7627  -19.5385 C   0  0  0  0  0  0  0  0  0  0  0  0
  -20.8005   16.3141  -18.3306 C   0  0  0  0  0  0  0  0  0  0  0  0
  -21.3748   15.8358  -17.1781 F   0  0  0  0  0  0  0  0  0  0  0  0
  -19.8834   17.3297  -18.3117 C   0  0  0  0  0  0  0  0  0  0  0  0
  -19.3386   17.7714  -19.4934 C   0  0  0  0  0  0  0  0  0  0  0  0
  -16.0003   17.4515  -20.2368 C   0  0  0  0  0  0  0  0  0  0  0  0
  -16.3659   18.1704  -21.5127 C   0  0  0  0  0  0  0  0  0  0  0  0
 34 35  1  0  0  0
 35 23  1  0  0  0
 23 22  1  0  0  0
  1 22  1  0  0  0
  1  2  1  0  0  0
  2  3  1  0  0  0
  3  4  1  0  0  0
  4  5  1  0  0  0
  5  6  2  0  0  0
  6  7  1  0  0  0
  7  8  2  0  0  0
  8  9  1  0  0  0
  9 10  2  0  0  0
  7 14  1  0  0  0
 14 15  2  0  0  0
 15 16  1  0  0  0
 15 17  1  0  0  0
 17 18  2  0  0  0
 18 19  1  0  0  0
 19 20  2  0  0  0
 20 21  1  0  0  0
  4 11  1  0  0  0
 11 12  1  0  0  0
 11 13  1  0  0  0
 23 24  1  0  0  0
 24 25  2  0  0  0
 24 26  2  0  0  0
 24 27  1  0  0  0
 27 28  2  0  0  0
 28 29  1  0  0  0
 29 30  2  0  0  0
 30 31  1  0  0  0
 30 32  1  0  0  0
 32 33  2  0  0  0
 10  1  1  0  0  0
 20 14  1  0  0  0
 33 27  1  0  0  0
 11  1  1  0  0  0
 10  5  1  0  0  0
M  END
> <minimizedAffinity>
-9.51653

> <CNNscore>
0.1776643842

> <CNNaffinity>
7.3535814285

> <CNN_VS>
1.3064695597

> <CNNaffinity_variance>
0.2260161936

$$$$
[H]O[C@]1([H])C([H])([H])C([H])([H])C([H])([H])C([H])([H])[C@@]1([H])N1C([H])([H])C([H])([H])C([H])(c2c([H])n([H])c3c([H])c(F)c([H])c([H])c23)C([H])([H])C1([H])[H]


 25 28  0  0  0  0  0  0  0  0999 V2000
  -20.6834   16.2286  -17.8803 N   0  0  0  0  0  0  0  0  0  0  0  0
  -19.6483   16.1423  -18.8520 C   0  0  0  0  0  0  0  0  0  0  0  0
  -18.8431   14.8676  -18.6976 C   0  0  0  0  0  0  0  0  0  0  0  0
  -19.7486   13.7345  -19.1401 C   0  0  0  0  0  0  0  0  0  0  0  0
  -21.0247   13.8350  -18.4181 C   0  0  0  0  0  0  0  0  0  0  0  0
  -21.1615   14.9400  -17.4348 C   0  0  0  0  0  0  0  0  0  0  0  0
  -18.9939   12.4826  -18.9516 C   0  0  0  0  0  0  0  0  0  0  0  0
  -19.0899   11.5675  -17.9182 C   0  0  0  0  0  0  0  0  0  0  0  0
  -18.2310   10.5644  -18.1191 N   0  0  0  0  0  0  0  0  0  0  0  0
  -17.5686   10.7943  -19.2618 C   0  0  0  0  0  0  0  0  0  0  0  0
  -16.5695   10.0627  -19.9234 C   0  0  0  0  0  0  0  0  0  0  0  0
  -16.0794   10.5752  -21.1049 C   0  0  0  0  0  0  0  0  0  0  0  0
  -15.1141    9.8516  -21.7267 F   0  0  0  0  0  0  0  0  0  0  0  0
  -16.5509   11.7681  -21.6267 C   0  0  0  0  0  0  0  0  0  0  0  0
  -17.5307   12.4893  -20.9816 C   0  0  0  0  0  0  0  0  0  0  0  0
  -18.0239   11.9799  -19.7988 C   0  0  0  0  0  0  0  0  0  0  0  0
  -18.0954    9.7495  -17.5048 H   0  0  0  0  0  0  0  0  0  0  0  0
  -18.6763   18.1283  -15.5811 O   0  0  0  0  0  0  0  0  0  0  0  0
  -19.3137   18.0073  -16.8302 C   0  0  0  0  0  0  0  0  0  0  0  0
  -19.8489   19.3868  -17.1579 C   0  0  0  0  0  0  0  0  0  0  0  0
  -20.5144   19.8975  -15.8904 C   0  0  0  0  0  0  0  0  0  0  0  0
  -21.3549   18.8141  -15.3051 C   0  0  0  0  0  0  0  0  0  0  0  0
  -21.6455   17.6803  -16.2691 C   0  0  0  0  0  0  0  0  0  0  0  0
  -20.3664   16.9737  -16.6987 C   0  0  0  0  0  0  0  0  0  0  0  0
  -18.9275   17.3795  -14.9696 H   0  0  0  0  0  0  0  0  0  0  0  0
 18 19  1  0  0  0
 19 20  1  0  0  0
 20 21  1  0  0  0
 21 22  1  0  0  0
 22 23  1  0  0  0
 23 24  1  0  0  0
 24  1  1  0  0  0
  1  2  1  0  0  0
  2  3  1  0  0  0
  3  4  1  0  0  0
  4  5  1  0  0  0
  5  6  1  0  0  0
  4  7  1  0  0  0
  7  8  2  0  0  0
  8  9  1  0  0  0
  9 10  1  0  0  0
 10 11  2  0  0  0
 11 12  1  0  0  0
 12 13  1  0  0  0
 12 14  2  0  0  0
 14 15  1  0  0  0
 15 16  2  0  0  0
 24 19  1  0  0  0
  6  1  1  0  0  0
 16  7  1  0  0  0
 16 10  1  0  0  0
 18 25  1  0  0  0
  9 17  1  0  0  0
M  END
> <minimizedAffinity>
-7.53549

> <CNNscore>
0.4569684267

> <CNNaffinity>
5.6286411285

> <CNN_VS>
2.5721113682

> <CNNaffinity_variance>
0.0915070623

$$$$
[H]O[C@]1([H])C([H])([H])C([H])([H])C([H])([H])C([H])([H])[C@@]1([H])N1C([H])([H])C([H])([H])C([H])(c2c([H])n([H])c3c([H])c(F)c([H])c([H])c23)C([H])([H])C1([H])[H]


 25 28  0  0  0  0  0  0  0  0999 V2000
  -20.2232   15.7536  -18.3762 N   0  0  0  0  0  0  0  0  0  0  0  0
  -20.9366   14.7450  -19.0810 C   0  0  0  0  0  0  0  0  0  0  0  0
  -20.0769   13.5208  -19.3251 C   0  0  0  0  0  0  0  0  0  0  0  0
  -19.8919   12.8533  -17.9761 C   0  0  0  0  0  0  0  0  0  0  0  0
  -19.4098   13.8527  -17.0124 C   0  0  0  0  0  0  0  0  0  0  0  0
  -19.1831   15.2299  -17.5209 C   0  0  0  0  0  0  0  0  0  0  0  0
  -19.0186   11.6855  -18.1907 C   0  0  0  0  0  0  0  0  0  0  0  0
  -18.9289   10.5284  -17.4373 C   0  0  0  0  0  0  0  0  0  0  0  0
  -18.0141    9.7118  -17.9669 N   0  0  0  0  0  0  0  0  0  0  0  0
  -17.4960   10.3017  -19.0536 C   0  0  0  0  0  0  0  0  0  0  0  0
  -16.5129    9.8808  -19.9633 C   0  0  0  0  0  0  0  0  0  0  0  0
  -16.1934   10.7331  -20.9979 C   0  0  0  0  0  0  0  0  0  0  0  0
  -15.2405   10.3058  -21.8647 F   0  0  0  0  0  0  0  0  0  0  0  0
  -16.8157   11.9619  -21.1412 C   0  0  0  0  0  0  0  0  0  0  0  0
  -17.7804   12.3793  -20.2516 C   0  0  0  0  0  0  0  0  0  0  0  0
  -18.1031   11.5293  -19.2148 C   0  0  0  0  0  0  0  0  0  0  0  0
  -17.7470    8.7851  -17.6069 H   0  0  0  0  0  0  0  0  0  0  0  0
  -17.7159   18.0986  -19.4433 O   0  0  0  0  0  0  0  0  0  0  0  0
  -18.1303   16.7705  -19.2298 C   0  0  0  0  0  0  0  0  0  0  0  0
  -17.5484   15.9653  -20.3744 C   0  0  0  0  0  0  0  0  0  0  0  0
  -17.8181   16.7655  -21.6382 C   0  0  0  0  0  0  0  0  0  0  0  0
  -19.2257   17.2563  -21.6188 C   0  0  0  0  0  0  0  0  0  0  0  0
  -20.1056   16.5436  -20.6103 C   0  0  0  0  0  0  0  0  0  0  0  0
  -19.6108   16.7636  -19.1867 C   0  0  0  0  0  0  0  0  0  0  0  0
  -18.4709   18.7405  -19.3187 H   0  0  0  0  0  0  0  0  0  0  0  0
 18 19  1  0  0  0
 19 20  1  0  0  0
 20 21  1  0  0  0
 21 22  1  0  0  0
 22 23  1  0  0  0
 23 24  1  0  0  0
 24  1  1  0  0  0
  1  2  1  0  0  0
  2  3  1  0  0  0
  3  4  1  0  0  0
  4  5  1  0  0  0
  5  6  1  0  0  0
  4  7  1  0  0  0
  7  8  2  0  0  0
  8  9  1  0  0  0
  9 10  1  0  0  0
 10 11  2  0  0  0
 11 12  1  0  0  0
 12 13  1  0  0  0
 12 14  2  0  0  0
 14 15  1  0  0  0
 15 16  2  0  0  0
 24 19  1  0  0  0
  6  1  1  0  0  0
 16  7  1  0  0  0
 16 10  1  0  0  0
 18 25  1  0  0  0
  9 17  1  0  0  0
M  END
> <minimizedAffinity>
-8.17465

> <CNNscore>
0.4342637956

> <CNNaffinity>
6.0827445984

> <CNN_VS>
2.6415157318

> <CNNaffinity_variance>
0.0443366580

$$$$
[H]O[C@]1([H])C([H])([H])C([H])([H])C([H])([H])C([H])([H])[C@@]1([H])N1C([H])([H])C([H])([H])C([H])(c2c([H])n([H])c3c([H])c(F)c([H])c([H])c23)C([H])([H])C1([H])[H]


 25 28  0  0  0  0  0  0  0  0999 V2000
  -18.3114   16.2182  -19.5864 N   0  0  0  0  0  0  0  0  0  0  0  0
  -17.0775   16.8398  -19.9244 C   0  0  0  0  0  0  0  0  0  0  0  0
  -16.6082   16.4330  -21.3070 C   0  0  0  0  0  0  0  0  0  0  0  0
  -17.5474   17.1035  -22.2909 C   0  0  0  0  0  0  0  0  0  0  0  0
  -18.9334   16.7918  -21.9144 C   0  0  0  0  0  0  0  0  0  0  0  0
  -19.1332   15.9116  -20.7346 C   0  0  0  0  0  0  0  0  0  0  0  0
  -17.1309   16.6795  -23.6397 C   0  0  0  0  0  0  0  0  0  0  0  0
  -16.5481   17.4391  -24.6386 C   0  0  0  0  0  0  0  0  0  0  0  0
  -16.3234   16.6792  -25.7139 N   0  0  0  0  0  0  0  0  0  0  0  0
  -16.7442   15.4340  -25.4499 C   0  0  0  0  0  0  0  0  0  0  0  0
  -16.7407   14.2646  -26.2269 C   0  0  0  0  0  0  0  0  0  0  0  0
  -17.2547   13.1191  -25.6591 C   0  0  0  0  0  0  0  0  0  0  0  0
  -17.2415   12.0012  -26.4284 F   0  0  0  0  0  0  0  0  0  0  0  0
  -17.7581   13.1145  -24.3690 C   0  0  0  0  0  0  0  0  0  0  0  0
  -17.7638   14.2587  -23.6030 C   0  0  0  0  0  0  0  0  0  0  0  0
  -17.2503   15.4073  -24.1676 C   0  0  0  0  0  0  0  0  0  0  0  0
  -15.8995   16.9905  -26.5989 H   0  0  0  0  0  0  0  0  0  0  0  0
  -18.1870   14.1202  -16.6697 O   0  0  0  0  0  0  0  0  0  0  0  0
  -18.9000   14.9909  -17.5152 C   0  0  0  0  0  0  0  0  0  0  0  0
  -20.3130   14.4461  -17.5751 C   0  0  0  0  0  0  0  0  0  0  0  0
  -20.1825   12.9464  -17.7855 C   0  0  0  0  0  0  0  0  0  0  0  0
  -19.1617   12.6845  -18.8400 C   0  0  0  0  0  0  0  0  0  0  0  0
  -18.8230   13.9032  -19.6762 C   0  0  0  0  0  0  0  0  0  0  0  0
  -18.2104   15.0085  -18.8259 C   0  0  0  0  0  0  0  0  0  0  0  0
  -17.2997   13.8788  -17.0597 H   0  0  0  0  0  0  0  0  0  0  0  0
 18 19  1  0  0  0
 19 20  1  0  0  0
 20 21  1  0  0  0
 21 22  1  0  0  0
 22 23  1  0  0  0
 23 24  1  0  0  0
 24  1  1  0  0  0
  1  2  1  0  0  0
  2  3  1  0  0  0
  3  4  1  0  0  0
  4  5  1  0  0  0
  5  6  1  0  0  0
  4  7  1  0  0  0
  7  8  2  0  0  0
  8  9  1  0  0  0
  9 10  1  0  0  0
 10 11  2  0  0  0
 11 12  1  0  0  0
 12 13  1  0  0  0
 12 14  2  0  0  0
 14 15  1  0  0  0
 15 16  2  0  0  0
 24 19  1  0  0  0
  6  1  1  0  0  0
 16  7  1  0  0  0
 16 10  1  0  0  0
 18 25  1  0  0  0
  9 17  1  0  0  0
M  END
> <minimizedAffinity>
-8.24799

> <CNNscore>
0.3922554553

> <CNNaffinity>
6.1740627289

> <CNN_VS>
2.4218096733

> <CNNaffinity_variance>
0.3912756741

$$$$
[H]O[C@]1([H])C([H])([H])C([H])([H])C([H])([H])C([H])([H])[C@@]1([H])N1C([H])([H])C([H])([H])C([H])(c2c([H])n([H])c3c([H])c(F)c([H])c([H])c23)C([H])([H])C1([H])[H]


 25 28  0  0  0  0  0  0  0  0999 V2000
  -22.1564   10.8080  -13.3050 N   0  0  0  0  0  0  0  0  0  0  0  0
  -21.4277   11.9011  -13.8503 C   0  0  0  0  0  0  0  0  0  0  0  0
  -20.2350   11.4291  -14.6577 C   0  0  0  0  0  0  0  0  0  0  0  0
  -20.7953   10.7989  -15.9182 C   0  0  0  0  0  0  0  0  0  0  0  0
  -21.8102    9.8045  -15.5429 C   0  0  0  0  0  0  0  0  0  0  0  0
  -22.0548    9.6006  -14.0919 C   0  0  0  0  0  0  0  0  0  0  0  0
  -19.6475   10.2935  -16.6926 C   0  0  0  0  0  0  0  0  0  0  0  0
  -18.9540    9.1075  -16.5281 C   0  0  0  0  0  0  0  0  0  0  0  0
  -17.9776    9.0232  -17.4357 N   0  0  0  0  0  0  0  0  0  0  0  0
  -18.0088   10.1260  -18.1974 C   0  0  0  0  0  0  0  0  0  0  0  0
  -17.2128   10.5342  -19.2795 C   0  0  0  0  0  0  0  0  0  0  0  0
  -17.5030   11.7481  -19.8635 C   0  0  0  0  0  0  0  0  0  0  0  0
  -16.7206   12.1224  -20.9073 F   0  0  0  0  0  0  0  0  0  0  0  0
  -18.5409   12.5418  -19.4047 C   0  0  0  0  0  0  0  0  0  0  0  0
  -19.3244   12.1459  -18.3437 C   0  0  0  0  0  0  0  0  0  0  0  0
  -19.0373   10.9317  -17.7564 C   0  0  0  0  0  0  0  0  0  0  0  0
  -17.3105    8.2459  -17.5386 H   0  0  0  0  0  0  0  0  0  0  0  0
  -21.0832    8.7045  -10.5943 O   0  0  0  0  0  0  0  0  0  0  0  0
  -20.8039    9.3793  -11.7975 C   0  0  0  0  0  0  0  0  0  0  0  0
  -19.3872    9.9005  -11.6615 C   0  0  0  0  0  0  0  0  0  0  0  0
  -19.2930   10.5209  -10.2772 C   0  0  0  0  0  0  0  0  0  0  0  0
  -20.4990   11.3624  -10.0319 C   0  0  0  0  0  0  0  0  0  0  0  0
  -21.2733   11.6993  -11.2913 C   0  0  0  0  0  0  0  0  0  0  0  0
  -21.8195   10.4450  -11.9608 C   0  0  0  0  0  0  0  0  0  0  0  0
  -21.9836    8.9507  -10.2389 H   0  0  0  0  0  0  0  0  0  0  0  0
 18 19  1  0  0  0
 19 20  1  0  0  0
 20 21  1  0  0  0
 21 22  1  0  0  0
 22 23  1  0  0  0
 23 24  1  0  0  0
 24  1  1  0  0  0
  1  2  1  0  0  0
  2  3  1  0  0  0
  3  4  1  0  0  0
  4  5  1  0  0  0
  5  6  1  0  0  0
  4  7  1  0  0  0
  7  8  2  0  0  0
  8  9  1  0  0  0
  9 10  1  0  0  0
 10 11  2  0  0  0
 11 12  1  0  0  0
 12 13  1  0  0  0
 12 14  2  0  0  0
 14 15  1  0  0  0
 15 16  2  0  0  0
 24 19  1  0  0  0
  6  1  1  0  0  0
 16  7  1  0  0  0
 16 10  1  0  0  0
 18 25  1  0  0  0
  9 17  1  0  0  0
M  END
> <minimizedAffinity>
-7.33736

> <CNNscore>
0.3797015846

> <CNNaffinity>
5.1297163963

> <CNN_VS>
1.9477614164

> <CNNaffinity_variance>
0.1661513001

$$$$
[H]O[C@]1([H])C([H])([H])C([H])([H])C([H])([H])C([H])([H])[C@@]1([H])N1C([H])([H])C([H])([H])C([H])(c2c([H])n([H])c3c([H])c(F)c([H])c([H])c23)C([H])([H])C1([H])[H]


 25 28  0  0  0  0  0  0  0  0999 V2000
  -19.0151   15.8508  -20.4706 N   0  0  0  0  0  0  0  0  0  0  0  0
  -17.6527   15.6254  -20.1301 C   0  0  0  0  0  0  0  0  0  0  0  0
  -17.4596   14.2774  -19.4647 C   0  0  0  0  0  0  0  0  0  0  0  0
  -17.6624   13.2343  -20.5467 C   0  0  0  0  0  0  0  0  0  0  0  0
  -18.9416   13.4920  -21.2228 C   0  0  0  0  0  0  0  0  0  0  0  0
  -19.7515   14.6345  -20.7275 C   0  0  0  0  0  0  0  0  0  0  0  0
  -17.5230   11.9154  -19.9036 C   0  0  0  0  0  0  0  0  0  0  0  0
  -16.6442   10.8938  -20.2176 C   0  0  0  0  0  0  0  0  0  0  0  0
  -16.8375    9.8599  -19.3942 N   0  0  0  0  0  0  0  0  0  0  0  0
  -17.8240   10.1735  -18.5423 C   0  0  0  0  0  0  0  0  0  0  0  0
  -18.4120    9.4524  -17.4909 C   0  0  0  0  0  0  0  0  0  0  0  0
  -19.4273   10.0630  -16.7873 C   0  0  0  0  0  0  0  0  0  0  0  0
  -19.9810    9.3473  -15.7758 F   0  0  0  0  0  0  0  0  0  0  0  0
  -19.8571   11.3416  -17.1005 C   0  0  0  0  0  0  0  0  0  0  0  0
  -19.2837   12.0529  -18.1307 C   0  0  0  0  0  0  0  0  0  0  0  0
  -18.2672   11.4455  -18.8375 C   0  0  0  0  0  0  0  0  0  0  0  0
  -16.3202    8.9700  -19.4061 H   0  0  0  0  0  0  0  0  0  0  0  0
  -21.6751   16.5485  -18.1551 O   0  0  0  0  0  0  0  0  0  0  0  0
  -20.5360   15.8038  -18.5142 C   0  0  0  0  0  0  0  0  0  0  0  0
  -19.7758   15.5615  -17.2256 C   0  0  0  0  0  0  0  0  0  0  0  0
  -19.7462   16.8923  -16.4920 C   0  0  0  0  0  0  0  0  0  0  0  0
  -19.3970   17.9767  -17.4537 C   0  0  0  0  0  0  0  0  0  0  0  0
  -18.7967   17.4706  -18.7509 C   0  0  0  0  0  0  0  0  0  0  0  0
  -19.7805   16.5933  -19.5141 C   0  0  0  0  0  0  0  0  0  0  0  0
  -21.8203   17.3157  -18.7779 H   0  0  0  0  0  0  0  0  0  0  0  0
 18 19  1  0  0  0
 19 20  1  0  0  0
 20 21  1  0  0  0
 21 22  1  0  0  0
 22 23  1  0  0  0
 23 24  1  0  0  0
 24  1  1  0  0  0
  1  2  1  0  0  0
  2  3  1  0  0  0
  3  4  1  0  0  0
  4  5  1  0  0  0
  5  6  1  0  0  0
  4  7  1  0  0  0
  7  8  2  0  0  0
  8  9  1  0  0  0
  9 10  1  0  0  0
 10 11  2  0  0  0
 11 12  1  0  0  0
 12 13  1  0  0  0
 12 14  2  0  0  0
 14 15  1  0  0  0
 15 16  2  0  0  0
 24 19  1  0  0  0
  6  1  1  0  0  0
 16  7  1  0  0  0
 16 10  1  0  0  0
 18 25  1  0  0  0
  9 17  1  0  0  0
M  END
> <minimizedAffinity>
-7.22130

> <CNNscore>
0.3393267095

> <CNNaffinity>
6.0523195267

> <CNN_VS>
2.0537135601

> <CNNaffinity_variance>
0.3297341168

$$$$
[H]O[C@]1([H])C([H])([H])C([H])([H])C([H])([H])C([H])([H])[C@@]1([H])N1C([H])([H])C([H])([H])C([H])(c2c([H])n([H])c3c([H])c(F)c([H])c([H])c23)C([H])([H])C1([H])[H]


 25 28  0  0  0  0  0  0  0  0999 V2000
  -18.6533   15.7741  -19.6888 N   0  0  0  0  0  0  0  0  0  0  0  0
  -18.8258   14.6981  -20.6029 C   0  0  0  0  0  0  0  0  0  0  0  0
  -18.3706   15.0736  -21.9989 C   0  0  0  0  0  0  0  0  0  0  0  0
  -16.8578   15.1653  -21.9443 C   0  0  0  0  0  0  0  0  0  0  0  0
  -16.4740   16.0480  -20.8337 C   0  0  0  0  0  0  0  0  0  0  0  0
  -17.5733   16.6643  -20.0473 C   0  0  0  0  0  0  0  0  0  0  0  0
  -16.4035   15.5753  -23.2852 C   0  0  0  0  0  0  0  0  0  0  0  0
  -15.6871   16.7037  -23.6431 C   0  0  0  0  0  0  0  0  0  0  0  0
  -15.4738   16.7064  -24.9616 N   0  0  0  0  0  0  0  0  0  0  0  0
  -16.0323   15.6058  -25.4850 C   0  0  0  0  0  0  0  0  0  0  0  0
  -16.0979   15.1312  -26.8047 C   0  0  0  0  0  0  0  0  0  0  0  0
  -16.7579   13.9415  -27.0234 C   0  0  0  0  0  0  0  0  0  0  0  0
  -16.8090   13.5023  -28.3065 F   0  0  0  0  0  0  0  0  0  0  0  0
  -17.3377   13.2342  -25.9836 C   0  0  0  0  0  0  0  0  0  0  0  0
  -17.2762   13.6955  -24.6876 C   0  0  0  0  0  0  0  0  0  0  0  0
  -16.6166   14.8858  -24.4644 C   0  0  0  0  0  0  0  0  0  0  0  0
  -14.9671   17.4282  -25.4927 H   0  0  0  0  0  0  0  0  0  0  0  0
  -20.5730   18.7999  -19.4001 O   0  0  0  0  0  0  0  0  0  0  0  0
  -19.8279   17.8996  -20.1845 C   0  0  0  0  0  0  0  0  0  0  0  0
  -20.5222   17.8494  -21.5308 C   0  0  0  0  0  0  0  0  0  0  0  0
  -22.0083   17.7211  -21.2388 C   0  0  0  0  0  0  0  0  0  0  0  0
  -22.2142   16.6961  -20.1759 C   0  0  0  0  0  0  0  0  0  0  0  0
  -21.0112   15.8009  -19.9515 C   0  0  0  0  0  0  0  0  0  0  0  0
  -19.8046   16.5993  -19.4755 C   0  0  0  0  0  0  0  0  0  0  0  0
  -20.7384   18.4356  -18.4850 H   0  0  0  0  0  0  0  0  0  0  0  0
 18 19  1  0  0  0
 19 20  1  0  0  0
 20 21  1  0  0  0
 21 22  1  0  0  0
 22 23  1  0  0  0
 23 24  1  0  0  0
 24  1  1  0  0  0
  1  2  1  0  0  0
  2  3  1  0  0  0
  3  4  1  0  0  0
  4  5  1  0  0  0
  5  6  1  0  0  0
  4  7  1  0  0  0
  7  8  2  0  0  0
  8  9  1  0  0  0
  9 10  1  0  0  0
 10 11  2  0  0  0
 11 12  1  0  0  0
 12 13  1  0  0  0
 12 14  2  0  0  0
 14 15  1  0  0  0
 15 16  2  0  0  0
 24 19  1  0  0  0
  6  1  1  0  0  0
 16  7  1  0  0  0
 16 10  1  0  0  0
 18 25  1  0  0  0
  9 17  1  0  0  0
M  END
> <minimizedAffinity>
-7.80001

> <CNNscore>
0.3357738853

> <CNNaffinity>
5.9006614685

> <CNN_VS>
1.9812880754

> <CNNaffinity_variance>
0.1434488446

$$$$
[H]O[C@]1([H])C([H])([H])C([H])([H])C([H])([H])C([H])([H])[C@@]1([H])N1C([H])([H])C([H])([H])C([H])(c2c([H])n([H])c3c([H])c(F)c([H])c([H])c23)C([H])([H])C1([H])[H]


 25 28  0  0  0  0  0  0  0  0999 V2000
  -19.4581   16.6012  -19.7901 N   0  0  0  0  0  0  0  0  0  0  0  0
  -20.4991   15.6482  -19.9666 C   0  0  0  0  0  0  0  0  0  0  0  0
  -19.9684   14.2290  -19.9290 C   0  0  0  0  0  0  0  0  0  0  0  0
  -19.5721   13.9595  -18.4902 C   0  0  0  0  0  0  0  0  0  0  0  0
  -18.6868   15.0384  -18.0300 C   0  0  0  0  0  0  0  0  0  0  0  0
  -18.3488   16.1020  -19.0104 C   0  0  0  0  0  0  0  0  0  0  0  0
  -19.0108   12.5973  -18.4471 C   0  0  0  0  0  0  0  0  0  0  0  0
  -19.2607   11.5926  -17.5291 C   0  0  0  0  0  0  0  0  0  0  0  0
  -18.5519   10.5047  -17.8429 N   0  0  0  0  0  0  0  0  0  0  0  0
  -17.8386   10.7661  -18.9476 C   0  0  0  0  0  0  0  0  0  0  0  0
  -16.9418    9.9779  -19.6862 C   0  0  0  0  0  0  0  0  0  0  0  0
  -16.3571   10.5465  -20.7969 C   0  0  0  0  0  0  0  0  0  0  0  0
  -15.4936    9.7664  -21.4953 F   0  0  0  0  0  0  0  0  0  0  0  0
  -16.6396   11.8479  -21.1767 C   0  0  0  0  0  0  0  0  0  0  0  0
  -17.5184   12.6250  -20.4556 C   0  0  0  0  0  0  0  0  0  0  0  0
  -18.1057   12.0597  -19.3433 C   0  0  0  0  0  0  0  0  0  0  0  0
  -18.5490    9.6132  -17.3283 H   0  0  0  0  0  0  0  0  0  0  0  0
  -16.9549   17.3025  -22.2734 O   0  0  0  0  0  0  0  0  0  0  0  0
  -17.7792   16.3814  -21.6001 C   0  0  0  0  0  0  0  0  0  0  0  0
  -18.2185   15.3763  -22.6459 C   0  0  0  0  0  0  0  0  0  0  0  0
  -18.6352   16.1841  -23.8642 C   0  0  0  0  0  0  0  0  0  0  0  0
  -19.4823   17.3308  -23.4280 C   0  0  0  0  0  0  0  0  0  0  0  0
  -20.0229   17.1875  -22.0186 C   0  0  0  0  0  0  0  0  0  0  0  0
  -18.8975   17.1397  -20.9934 C   0  0  0  0  0  0  0  0  0  0  0  0
  -17.1853   18.2434  -22.0302 H   0  0  0  0  0  0  0  0  0  0  0  0
 18 19  1  0  0  0
 19 20  1  0  0  0
 20 21  1  0  0  0
 21 22  1  0  0  0
 22 23  1  0  0  0
 23 24  1  0  0  0
 24  1  1  0  0  0
  1  2  1  0  0  0
  2  3  1  0  0  0
  3  4  1  0  0  0
  4  5  1  0  0  0
  5  6  1  0  0  0
  4  7  1  0  0  0
  7  8  2  0  0  0
  8  9  1  0  0  0
  9 10  1  0  0  0
 10 11  2  0  0  0
 11 12  1  0  0  0
 12 13  1  0  0  0
 12 14  2  0  0  0
 14 15  1  0  0  0
 15 16  2  0  0  0
 24 19  1  0  0  0
  6  1  1  0  0  0
 16  7  1  0  0  0
 16 10  1  0  0  0
 18 25  1  0  0  0
  9 17  1  0  0  0
M  END
> <minimizedAffinity>
-8.02290

> <CNNscore>
0.3142944276

> <CNNaffinity>
5.9078030586

> <CNN_VS>
1.8567895889

> <CNNaffinity_variance>
0.1019194126

$$$$
[H]O[C@]1([H])C([H])([H])C([H])([H])C([H])([H])C([H])([H])[C@@]1([H])N1C([H])([H])C([H])([H])C([H])(c2c([H])n([H])c3c([H])c(F)c([H])c([H])c23)C([H])([H])C1([H])[H]


 25 28  0  0  0  0  0  0  0  0999 V2000
  -18.1034   17.0364  -23.5475 N   0  0  0  0  0  0  0  0  0  0  0  0
  -16.6838   17.0286  -23.4580 C   0  0  0  0  0  0  0  0  0  0  0  0
  -16.1689   15.7291  -22.8721 C   0  0  0  0  0  0  0  0  0  0  0  0
  -16.3968   14.6649  -23.9281 C   0  0  0  0  0  0  0  0  0  0  0  0
  -17.8000   14.7169  -24.3617 C   0  0  0  0  0  0  0  0  0  0  0  0
  -18.6761   15.7190  -23.7021 C   0  0  0  0  0  0  0  0  0  0  0  0
  -15.9425   13.3856  -23.3540 C   0  0  0  0  0  0  0  0  0  0  0  0
  -14.8580   12.6118  -23.7278 C   0  0  0  0  0  0  0  0  0  0  0  0
  -14.7894   11.5238  -22.9560 N   0  0  0  0  0  0  0  0  0  0  0  0
  -15.8034   11.5595  -22.0798 C   0  0  0  0  0  0  0  0  0  0  0  0
  -16.1863   10.6730  -21.0606 C   0  0  0  0  0  0  0  0  0  0  0  0
  -17.3002   10.9975  -20.3171 C   0  0  0  0  0  0  0  0  0  0  0  0
  -17.6518   10.1261  -19.3378 F   0  0  0  0  0  0  0  0  0  0  0  0
  -18.0207   12.1547  -20.5610 C   0  0  0  0  0  0  0  0  0  0  0  0
  -17.6493   13.0273  -21.5594 C   0  0  0  0  0  0  0  0  0  0  0  0
  -16.5350   12.7062  -22.3058 C   0  0  0  0  0  0  0  0  0  0  0  0
  -14.0807   10.7797  -23.0179 H   0  0  0  0  0  0  0  0  0  0  0  0
  -20.5725   17.4237  -20.9633 O   0  0  0  0  0  0  0  0  0  0  0  0
  -19.4636   16.7403  -21.4969 C   0  0  0  0  0  0  0  0  0  0  0  0
  -18.6027   16.3564  -20.3101 C   0  0  0  0  0  0  0  0  0  0  0  0
  -18.5182   17.5914  -19.4281 C   0  0  0  0  0  0  0  0  0  0  0  0
  -18.2493   18.7860  -20.2787 C   0  0  0  0  0  0  0  0  0  0  0  0
  -17.7529   18.4440  -21.6700 C   0  0  0  0  0  0  0  0  0  0  0  0
  -18.7920   17.6514  -22.4522 C   0  0  0  0  0  0  0  0  0  0  0  0
  -20.7687   18.2574  -21.4772 H   0  0  0  0  0  0  0  0  0  0  0  0
 18 19  1  0  0  0
 19 20  1  0  0  0
 20 21  1  0  0  0
 21 22  1  0  0  0
 22 23  1  0  0  0
 23 24  1  0  0  0
 24  1  1  0  0  0
  1  2  1  0  0  0
  2  3  1  0  0  0
  3  4  1  0  0  0
  4  5  1  0  0  0
  5  6  1  0  0  0
  4  7  1  0  0  0
  7  8  2  0  0  0
  8  9  1  0  0  0
  9 10  1  0  0  0
 10 11  2  0  0  0
 11 12  1  0  0  0
 12 13  1  0  0  0
 12 14  2  0  0  0
 14 15  1  0  0  0
 15 16  2  0  0  0
 24 19  1  0  0  0
  6  1  1  0  0  0
 16  7  1  0  0  0
 16 10  1  0  0  0
 18 25  1  0  0  0
  9 17  1  0  0  0
M  END
> <minimizedAffinity>
-7.59574

> <CNNscore>
0.2703243792

> <CNNaffinity>
6.0716409683

> <CNN_VS>
1.6413125992

> <CNNaffinity_variance>
0.2674894929

$$$$
[H]O[C@]1([H])C([H])([H])C([H])([H])C([H])([H])C([H])([H])[C@@]1([H])N1C([H])([H])C([H])([H])C([H])(c2c([H])n([H])c3c([H])c(F)c([H])c([H])c23)C([H])([H])C1([H])[H]


 25 28  0  0  0  0  0  0  0  0999 V2000
  -20.2232   10.1235  -14.3068 N   0  0  0  0  0  0  0  0  0  0  0  0
  -20.5075   11.4196  -14.8190 C   0  0  0  0  0  0  0  0  0  0  0  0
  -19.5118   11.8286  -15.8860 C   0  0  0  0  0  0  0  0  0  0  0  0
  -19.8086   10.9682  -17.0990 C   0  0  0  0  0  0  0  0  0  0  0  0
  -19.8366    9.5577  -16.6871 C   0  0  0  0  0  0  0  0  0  0  0  0
  -19.5572    9.2637  -15.2581 C   0  0  0  0  0  0  0  0  0  0  0  0
  -18.8172   11.3229  -18.1304 C   0  0  0  0  0  0  0  0  0  0  0  0
  -17.5814   10.7482  -18.3696 C   0  0  0  0  0  0  0  0  0  0  0  0
  -16.9881   11.3598  -19.3983 N   0  0  0  0  0  0  0  0  0  0  0  0
  -17.8026   12.3260  -19.8456 C   0  0  0  0  0  0  0  0  0  0  0  0
  -17.6637   13.2519  -20.8919 C   0  0  0  0  0  0  0  0  0  0  0  0
  -18.6996   14.1354  -21.1045 C   0  0  0  0  0  0  0  0  0  0  0  0
  -18.5434   15.0214  -22.1207 F   0  0  0  0  0  0  0  0  0  0  0  0
  -19.8394   14.1162  -20.3183 C   0  0  0  0  0  0  0  0  0  0  0  0
  -19.9804   13.2102  -19.2910 C   0  0  0  0  0  0  0  0  0  0  0  0
  -18.9460   12.3242  -19.0749 C   0  0  0  0  0  0  0  0  0  0  0  0
  -16.0623   11.1328  -19.7870 H   0  0  0  0  0  0  0  0  0  0  0  0
  -19.1712   11.0178  -10.9875 O   0  0  0  0  0  0  0  0  0  0  0  0
  -20.1300   10.4582  -11.8528 C   0  0  0  0  0  0  0  0  0  0  0  0
  -20.7217    9.2779  -11.1086 C   0  0  0  0  0  0  0  0  0  0  0  0
  -19.5480    8.5210  -10.5088 C   0  0  0  0  0  0  0  0  0  0  0  0
  -18.4750    8.3839  -11.5347 C   0  0  0  0  0  0  0  0  0  0  0  0
  -18.9472    8.6538  -12.9501 C   0  0  0  0  0  0  0  0  0  0  0  0
  -19.4386   10.0866  -13.1089 C   0  0  0  0  0  0  0  0  0  0  0  0
  -18.3191   11.2183  -11.4685 H   0  0  0  0  0  0  0  0  0  0  0  0
 18 19  1  0  0  0
 19 20  1  0  0  0
 20 21  1  0  0  0
 21 22  1  0  0  0
 22 23  1  0  0  0
 23 24  1  0  0  0
 24  1  1  0  0  0
  1  2  1  0  0  0
  2  3  1  0  0  0
  3  4  1  0  0  0
  4  5  1  0  0  0
  5  6  1  0  0  0
  4  7  1  0  0  0
  7  8  2  0  0  0
  8  9  1  0  0  0
  9 10  1  0  0  0
 10 11  2  0  0  0
 11 12  1  0  0  0
 12 13  1  0  0  0
 12 14  2  0  0  0
 14 15  1  0  0  0
 15 16  2  0  0  0
 24 19  1  0  0  0
  6  1  1  0  0  0
 16  7  1  0  0  0
 16 10  1  0  0  0
 18 25  1  0  0  0
  9 17  1  0  0  0
M  END
> <minimizedAffinity>
-6.94584

> <CNNscore>
0.2698819935

> <CNNaffinity>
5.2548871040

> <CNN_VS>
1.4181994200

> <CNNaffinity_variance>
0.0489040278

$$$$
[H]C1=C([H])[C@@]2(C([H])([H])[H])C(=C([H])C1=O)C([H])([H])C([H])([H])[C@]1([H])[C@]2([H])C([H])([H])C([H])([H])[C@]2(C([H])([H])[H])C(=O)C([H])([H])C([H])([H])[C@]21[H]


 21 24  0  0  0  0  0  0  0  0999 V2000
  -18.3511   10.9829  -21.4873 C   0  0  0  0  0  0  0  0  0  0  0  0
  -17.0998   11.5579  -20.8698 C   0  0  0  0  0  0  0  0  0  0  0  0
  -17.1921   11.5553  -19.3877 C   0  0  0  0  0  0  0  0  0  0  0  0
  -18.3931   12.3907  -18.9939 C   0  0  0  0  0  0  0  0  0  0  0  0
  -18.2435   13.7909  -19.4811 C   0  0  0  0  0  0  0  0  0  0  0  0
  -18.0092   13.8901  -20.9846 C   0  0  0  0  0  0  0  0  0  0  0  0
  -17.5618   15.3084  -21.3070 C   0  0  0  0  0  0  0  0  0  0  0  0
  -18.4755   16.3564  -20.7805 C   0  0  0  0  0  0  0  0  0  0  0  0
  -18.8590   16.0985  -19.3608 C   0  0  0  0  0  0  0  0  0  0  0  0
  -18.7621   17.0397  -18.4437 C   0  0  0  0  0  0  0  0  0  0  0  0
  -19.1399   16.7604  -17.0825 C   0  0  0  0  0  0  0  0  0  0  0  0
  -19.0366   17.6858  -16.2188 O   0  0  0  0  0  0  0  0  0  0  0  0
  -19.6233   15.4534  -16.7227 C   0  0  0  0  0  0  0  0  0  0  0  0
  -19.7084   14.5303  -17.6660 C   0  0  0  0  0  0  0  0  0  0  0  0
  -19.3505   14.7136  -19.0688 C   0  0  0  0  0  0  0  0  0  0  0  0
  -20.6073   14.5109  -19.9084 C   0  0  0  0  0  0  0  0  0  0  0  0
  -16.8659   12.9971  -21.2923 C   0  0  0  0  0  0  0  0  0  0  0  0
  -16.4892   12.8671  -22.7141 C   0  0  0  0  0  0  0  0  0  0  0  0
  -15.6270   11.5972  -22.7126 C   0  0  0  0  0  0  0  0  0  0  0  0
  -15.8803   10.9375  -21.4188 C   0  0  0  0  0  0  0  0  0  0  0  0
  -15.2310   10.0693  -20.9059 O   0  0  0  0  0  0  0  0  0  0  0  0
  2  1  1  0  0  0
  2  3  1  0  0  0
  3  4  1  0  0  0
  4  5  1  0  0  0
  5  6  1  0  0  0
  6  7  1  0  0  0
  7  8  1  0  0  0
  8  9  1  0  0  0
  9 10  2  0  0  0
 10 11  1  0  0  0
 11 12  2  0  0  0
 11 13  1  0  0  0
 13 14  2  0  0  0
 14 15  1  0  0  0
 15 16  1  0  0  0
  6 17  1  0  0  0
 17 18  1  0  0  0
 18 19  1  0  0  0
 19 20  1  0  0  0
 20 21  2  0  0  0
 17  2  1  0  0  0
 20  2  1  0  0  0
 15  5  1  0  0  0
 15  9  1  0  0  0
M  END
> <minimizedAffinity>
-7.34014

> <CNNscore>
0.4791659117

> <CNNaffinity>
6.0631551743

> <CNN_VS>
2.9052572250

> <CNNaffinity_variance>
0.3402419686

$$$$
[H]C1=C([H])[C@@]2(C([H])([H])[H])C(=C([H])C1=O)C([H])([H])C([H])([H])[C@]1([H])[C@]2([H])C([H])([H])C([H])([H])[C@]2(C([H])([H])[H])C(=O)C([H])([H])C([H])([H])[C@]21[H]


 21 24  0  0  0  0  0  0  0  0999 V2000
  -16.4939   12.2421  -18.4831 C   0  0  0  0  0  0  0  0  0  0  0  0
  -17.5726   11.6962  -19.3864 C   0  0  0  0  0  0  0  0  0  0  0  0
  -17.5567   12.3819  -20.7034 C   0  0  0  0  0  0  0  0  0  0  0  0
  -17.7844   13.8602  -20.4622 C   0  0  0  0  0  0  0  0  0  0  0  0
  -19.0981   14.0893  -19.7973 C   0  0  0  0  0  0  0  0  0  0  0  0
  -19.2629   13.3163  -18.4933 C   0  0  0  0  0  0  0  0  0  0  0  0
  -20.7271   13.3760  -18.0830 C   0  0  0  0  0  0  0  0  0  0  0  0
  -21.2746   14.7570  -18.0250 C   0  0  0  0  0  0  0  0  0  0  0  0
  -20.9000   15.5553  -19.2299 C   0  0  0  0  0  0  0  0  0  0  0  0
  -21.8042   16.2254  -19.9154 C   0  0  0  0  0  0  0  0  0  0  0  0
  -21.4119   16.9864  -21.0731 C   0  0  0  0  0  0  0  0  0  0  0  0
  -22.3037   17.6230  -21.7154 O   0  0  0  0  0  0  0  0  0  0  0  0
  -20.0324   17.0157  -21.4825 C   0  0  0  0  0  0  0  0  0  0  0  0
  -19.1492   16.3323  -20.7740 C   0  0  0  0  0  0  0  0  0  0  0  0
  -19.4459   15.5325  -19.5899 C   0  0  0  0  0  0  0  0  0  0  0  0
  -18.6948   16.1384  -18.4090 C   0  0  0  0  0  0  0  0  0  0  0  0
  -18.9596   11.8981  -18.8033 C   0  0  0  0  0  0  0  0  0  0  0  0
  -18.9829   10.9514  -17.6705 C   0  0  0  0  0  0  0  0  0  0  0  0
  -18.2232    9.7428  -18.2343 C   0  0  0  0  0  0  0  0  0  0  0  0
  -17.5431   10.2237  -19.4506 C   0  0  0  0  0  0  0  0  0  0  0  0
  -17.0594    9.5591  -20.3241 O   0  0  0  0  0  0  0  0  0  0  0  0
  2  1  1  0  0  0
  2  3  1  0  0  0
  3  4  1  0  0  0
  4  5  1  0  0  0
  5  6  1  0  0  0
  6  7  1  0  0  0
  7  8  1  0  0  0
  8  9  1  0  0  0
  9 10  2  0  0  0
 10 11  1  0  0  0
 11 12  2  0  0  0
 11 13  1  0  0  0
 13 14  2  0  0  0
 14 15  1  0  0  0
 15 16  1  0  0  0
  6 17  1  0  0  0
 17 18  1  0  0  0
 18 19  1  0  0  0
 19 20  1  0  0  0
 20 21  2  0  0  0
 17  2  1  0  0  0
 20  2  1  0  0  0
 15  5  1  0  0  0
 15  9  1  0  0  0
M  END
> <minimizedAffinity>
-6.47157

> <CNNscore>
0.4398688376

> <CNNaffinity>
5.7084484100

> <CNN_VS>
2.5109686852

> <CNNaffinity_variance>
0.3359850347

$$$$
[H]C1=C([H])[C@@]2(C([H])([H])[H])C(=C([H])C1=O)C([H])([H])C([H])([H])[C@]1([H])[C@]2([H])C([H])([H])C([H])([H])[C@]2(C([H])([H])[H])C(=O)C([H])([H])C([H])([H])[C@]21[H]


 21 24  0  0  0  0  0  0  0  0999 V2000
  -18.2850   13.7308  -17.5333 C   0  0  0  0  0  0  0  0  0  0  0  0
  -19.1171   12.9648  -18.5325 C   0  0  0  0  0  0  0  0  0  0  0  0
  -20.5662   13.1734  -18.2846 C   0  0  0  0  0  0  0  0  0  0  0  0
  -20.8730   12.6929  -16.8809 C   0  0  0  0  0  0  0  0  0  0  0  0
  -20.5462   11.2463  -16.7360 C   0  0  0  0  0  0  0  0  0  0  0  0
  -19.1042   10.9091  -17.0996 C   0  0  0  0  0  0  0  0  0  0  0  0
  -18.9818    9.3970  -17.2196 C   0  0  0  0  0  0  0  0  0  0  0  0
  -19.4783    8.6617  -16.0266 C   0  0  0  0  0  0  0  0  0  0  0  0
  -20.8024    9.1761  -15.5670 C   0  0  0  0  0  0  0  0  0  0  0  0
  -21.8099    8.3598  -15.3320 C   0  0  0  0  0  0  0  0  0  0  0  0
  -23.0750    8.8862  -14.8894 C   0  0  0  0  0  0  0  0  0  0  0  0
  -24.0291    8.0772  -14.6702 O   0  0  0  0  0  0  0  0  0  0  0  0
  -23.2401   10.3038  -14.7035 C   0  0  0  0  0  0  0  0  0  0  0  0
  -22.2102   11.0966  -14.9483 C   0  0  0  0  0  0  0  0  0  0  0  0
  -20.8922   10.6622  -15.3997 C   0  0  0  0  0  0  0  0  0  0  0  0
  -19.8758   11.0425  -14.3282 C   0  0  0  0  0  0  0  0  0  0  0  0
  -18.8691   11.4692  -18.4524 C   0  0  0  0  0  0  0  0  0  0  0  0
  -17.5050   11.3305  -19.0004 C   0  0  0  0  0  0  0  0  0  0  0  0
  -17.5011   12.3577  -20.1409 C   0  0  0  0  0  0  0  0  0  0  0  0
  -18.6802   13.2141  -19.9183 C   0  0  0  0  0  0  0  0  0  0  0  0
  -19.1904   13.9665  -20.7007 O   0  0  0  0  0  0  0  0  0  0  0  0
  2  1  1  0  0  0
  2  3  1  0  0  0
  3  4  1  0  0  0
  4  5  1  0  0  0
  5  6  1  0  0  0
  6  7  1  0  0  0
  7  8  1  0  0  0
  8  9  1  0  0  0
  9 10  2  0  0  0
 10 11  1  0  0  0
 11 12  2  0  0  0
 11 13  1  0  0  0
 13 14  2  0  0  0
 14 15  1  0  0  0
 15 16  1  0  0  0
  6 17  1  0  0  0
 17 18  1  0  0  0
 18 19  1  0  0  0
 19 20  1  0  0  0
 20 21  2  0  0  0
 17  2  1  0  0  0
 20  2  1  0  0  0
 15  5  1  0  0  0
 15  9  1  0  0  0
M  END
> <minimizedAffinity>
-7.56548

> <CNNscore>
0.3308953047

> <CNNaffinity>
5.2189345360

> <CNN_VS>
1.7269209623

> <CNNaffinity_variance>
0.0813254267

$$$$
[H]C1=C([H])[C@@]2(C([H])([H])[H])C(=C([H])C1=O)C([H])([H])C([H])([H])[C@]1([H])[C@]2([H])C([H])([H])C([H])([H])[C@]2(C([H])([H])[H])C(=O)C([H])([H])C([H])([H])[C@]21[H]


 21 24  0  0  0  0  0  0  0  0999 V2000
  -18.3028   10.5952  -21.5413 C   0  0  0  0  0  0  0  0  0  0  0  0
  -17.4442   11.5640  -20.7655 C   0  0  0  0  0  0  0  0  0  0  0  0
  -18.1785   12.8273  -20.5014 C   0  0  0  0  0  0  0  0  0  0  0  0
  -18.5616   13.4319  -21.8367 C   0  0  0  0  0  0  0  0  0  0  0  0
  -17.3481   13.7222  -22.6512 C   0  0  0  0  0  0  0  0  0  0  0  0
  -16.4545   12.5055  -22.8663 C   0  0  0  0  0  0  0  0  0  0  0  0
  -15.1210   12.9832  -23.4225 C   0  0  0  0  0  0  0  0  0  0  0  0
  -15.2511   13.8421  -24.6291 C   0  0  0  0  0  0  0  0  0  0  0  0
  -16.3004   14.8900  -24.4559 C   0  0  0  0  0  0  0  0  0  0  0  0
  -16.0545   16.1562  -24.7254 C   0  0  0  0  0  0  0  0  0  0  0  0
  -17.0873   17.1438  -24.5484 C   0  0  0  0  0  0  0  0  0  0  0  0
  -16.8233   18.3570  -24.8157 O   0  0  0  0  0  0  0  0  0  0  0  0
  -18.3886   16.7489  -24.0770 C   0  0  0  0  0  0  0  0  0  0  0  0
  -18.6037   15.4706  -23.8149 C   0  0  0  0  0  0  0  0  0  0  0  0
  -17.6257   14.3972  -23.9604 C   0  0  0  0  0  0  0  0  0  0  0  0
  -18.1474   13.4204  -25.0089 C   0  0  0  0  0  0  0  0  0  0  0  0
  -16.1831   11.9396  -21.5227 C   0  0  0  0  0  0  0  0  0  0  0  0
  -15.3862   10.6976  -21.4741 C   0  0  0  0  0  0  0  0  0  0  0  0
  -15.6711   10.1773  -20.0585 C   0  0  0  0  0  0  0  0  0  0  0  0
  -16.8408   10.9343  -19.5769 C   0  0  0  0  0  0  0  0  0  0  0  0
  -17.2321   11.0266  -18.4469 O   0  0  0  0  0  0  0  0  0  0  0  0
  2  1  1  0  0  0
  2  3  1  0  0  0
  3  4  1  0  0  0
  4  5  1  0  0  0
  5  6  1  0  0  0
  6  7  1  0  0  0
  7  8  1  0  0  0
  8  9  1  0  0  0
  9 10  2  0  0  0
 10 11  1  0  0  0
 11 12  2  0  0  0
 11 13  1  0  0  0
 13 14  2  0  0  0
 14 15  1  0  0  0
 15 16  1  0  0  0
  6 17  1  0  0  0
 17 18  1  0  0  0
 18 19  1  0  0  0
 19 20  1  0  0  0
 20 21  2  0  0  0
 17  2  1  0  0  0
 20  2  1  0  0  0
 15  5  1  0  0  0
 15  9  1  0  0  0
M  END
> <minimizedAffinity>
-7.41504

> <CNNscore>
0.3266605437

> <CNNaffinity>
6.1122069359

> <CNN_VS>
1.9966168404

> <CNNaffinity_variance>
0.1604712307

$$$$
[H]C1=C([H])[C@@]2(C([H])([H])[H])C(=C([H])C1=O)C([H])([H])C([H])([H])[C@]1([H])[C@]2([H])C([H])([H])C([H])([H])[C@]2(C([H])([H])[H])C(=O)C([H])([H])C([H])([H])[C@]21[H]


 21 24  0  0  0  0  0  0  0  0999 V2000
  -16.3560   12.8316  -21.1994 C   0  0  0  0  0  0  0  0  0  0  0  0
  -17.5175   12.0216  -20.6777 C   0  0  0  0  0  0  0  0  0  0  0  0
  -18.7754   12.3905  -21.3753 C   0  0  0  0  0  0  0  0  0  0  0  0
  -19.0258   13.8655  -21.1361 C   0  0  0  0  0  0  0  0  0  0  0  0
  -19.1631   14.1471  -19.6793 C   0  0  0  0  0  0  0  0  0  0  0  0
  -17.9689   13.6800  -18.8542 C   0  0  0  0  0  0  0  0  0  0  0  0
  -18.3549   13.7288  -17.3830 C   0  0  0  0  0  0  0  0  0  0  0  0
  -18.8934   15.0455  -16.9510 C   0  0  0  0  0  0  0  0  0  0  0  0
  -19.9074   15.5743  -17.9109 C   0  0  0  0  0  0  0  0  0  0  0  0
  -21.0813   16.0071  -17.4973 C   0  0  0  0  0  0  0  0  0  0  0  0
  -22.0384   16.5115  -18.4476 C   0  0  0  0  0  0  0  0  0  0  0  0
  -23.1622   16.9224  -18.0218 O   0  0  0  0  0  0  0  0  0  0  0  0
  -21.7137   16.5434  -19.8494 C   0  0  0  0  0  0  0  0  0  0  0  0
  -20.5276   16.1015  -20.2327 C   0  0  0  0  0  0  0  0  0  0  0  0
  -19.4926   15.5719  -19.3506 C   0  0  0  0  0  0  0  0  0  0  0  0
  -18.2720   16.4803  -19.4541 C   0  0  0  0  0  0  0  0  0  0  0  0
  -17.7533   12.2531  -19.1961 C   0  0  0  0  0  0  0  0  0  0  0  0
  -16.5936   11.5883  -18.5690 C   0  0  0  0  0  0  0  0  0  0  0  0
  -16.4162   10.3393  -19.4433 C   0  0  0  0  0  0  0  0  0  0  0  0
  -17.2168   10.5784  -20.6579 C   0  0  0  0  0  0  0  0  0  0  0  0
  -17.5607    9.7687  -21.4731 O   0  0  0  0  0  0  0  0  0  0  0  0
  2  1  1  0  0  0
  2  3  1  0  0  0
  3  4  1  0  0  0
  4  5  1  0  0  0
  5  6  1  0  0  0
  6  7  1  0  0  0
  7  8  1  0  0  0
  8  9  1  0  0  0
  9 10  2  0  0  0
 10 11  1  0  0  0
 11 12  2  0  0  0
 11 13  1  0  0  0
 13 14  2  0  0  0
 14 15  1  0  0  0
 15 16  1  0  0  0
  6 17  1  0  0  0
 17 18  1  0  0  0
 18 19  1  0  0  0
 19 20  1  0  0  0
 20 21  2  0  0  0
 17  2  1  0  0  0
 20  2  1  0  0  0
 15  5  1  0  0  0
 15  9  1  0  0  0
M  END
> <minimizedAffinity>
-5.34688

> <CNNscore>
0.2784401476

> <CNNaffinity>
5.4943442345

> <CNN_VS>
1.5298460722

> <CNNaffinity_variance>
0.1882568002

$$$$
[H]C1=C([H])[C@@]2(C([H])([H])[H])C(=C([H])C1=O)C([H])([H])C([H])([H])[C@]1([H])[C@]2([H])C([H])([H])C([H])([H])[C@]2(C([H])([H])[H])C(=O)C([H])([H])C([H])([H])[C@]21[H]


 21 24  0  0  0  0  0  0  0  0999 V2000
  -19.9916   18.3053  -19.2473 C   0  0  0  0  0  0  0  0  0  0  0  0
  -19.7017   17.3924  -20.4135 C   0  0  0  0  0  0  0  0  0  0  0  0
  -18.8829   18.0877  -21.4388 C   0  0  0  0  0  0  0  0  0  0  0  0
  -19.6592   19.2995  -21.9123 C   0  0  0  0  0  0  0  0  0  0  0  0
  -20.9620   18.8906  -22.5088 C   0  0  0  0  0  0  0  0  0  0  0  0
  -21.8240   18.0523  -21.5710 C   0  0  0  0  0  0  0  0  0  0  0  0
  -22.9569   17.4396  -22.3815 C   0  0  0  0  0  0  0  0  0  0  0  0
  -23.7334   18.4339  -23.1680 C   0  0  0  0  0  0  0  0  0  0  0  0
  -22.8428   19.3815  -23.9015 C   0  0  0  0  0  0  0  0  0  0  0  0
  -23.0103   19.6232  -25.1860 C   0  0  0  0  0  0  0  0  0  0  0  0
  -22.1349   20.5425  -25.8658 C   0  0  0  0  0  0  0  0  0  0  0  0
  -22.3188   20.7573  -27.1040 O   0  0  0  0  0  0  0  0  0  0  0  0
  -21.0767   21.1978  -25.1432 C   0  0  0  0  0  0  0  0  0  0  0  0
  -20.9344   20.9336  -23.8551 C   0  0  0  0  0  0  0  0  0  0  0  0
  -21.7661   20.0201  -23.0783 C   0  0  0  0  0  0  0  0  0  0  0  0
  -22.4688   20.8273  -21.9919 C   0  0  0  0  0  0  0  0  0  0  0  0
  -20.9720   16.9314  -21.1052 C   0  0  0  0  0  0  0  0  0  0  0  0
  -21.5693   16.0091  -20.1189 C   0  0  0  0  0  0  0  0  0  0  0  0
  -20.3378   15.2908  -19.5503 C   0  0  0  0  0  0  0  0  0  0  0  0
  -19.1726   16.0887  -19.9733 C   0  0  0  0  0  0  0  0  0  0  0  0
  -18.0209   15.7542  -19.9654 O   0  0  0  0  0  0  0  0  0  0  0  0
  2  1  1  0  0  0
  2  3  1  0  0  0
  3  4  1  0  0  0
  4  5  1  0  0  0
  5  6  1  0  0  0
  6  7  1  0  0  0
  7  8  1  0  0  0
  8  9  1  0  0  0
  9 10  2  0  0  0
 10 11  1  0  0  0
 11 12  2  0  0  0
 11 13  1  0  0  0
 13 14  2  0  0  0
 14 15  1  0  0  0
 15 16  1  0  0  0
  6 17  1  0  0  0
 17 18  1  0  0  0
 18 19  1  0  0  0
 19 20  1  0  0  0
 20 21  2  0  0  0
 17  2  1  0  0  0
 20  2  1  0  0  0
 15  5  1  0  0  0
 15  9  1  0  0  0
M  END
> <minimizedAffinity>
-5.42121

> <CNNscore>
0.2742401361

> <CNNaffinity>
5.3220400810

> <CNN_VS>
1.4595170021

> <CNNaffinity_variance>
0.2098129243

$$$$
[H]C1=C([H])[C@@]2(C([H])([H])[H])C(=C([H])C1=O)C([H])([H])C([H])([H])[C@]1([H])[C@]2([H])C([H])([H])C([H])([H])[C@]2(C([H])([H])[H])C(=O)C([H])([H])C([H])([H])[C@]21[H]


 21 24  0  0  0  0  0  0  0  0999 V2000
  -17.0483   14.0271  -25.6164 C   0  0  0  0  0  0  0  0  0  0  0  0
  -16.1865   14.7527  -24.6122 C   0  0  0  0  0  0  0  0  0  0  0  0
  -15.1139   13.8649  -24.0963 C   0  0  0  0  0  0  0  0  0  0  0  0
  -15.7735   12.6684  -23.4416 C   0  0  0  0  0  0  0  0  0  0  0  0
  -16.6477   13.0999  -22.3147 C   0  0  0  0  0  0  0  0  0  0  0  0
  -17.7047   14.1210  -22.7213 C   0  0  0  0  0  0  0  0  0  0  0  0
  -18.3109   14.7121  -21.4567 C   0  0  0  0  0  0  0  0  0  0  0  0
  -18.8131   13.6895  -20.5016 C   0  0  0  0  0  0  0  0  0  0  0  0
  -17.8290   12.5848  -20.3004 C   0  0  0  0  0  0  0  0  0  0  0  0
  -17.4792   12.1911  -19.0925 C   0  0  0  0  0  0  0  0  0  0  0  0
  -16.5275   11.1227  -18.9308 C   0  0  0  0  0  0  0  0  0  0  0  0
  -16.2082   10.7631  -17.7553 O   0  0  0  0  0  0  0  0  0  0  0  0
  -15.9577   10.4842  -20.0879 C   0  0  0  0  0  0  0  0  0  0  0  0
  -16.3288   10.9025  -21.2864 C   0  0  0  0  0  0  0  0  0  0  0  0
  -17.2820   11.9745  -21.5546 C   0  0  0  0  0  0  0  0  0  0  0  0
  -18.4691   11.3763  -22.3020 C   0  0  0  0  0  0  0  0  0  0  0  0
  -16.9853   15.2205  -23.4090 C   0  0  0  0  0  0  0  0  0  0  0  0
  -17.8130   16.3096  -23.9649 C   0  0  0  0  0  0  0  0  0  0  0  0
  -16.8462   16.9940  -24.9410 C   0  0  0  0  0  0  0  0  0  0  0  0
  -15.7240   16.0556  -25.1239 C   0  0  0  0  0  0  0  0  0  0  0  0
  -14.6464   16.2937  -25.5934 O   0  0  0  0  0  0  0  0  0  0  0  0
  2  1  1  0  0  0
  2  3  1  0  0  0
  3  4  1  0  0  0
  4  5  1  0  0  0
  5  6  1  0  0  0
  6  7  1  0  0  0
  7  8  1  0  0  0
  8  9  1  0  0  0
  9 10  2  0  0  0
 10 11  1  0  0  0
 11 12  2  0  0  0
 11 13  1  0  0  0
 13 14  2  0  0  0
 14 15  1  0  0  0
 15 16  1  0  0  0
  6 17  1  0  0  0
 17 18  1  0  0  0
 18 19  1  0  0  0
 19 20  1  0  0  0
 20 21  2  0  0  0
 17  2  1  0  0  0
 20  2  1  0  0  0
 15  5  1  0  0  0
 15  9  1  0  0  0
M  END
> <minimizedAffinity>
-8.29291

> <CNNscore>
0.2640256882

> <CNNaffinity>
6.1107873917

> <CNN_VS>
1.6134048700

> <CNNaffinity_variance>
0.2171671093

$$$$
[H]C1=C([H])[C@@]2(C([H])([H])[H])C(=C([H])C1=O)C([H])([H])C([H])([H])[C@]1([H])[C@]2([H])C([H])([H])C([H])([H])[C@]2(C([H])([H])[H])C(=O)C([H])([H])C([H])([H])[C@]21[H]


 21 24  0  0  0  0  0  0  0  0999 V2000
  -20.3573   17.2984  -20.8959 C   0  0  0  0  0  0  0  0  0  0  0  0
  -18.8754   17.3977  -20.6282 C   0  0  0  0  0  0  0  0  0  0  0  0
  -18.1020   16.6474  -21.6499 C   0  0  0  0  0  0  0  0  0  0  0  0
  -18.5405   15.1982  -21.5954 C   0  0  0  0  0  0  0  0  0  0  0  0
  -18.2786   14.6188  -20.2478 C   0  0  0  0  0  0  0  0  0  0  0  0
  -18.9265   15.4032  -19.1120 C   0  0  0  0  0  0  0  0  0  0  0  0
  -18.3377   14.9152  -17.7963 C   0  0  0  0  0  0  0  0  0  0  0  0
  -18.4168   13.4414  -17.6175 C   0  0  0  0  0  0  0  0  0  0  0  0
  -17.9788   12.7079  -18.8419 C   0  0  0  0  0  0  0  0  0  0  0  0
  -17.0961   11.7317  -18.7761 C   0  0  0  0  0  0  0  0  0  0  0  0
  -16.6936   11.0428  -19.9748 C   0  0  0  0  0  0  0  0  0  0  0  0
  -15.8413   10.1057  -19.8827 O   0  0  0  0  0  0  0  0  0  0  0  0
  -17.2547   11.4199  -21.2454 C   0  0  0  0  0  0  0  0  0  0  0  0
  -18.1378   12.4039  -21.2782 C   0  0  0  0  0  0  0  0  0  0  0  0
  -18.6083   13.1620  -20.1234 C   0  0  0  0  0  0  0  0  0  0  0  0
  -20.1080   12.9246  -19.9805 C   0  0  0  0  0  0  0  0  0  0  0  0
  -18.5004   16.8139  -19.2780 C   0  0  0  0  0  0  0  0  0  0  0  0
  -19.0626   17.7934  -18.3268 C   0  0  0  0  0  0  0  0  0  0  0  0
  -18.7894   19.1305  -19.0293 C   0  0  0  0  0  0  0  0  0  0  0  0
  -18.4458   18.7929  -20.4226 C   0  0  0  0  0  0  0  0  0  0  0  0
  -17.9216   19.5030  -21.2346 O   0  0  0  0  0  0  0  0  0  0  0  0
  2  1  1  0  0  0
  2  3  1  0  0  0
  3  4  1  0  0  0
  4  5  1  0  0  0
  5  6  1  0  0  0
  6  7  1  0  0  0
  7  8  1  0  0  0
  8  9  1  0  0  0
  9 10  2  0  0  0
 10 11  1  0  0  0
 11 12  2  0  0  0
 11 13  1  0  0  0
 13 14  2  0  0  0
 14 15  1  0  0  0
 15 16  1  0  0  0
  6 17  1  0  0  0
 17 18  1  0  0  0
 18 19  1  0  0  0
 19 20  1  0  0  0
 20 21  2  0  0  0
 17  2  1  0  0  0
 20  2  1  0  0  0
 15  5  1  0  0  0
 15  9  1  0  0  0
M  END
> <minimizedAffinity>
-8.03538

> <CNNscore>
0.2578241229

> <CNNaffinity>
5.9119882584

> <CNN_VS>
1.5242531300

> <CNNaffinity_variance>
0.1762077361

$$$$
[H]C1=C([H])[C@@]2(C([H])([H])[H])C(=C([H])C1=O)C([H])([H])C([H])([H])[C@]1([H])[C@]2([H])C([H])([H])C([H])([H])[C@]2(C([H])([H])[H])C(=O)C([H])([H])C([H])([H])[C@]21[H]


 21 24  0  0  0  0  0  0  0  0999 V2000
  -17.6969   14.3750  -24.2791 C   0  0  0  0  0  0  0  0  0  0  0  0
  -16.4947   14.0967  -23.4103 C   0  0  0  0  0  0  0  0  0  0  0  0
  -16.6441   12.8014  -22.6997 C   0  0  0  0  0  0  0  0  0  0  0  0
  -17.8923   12.8800  -21.8445 C   0  0  0  0  0  0  0  0  0  0  0  0
  -17.7806   13.9837  -20.8497 C   0  0  0  0  0  0  0  0  0  0  0  0
  -17.4925   15.3427  -21.4785 C   0  0  0  0  0  0  0  0  0  0  0  0
  -17.0906   16.3068  -20.3719 C   0  0  0  0  0  0  0  0  0  0  0  0
  -18.0656   16.3686  -19.2513 C   0  0  0  0  0  0  0  0  0  0  0  0
  -18.4931   15.0079  -18.8097 C   0  0  0  0  0  0  0  0  0  0  0  0
  -18.4699   14.6620  -17.5384 C   0  0  0  0  0  0  0  0  0  0  0  0
  -18.8885   13.3421  -17.1435 C   0  0  0  0  0  0  0  0  0  0  0  0
  -18.8562   13.0351  -15.9116 O   0  0  0  0  0  0  0  0  0  0  0  0
  -19.3323   12.3998  -18.1368 C   0  0  0  0  0  0  0  0  0  0  0  0
  -19.3434   12.7771  -19.4043 C   0  0  0  0  0  0  0  0  0  0  0  0
  -18.9391   14.0872  -19.9042 C   0  0  0  0  0  0  0  0  0  0  0  0
  -20.1533   14.7406  -20.5559 C   0  0  0  0  0  0  0  0  0  0  0  0
  -16.3029   15.1616  -22.3455 C   0  0  0  0  0  0  0  0  0  0  0  0
  -15.8665   16.3358  -23.1272 C   0  0  0  0  0  0  0  0  0  0  0  0
  -14.9544   15.7055  -24.1887 C   0  0  0  0  0  0  0  0  0  0  0  0
  -15.2308   14.2579  -24.1519 C   0  0  0  0  0  0  0  0  0  0  0  0
  -14.5673   13.3788  -24.6265 O   0  0  0  0  0  0  0  0  0  0  0  0
  2  1  1  0  0  0
  2  3  1  0  0  0
  3  4  1  0  0  0
  4  5  1  0  0  0
  5  6  1  0  0  0
  6  7  1  0  0  0
  7  8  1  0  0  0
  8  9  1  0  0  0
  9 10  2  0  0  0
 10 11  1  0  0  0
 11 12  2  0  0  0
 11 13  1  0  0  0
 13 14  2  0  0  0
 14 15  1  0  0  0
 15 16  1  0  0  0
  6 17  1  0  0  0
 17 18  1  0  0  0
 18 19  1  0  0  0
 19 20  1  0  0  0
 20 21  2  0  0  0
 17  2  1  0  0  0
 20  2  1  0  0  0
 15  5  1  0  0  0
 15  9  1  0  0  0
M  END
> <minimizedAffinity>
-8.88050

> <CNNscore>
0.2423914969

> <CNNaffinity>
5.9277148247

> <CNN_VS>
1.4368276596

> <CNNaffinity_variance>
0.2611828744

$$$$
[H]Oc1c([H])c([H])c([C@@]2([H])Sc3c([H])c(O[H])c([H])c([H])c3O[C@@]2([H])c2c([H])c([H])c(OC([H])([H])[C@@]([H])(N3C([H])([H])C([H])([H])C([H])([H])C3([H])[H])C([H])([H])[H])c([H])c2[H])c([H])c1[H]


 35 39  0  0  0  0  0  0  0  0999 V2000
  -19.8683   13.4003  -19.6117 C   0  0  0  0  0  0  0  0  0  0  0  0
  -18.7961   12.7234  -19.0225 O   0  0  0  0  0  0  0  0  0  0  0  0
  -17.8162   12.0629  -19.7438 C   0  0  0  0  0  0  0  0  0  0  0  0
  -17.0960   11.0849  -19.1010 C   0  0  0  0  0  0  0  0  0  0  0  0
  -16.0932   10.3655  -19.7369 C   0  0  0  0  0  0  0  0  0  0  0  0
  -15.8456   10.6766  -21.0579 C   0  0  0  0  0  0  0  0  0  0  0  0
  -14.8377    9.9570  -21.7053 O   0  0  0  0  0  0  0  0  0  0  0  0
  -16.5655   11.6598  -21.7133 C   0  0  0  0  0  0  0  0  0  0  0  0
  -17.5365   12.3373  -21.0523 C   0  0  0  0  0  0  0  0  0  0  0  0
  -18.4396   13.5993  -21.9380 S   0  0  0  0  0  0  0  0  0  0  0  0
  -19.5630   14.3552  -20.6970 C   0  0  0  0  0  0  0  0  0  0  0  0
  -14.6404   10.1777  -22.6932 H   0  0  0  0  0  0  0  0  0  0  0  0
  -19.1185   15.6915  -20.3177 C   0  0  0  0  0  0  0  0  0  0  0  0
  -17.9418   15.8632  -19.6242 C   0  0  0  0  0  0  0  0  0  0  0  0
  -17.5017   17.1347  -19.2524 C   0  0  0  0  0  0  0  0  0  0  0  0
  -18.2450   18.2498  -19.5764 C   0  0  0  0  0  0  0  0  0  0  0  0
  -17.7851   19.5242  -19.1928 O   0  0  0  0  0  0  0  0  0  0  0  0
  -19.4156   18.0977  -20.2645 C   0  0  0  0  0  0  0  0  0  0  0  0
  -19.8316   16.8330  -20.6219 C   0  0  0  0  0  0  0  0  0  0  0  0
  -17.1841   19.9858  -19.8778 H   0  0  0  0  0  0  0  0  0  0  0  0
  -22.1030   15.2023  -16.4604 C   0  0  0  0  0  0  0  0  0  0  0  0
  -21.0900   14.3048  -16.1693 C   0  0  0  0  0  0  0  0  0  0  0  0
  -20.3973   13.7438  -17.2222 C   0  0  0  0  0  0  0  0  0  0  0  0
  -20.6638   14.0324  -18.5447 C   0  0  0  0  0  0  0  0  0  0  0  0
  -21.6718   14.9249  -18.8101 C   0  0  0  0  0  0  0  0  0  0  0  0
  -22.3834   15.5028  -17.7723 C   0  0  0  0  0  0  0  0  0  0  0  0
  -22.8332   15.7961  -15.4128 O   0  0  0  0  0  0  0  0  0  0  0  0
  -23.0630   15.0656  -14.2206 C   0  0  0  0  0  0  0  0  0  0  0  0
  -25.3722   15.5171  -15.0726 C   0  0  0  0  0  0  0  0  0  0  0  0
  -24.5097   15.1930  -13.8689 C   0  0  0  0  0  0  0  0  0  0  0  0
  -24.8079   16.1414  -12.8459 N   0  0  0  0  0  0  0  0  0  0  0  0
  -23.7007   16.5417  -12.0335 C   0  0  0  0  0  0  0  0  0  0  0  0
  -24.2351   17.7660  -11.2779 C   0  0  0  0  0  0  0  0  0  0  0  0
  -25.4944   18.1733  -12.0219 C   0  0  0  0  0  0  0  0  0  0  0  0
  -25.3221   17.3939  -13.3313 C   0  0  0  0  0  0  0  0  0  0  0  0
 29 30  1  0  0  0
 30 28  1  0  0  0
 28 27  1  0  0  0
 27 21  1  0  0  0
 21 22  2  0  0  0
 22 23  1  0  0  0
 23 24  2  0  0  0
 24 25  1  0  0  0
 25 26  2  0  0  0
 24  1  1  0  0  0
  1  2  1  0  0  0
  2  3  1  0  0  0
  3  4  2  0  0  0
  4  5  1  0  0  0
  5  6  2  0  0  0
  6  7  1  0  0  0
  6  8  1  0  0  0
  8  9  2  0  0  0
  9 10  1  0  0  0
 10 11  1  0  0  0
 11 13  1  0  0  0
 13 14  2  0  0  0
 14 15  1  0  0  0
 15 16  2  0  0  0
 16 17  1  0  0  0
 16 18  1  0  0  0
 18 19  2  0  0  0
 30 31  1  0  0  0
 31 32  1  0  0  0
 32 33  1  0  0  0
 33 34  1  0  0  0
 34 35  1  0  0  0
 26 21  1  0  0  0
 11  1  1  0  0  0
 19 13  1  0  0  0
 35 31  1  0  0  0
  9  3  1  0  0  0
  7 12  1  0  0  0
 17 20  1  0  0  0
M  END
> <minimizedAffinity>
-6.69341

> <CNNscore>
0.3880687356

> <CNNaffinity>
6.3413004875

> <CNN_VS>
2.4608604908

> <CNNaffinity_variance>
0.2238028795

$$$$
[H]Oc1c([H])c([H])c([C@@]2([H])Sc3c([H])c(O[H])c([H])c([H])c3O[C@@]2([H])c2c([H])c([H])c(OC([H])([H])[C@@]([H])(N3C([H])([H])C([H])([H])C([H])([H])C3([H])[H])C([H])([H])[H])c([H])c2[H])c([H])c1[H]


 35 39  0  0  0  0  0  0  0  0999 V2000
  -17.7304   13.4218  -22.0857 C   0  0  0  0  0  0  0  0  0  0  0  0
  -16.3714   13.5905  -22.3679 O   0  0  0  0  0  0  0  0  0  0  0  0
  -15.8948   14.3730  -23.4059 C   0  0  0  0  0  0  0  0  0  0  0  0
  -14.6255   14.1211  -23.8685 C   0  0  0  0  0  0  0  0  0  0  0  0
  -14.0574   14.8494  -24.9049 C   0  0  0  0  0  0  0  0  0  0  0  0
  -14.8291   15.8499  -25.4589 C   0  0  0  0  0  0  0  0  0  0  0  0
  -14.2646   16.5878  -26.5027 O   0  0  0  0  0  0  0  0  0  0  0  0
  -16.1080   16.1108  -24.9996 C   0  0  0  0  0  0  0  0  0  0  0  0
  -16.6225   15.3736  -23.9844 C   0  0  0  0  0  0  0  0  0  0  0  0
  -18.2773   15.7466  -23.4231 S   0  0  0  0  0  0  0  0  0  0  0  0
  -18.5663   14.6362  -21.9888 C   0  0  0  0  0  0  0  0  0  0  0  0
  -14.8287   17.3394  -26.9276 H   0  0  0  0  0  0  0  0  0  0  0  0
  -18.5468   15.3729  -20.7302 C   0  0  0  0  0  0  0  0  0  0  0  0
  -19.7138   15.5922  -20.0337 C   0  0  0  0  0  0  0  0  0  0  0  0
  -19.7138   16.2959  -18.8282 C   0  0  0  0  0  0  0  0  0  0  0  0
  -18.5344   16.7877  -18.3104 C   0  0  0  0  0  0  0  0  0  0  0  0
  -18.5541   17.4953  -17.0932 O   0  0  0  0  0  0  0  0  0  0  0  0
  -17.3667   16.5793  -18.9887 C   0  0  0  0  0  0  0  0  0  0  0  0
  -17.3894   15.8816  -20.1774 C   0  0  0  0  0  0  0  0  0  0  0  0
  -18.4326   16.9165  -16.2603 H   0  0  0  0  0  0  0  0  0  0  0  0
  -17.9984   10.9778  -18.6033 C   0  0  0  0  0  0  0  0  0  0  0  0
  -16.8715   10.9237  -19.4055 C   0  0  0  0  0  0  0  0  0  0  0  0
  -16.8319   11.7298  -20.5244 C   0  0  0  0  0  0  0  0  0  0  0  0
  -17.8559   12.5829  -20.8809 C   0  0  0  0  0  0  0  0  0  0  0  0
  -18.9631   12.6205  -20.0712 C   0  0  0  0  0  0  0  0  0  0  0  0
  -19.0292   11.8219  -18.9420 C   0  0  0  0  0  0  0  0  0  0  0  0
  -18.0765   10.1700  -17.4523 O   0  0  0  0  0  0  0  0  0  0  0  0
  -19.3435    9.8782  -16.8890 C   0  0  0  0  0  0  0  0  0  0  0  0
  -20.2675    7.8352  -15.7779 C   0  0  0  0  0  0  0  0  0  0  0  0
  -19.1504    8.8592  -15.8133 C   0  0  0  0  0  0  0  0  0  0  0  0
  -18.9930    9.3842  -14.4963 N   0  0  0  0  0  0  0  0  0  0  0  0
  -19.7820   10.5383  -14.1936 C   0  0  0  0  0  0  0  0  0  0  0  0
  -19.6613   10.6647  -12.6688 C   0  0  0  0  0  0  0  0  0  0  0  0
  -19.1082    9.3299  -12.2023 C   0  0  0  0  0  0  0  0  0  0  0  0
  -19.3470    8.4665  -13.4469 C   0  0  0  0  0  0  0  0  0  0  0  0
 29 30  1  0  0  0
 30 28  1  0  0  0
 28 27  1  0  0  0
 27 21  1  0  0  0
 21 22  2  0  0  0
 22 23  1  0  0  0
 23 24  2  0  0  0
 24 25  1  0  0  0
 25 26  2  0  0  0
 24  1  1  0  0  0
  1  2  1  0  0  0
  2  3  1  0  0  0
  3  4  2  0  0  0
  4  5  1  0  0  0
  5  6  2  0  0  0
  6  7  1  0  0  0
  6  8  1  0  0  0
  8  9  2  0  0  0
  9 10  1  0  0  0
 10 11  1  0  0  0
 11 13  1  0  0  0
 13 14  2  0  0  0
 14 15  1  0  0  0
 15 16  2  0  0  0
 16 17  1  0  0  0
 16 18  1  0  0  0
 18 19  2  0  0  0
 30 31  1  0  0  0
 31 32  1  0  0  0
 32 33  1  0  0  0
 33 34  1  0  0  0
 34 35  1  0  0  0
 26 21  1  0  0  0
 11  1  1  0  0  0
 19 13  1  0  0  0
 35 31  1  0  0  0
  9  3  1  0  0  0
  7 12  1  0  0  0
 17 20  1  0  0  0
M  END
> <minimizedAffinity>
-9.73626

> <CNNscore>
0.2656009793

> <CNNaffinity>
6.5930871964

> <CNN_VS>
1.7511304617

> <CNNaffinity_variance>
0.0856298357

$$$$
[H]Oc1c([H])c([H])c([C@@]2([H])Sc3c([H])c(O[H])c([H])c([H])c3O[C@@]2([H])c2c([H])c([H])c(OC([H])([H])[C@@]([H])(N3C([H])([H])C([H])([H])C([H])([H])C3([H])[H])C([H])([H])[H])c([H])c2[H])c([H])c1[H]


 35 39  0  0  0  0  0  0  0  0999 V2000
  -18.5504   14.6892  -22.2946 C   0  0  0  0  0  0  0  0  0  0  0  0
  -17.8491   14.4084  -21.1181 O   0  0  0  0  0  0  0  0  0  0  0  0
  -17.5048   13.1289  -20.7169 C   0  0  0  0  0  0  0  0  0  0  0  0
  -17.2363   12.9248  -19.3847 C   0  0  0  0  0  0  0  0  0  0  0  0
  -16.8829   11.6794  -18.8832 C   0  0  0  0  0  0  0  0  0  0  0  0
  -16.8111   10.6411  -19.7887 C   0  0  0  0  0  0  0  0  0  0  0  0
  -16.4560    9.3841  -19.2920 O   0  0  0  0  0  0  0  0  0  0  0  0
  -17.0796   10.8370  -21.1319 C   0  0  0  0  0  0  0  0  0  0  0  0
  -17.4212   12.0715  -21.5773 C   0  0  0  0  0  0  0  0  0  0  0  0
  -17.7579   12.2781  -23.3199 S   0  0  0  0  0  0  0  0  0  0  0  0
  -18.0623   14.0752  -23.5467 C   0  0  0  0  0  0  0  0  0  0  0  0
  -16.3979    8.5974  -19.9563 H   0  0  0  0  0  0  0  0  0  0  0  0
  -16.9488   14.7239  -24.2296 C   0  0  0  0  0  0  0  0  0  0  0  0
  -17.1108   15.2311  -25.4991 C   0  0  0  0  0  0  0  0  0  0  0  0
  -16.0558   15.8541  -26.1678 C   0  0  0  0  0  0  0  0  0  0  0  0
  -14.8227   15.9729  -25.5626 C   0  0  0  0  0  0  0  0  0  0  0  0
  -13.7703   16.6044  -26.2528 O   0  0  0  0  0  0  0  0  0  0  0  0
  -14.6441   15.4750  -24.3027 C   0  0  0  0  0  0  0  0  0  0  0  0
  -15.6995   14.8635  -23.6604 C   0  0  0  0  0  0  0  0  0  0  0  0
  -13.7056   17.6129  -26.1035 H   0  0  0  0  0  0  0  0  0  0  0  0
  -18.8411   18.9303  -22.6121 C   0  0  0  0  0  0  0  0  0  0  0  0
  -18.0753   18.3589  -21.6103 C   0  0  0  0  0  0  0  0  0  0  0  0
  -18.0149   16.9822  -21.5445 C   0  0  0  0  0  0  0  0  0  0  0  0
  -18.6773   16.1514  -22.4244 C   0  0  0  0  0  0  0  0  0  0  0  0
  -19.4302   16.7392  -23.4096 C   0  0  0  0  0  0  0  0  0  0  0  0
  -19.5085   18.1187  -23.4986 C   0  0  0  0  0  0  0  0  0  0  0  0
  -18.9279   20.3323  -22.7120 O   0  0  0  0  0  0  0  0  0  0  0  0
  -19.6597   20.9121  -23.7779 C   0  0  0  0  0  0  0  0  0  0  0  0
  -21.1493   21.0487  -21.7717 C   0  0  0  0  0  0  0  0  0  0  0  0
  -20.9678   21.3910  -23.2372 C   0  0  0  0  0  0  0  0  0  0  0  0
  -22.1224   20.9369  -23.9413 N   0  0  0  0  0  0  0  0  0  0  0  0
  -21.9248   20.6448  -25.3276 C   0  0  0  0  0  0  0  0  0  0  0  0
  -23.2014   19.8886  -25.7198 C   0  0  0  0  0  0  0  0  0  0  0  0
  -23.8484   19.4928  -24.4045 C   0  0  0  0  0  0  0  0  0  0  0  0
  -22.6847   19.7154  -23.4308 C   0  0  0  0  0  0  0  0  0  0  0  0
 29 30  1  0  0  0
 30 28  1  0  0  0
 28 27  1  0  0  0
 27 21  1  0  0  0
 21 22  2  0  0  0
 22 23  1  0  0  0
 23 24  2  0  0  0
 24 25  1  0  0  0
 25 26  2  0  0  0
 24  1  1  0  0  0
  1  2  1  0  0  0
  2  3  1  0  0  0
  3  4  2  0  0  0
  4  5  1  0  0  0
  5  6  2  0  0  0
  6  7  1  0  0  0
  6  8  1  0  0  0
  8  9  2  0  0  0
  9 10  1  0  0  0
 10 11  1  0  0  0
 11 13  1  0  0  0
 13 14  2  0  0  0
 14 15  1  0  0  0
 15 16  2  0  0  0
 16 17  1  0  0  0
 16 18  1  0  0  0
 18 19  2  0  0  0
 30 31  1  0  0  0
 31 32  1  0  0  0
 32 33  1  0  0  0
 33 34  1  0  0  0
 34 35  1  0  0  0
 26 21  1  0  0  0
 11  1  1  0  0  0
 19 13  1  0  0  0
 35 31  1  0  0  0
  9  3  1  0  0  0
  7 12  1  0  0  0
 17 20  1  0  0  0
M  END
> <minimizedAffinity>
-7.91250

> <CNNscore>
0.1827355921

> <CNNaffinity>
6.4688401222

> <CNN_VS>
1.1820873022

> <CNNaffinity_variance>
0.0249471609

$$$$
[H]Oc1c([H])c([H])c([C@@]2([H])Sc3c([H])c(O[H])c([H])c([H])c3O[C@@]2([H])c2c([H])c([H])c(OC([H])([H])[C@@]([H])(N3C([H])([H])C([H])([H])C([H])([H])C3([H])[H])C([H])([H])[H])c([H])c2[H])c([H])c1[H]


 35 39  0  0  0  0  0  0  0  0999 V2000
  -18.9758   15.8138  -19.1788 C   0  0  0  0  0  0  0  0  0  0  0  0
  -19.2454   14.7415  -20.0346 O   0  0  0  0  0  0  0  0  0  0  0  0
  -18.5500   13.5447  -20.0074 C   0  0  0  0  0  0  0  0  0  0  0  0
  -18.5764   12.7617  -21.1365 C   0  0  0  0  0  0  0  0  0  0  0  0
  -17.9113   11.5452  -21.2093 C   0  0  0  0  0  0  0  0  0  0  0  0
  -17.2136   11.1489  -20.0871 C   0  0  0  0  0  0  0  0  0  0  0  0
  -16.5413    9.9256  -20.1522 O   0  0  0  0  0  0  0  0  0  0  0  0
  -17.1813   11.9305  -18.9458 C   0  0  0  0  0  0  0  0  0  0  0  0
  -17.8461   13.1122  -18.9198 C   0  0  0  0  0  0  0  0  0  0  0  0
  -17.7777   14.0878  -17.4244 S   0  0  0  0  0  0  0  0  0  0  0  0
  -18.8750   15.5282  -17.7327 C   0  0  0  0  0  0  0  0  0  0  0  0
  -16.0149    9.6151  -19.3215 H   0  0  0  0  0  0  0  0  0  0  0  0
  -20.1167   15.4260  -16.9746 C   0  0  0  0  0  0  0  0  0  0  0  0
  -20.5877   16.5051  -16.2613 C   0  0  0  0  0  0  0  0  0  0  0  0
  -21.7737   16.4247  -15.5295 C   0  0  0  0  0  0  0  0  0  0  0  0
  -22.4995   15.2527  -15.5085 C   0  0  0  0  0  0  0  0  0  0  0  0
  -23.6934   15.1905  -14.7645 O   0  0  0  0  0  0  0  0  0  0  0  0
  -22.0465   14.1717  -16.2109 C   0  0  0  0  0  0  0  0  0  0  0  0
  -20.8729   14.2728  -16.9269 C   0  0  0  0  0  0  0  0  0  0  0  0
  -24.5337   15.4543  -15.2820 H   0  0  0  0  0  0  0  0  0  0  0  0
  -21.8677   18.8440  -19.9707 C   0  0  0  0  0  0  0  0  0  0  0  0
  -22.1663   17.5156  -20.2208 C   0  0  0  0  0  0  0  0  0  0  0  0
  -21.1973   16.5708  -19.9531 C   0  0  0  0  0  0  0  0  0  0  0  0
  -19.9512   16.8841  -19.4507 C   0  0  0  0  0  0  0  0  0  0  0  0
  -19.6770   18.2070  -19.2099 C   0  0  0  0  0  0  0  0  0  0  0  0
  -20.6313   19.1760  -19.4698 C   0  0  0  0  0  0  0  0  0  0  0  0
  -22.8307   19.8379  -20.2312 O   0  0  0  0  0  0  0  0  0  0  0  0
  -23.7765   19.6389  -21.2675 C   0  0  0  0  0  0  0  0  0  0  0  0
  -24.0160   21.3902  -23.0388 C   0  0  0  0  0  0  0  0  0  0  0  0
  -23.2126   20.2108  -22.5276 C   0  0  0  0  0  0  0  0  0  0  0  0
  -23.0573   19.2854  -23.6019 N   0  0  0  0  0  0  0  0  0  0  0  0
  -21.7395   18.7567  -23.7755 C   0  0  0  0  0  0  0  0  0  0  0  0
  -21.9483   17.5861  -24.7460 C   0  0  0  0  0  0  0  0  0  0  0  0
  -23.4444   17.3274  -24.7401 C   0  0  0  0  0  0  0  0  0  0  0  0
  -23.8674   18.1026  -23.4863 C   0  0  0  0  0  0  0  0  0  0  0  0
 29 30  1  0  0  0
 30 28  1  0  0  0
 28 27  1  0  0  0
 27 21  1  0  0  0
 21 22  2  0  0  0
 22 23  1  0  0  0
 23 24  2  0  0  0
 24 25  1  0  0  0
 25 26  2  0  0  0
 24  1  1  0  0  0
  1  2  1  0  0  0
  2  3  1  0  0  0
  3  4  2  0  0  0
  4  5  1  0  0  0
  5  6  2  0  0  0
  6  7  1  0  0  0
  6  8  1  0  0  0
  8  9  2  0  0  0
  9 10  1  0  0  0
 10 11  1  0  0  0
 11 13  1  0  0  0
 13 14  2  0  0  0
 14 15  1  0  0  0
 15 16  2  0  0  0
 16 17  1  0  0  0
 16 18  1  0  0  0
 18 19  2  0  0  0
 30 31  1  0  0  0
 31 32  1  0  0  0
 32 33  1  0  0  0
 33 34  1  0  0  0
 34 35  1  0  0  0
 26 21  1  0  0  0
 11  1  1  0  0  0
 19 13  1  0  0  0
 35 31  1  0  0  0
  9  3  1  0  0  0
  7 12  1  0  0  0
 17 20  1  0  0  0
M  END
> <minimizedAffinity>
-5.62196

> <CNNscore>
0.1631377488

> <CNNaffinity>
5.9322977066

> <CNN_VS>
0.9677817225

> <CNNaffinity_variance>
0.0931585431

$$$$
[H]Oc1c([H])c([H])c([C@@]2([H])Sc3c([H])c(O[H])c([H])c([H])c3O[C@@]2([H])c2c([H])c([H])c(OC([H])([H])[C@@]([H])(N3C([H])([H])C([H])([H])C([H])([H])C3([H])[H])C([H])([H])[H])c([H])c2[H])c([H])c1[H]


 35 39  0  0  0  0  0  0  0  0999 V2000
  -19.5870   16.1707  -19.5962 C   0  0  0  0  0  0  0  0  0  0  0  0
  -19.1669   16.6954  -18.3702 O   0  0  0  0  0  0  0  0  0  0  0  0
  -19.9249   16.6426  -17.2129 C   0  0  0  0  0  0  0  0  0  0  0  0
  -19.6417   17.5481  -16.2188 C   0  0  0  0  0  0  0  0  0  0  0  0
  -20.3444   17.5770  -15.0218 C   0  0  0  0  0  0  0  0  0  0  0  0
  -21.3519   16.6470  -14.8687 C   0  0  0  0  0  0  0  0  0  0  0  0
  -22.0641   16.6693  -13.6666 O   0  0  0  0  0  0  0  0  0  0  0  0
  -21.6441   15.7313  -15.8640 C   0  0  0  0  0  0  0  0  0  0  0  0
  -20.9312   15.7400  -17.0175 C   0  0  0  0  0  0  0  0  0  0  0  0
  -21.3425   14.5386  -18.2746 S   0  0  0  0  0  0  0  0  0  0  0  0
  -20.1044   14.7868  -19.6084 C   0  0  0  0  0  0  0  0  0  0  0  0
  -22.8205   15.9804  -13.5366 H   0  0  0  0  0  0  0  0  0  0  0  0
  -19.1318   13.7006  -19.6435 C   0  0  0  0  0  0  0  0  0  0  0  0
  -18.5189   13.2771  -18.4859 C   0  0  0  0  0  0  0  0  0  0  0  0
  -17.5851   12.2397  -18.5012 C   0  0  0  0  0  0  0  0  0  0  0  0
  -17.2579   11.6164  -19.6867 C   0  0  0  0  0  0  0  0  0  0  0  0
  -16.3136   10.5719  -19.6824 O   0  0  0  0  0  0  0  0  0  0  0  0
  -17.8566   12.0241  -20.8453 C   0  0  0  0  0  0  0  0  0  0  0  0
  -18.7761   13.0505  -20.8075 C   0  0  0  0  0  0  0  0  0  0  0  0
  -16.7081    9.6396  -19.5457 H   0  0  0  0  0  0  0  0  0  0  0  0
  -16.5126   16.7126  -22.4992 C   0  0  0  0  0  0  0  0  0  0  0  0
  -17.8338   16.6027  -22.8979 C   0  0  0  0  0  0  0  0  0  0  0  0
  -18.7934   16.4238  -21.9230 C   0  0  0  0  0  0  0  0  0  0  0  0
  -18.5017   16.3496  -20.5766 C   0  0  0  0  0  0  0  0  0  0  0  0
  -17.1857   16.4613  -20.2040 C   0  0  0  0  0  0  0  0  0  0  0  0
  -16.2022   16.6412  -21.1618 C   0  0  0  0  0  0  0  0  0  0  0  0
  -15.5040   16.8959  -23.4647 O   0  0  0  0  0  0  0  0  0  0  0  0
  -15.6477   16.3055  -24.7449 C   0  0  0  0  0  0  0  0  0  0  0  0
  -13.6867   14.9286  -25.4664 C   0  0  0  0  0  0  0  0  0  0  0  0
  -15.0007   14.9591  -24.7111 C   0  0  0  0  0  0  0  0  0  0  0  0
  -15.8066   13.8824  -25.1867 N   0  0  0  0  0  0  0  0  0  0  0  0
  -16.7692   13.3750  -24.2582 C   0  0  0  0  0  0  0  0  0  0  0  0
  -17.6755   12.4932  -25.1281 C   0  0  0  0  0  0  0  0  0  0  0  0
  -17.3563   12.8860  -26.5595 C   0  0  0  0  0  0  0  0  0  0  0  0
  -16.6067   14.2053  -26.3375 C   0  0  0  0  0  0  0  0  0  0  0  0
 29 30  1  0  0  0
 30 28  1  0  0  0
 28 27  1  0  0  0
 27 21  1  0  0  0
 21 22  2  0  0  0
 22 23  1  0  0  0
 23 24  2  0  0  0
 24 25  1  0  0  0
 25 26  2  0  0  0
 24  1  1  0  0  0
  1  2  1  0  0  0
  2  3  1  0  0  0
  3  4  2  0  0  0
  4  5  1  0  0  0
  5  6  2  0  0  0
  6  7  1  0  0  0
  6  8  1  0  0  0
  8  9  2  0  0  0
  9 10  1  0  0  0
 10 11  1  0  0  0
 11 13  1  0  0  0
 13 14  2  0  0  0
 14 15  1  0  0  0
 15 16  2  0  0  0
 16 17  1  0  0  0
 16 18  1  0  0  0
 18 19  2  0  0  0
 30 31  1  0  0  0
 31 32  1  0  0  0
 32 33  1  0  0  0
 33 34  1  0  0  0
 34 35  1  0  0  0
 26 21  1  0  0  0
 11  1  1  0  0  0
 19 13  1  0  0  0
 35 31  1  0  0  0
  9  3  1  0  0  0
  7 12  1  0  0  0
 17 20  1  0  0  0
M  END
> <minimizedAffinity>
-9.21676

> <CNNscore>
0.1477822810

> <CNNaffinity>
6.5496277809

> <CNN_VS>
0.9679189324

> <CNNaffinity_variance>
0.0951142386

$$$$
[H]Oc1c([H])c([H])c([C@@]2([H])Sc3c([H])c(O[H])c([H])c([H])c3O[C@@]2([H])c2c([H])c([H])c(OC([H])([H])[C@@]([H])(N3C([H])([H])C([H])([H])C([H])([H])C3([H])[H])C([H])([H])[H])c([H])c2[H])c([H])c1[H]


 35 39  0  0  0  0  0  0  0  0999 V2000
  -18.3791   15.9005  -19.9493 C   0  0  0  0  0  0  0  0  0  0  0  0
  -18.5710   14.7048  -20.6481 O   0  0  0  0  0  0  0  0  0  0  0  0
  -18.0696   13.4835  -20.2311 C   0  0  0  0  0  0  0  0  0  0  0  0
  -17.9224   12.4948  -21.1741 C   0  0  0  0  0  0  0  0  0  0  0  0
  -17.4282   11.2369  -20.8566 C   0  0  0  0  0  0  0  0  0  0  0  0
  -17.0864   11.0167  -19.5383 C   0  0  0  0  0  0  0  0  0  0  0  0
  -16.5881    9.7530  -19.2104 O   0  0  0  0  0  0  0  0  0  0  0  0
  -17.2312   12.0061  -18.5819 C   0  0  0  0  0  0  0  0  0  0  0  0
  -17.7183   13.2206  -18.9376 C   0  0  0  0  0  0  0  0  0  0  0  0
  -17.8894   14.4674  -17.6692 S   0  0  0  0  0  0  0  0  0  0  0  0
  -18.6752   15.9037  -18.5018 C   0  0  0  0  0  0  0  0  0  0  0  0
  -16.3279    9.5725  -18.2289 H   0  0  0  0  0  0  0  0  0  0  0  0
  -20.0671   16.0609  -18.0958 C   0  0  0  0  0  0  0  0  0  0  0  0
  -20.5494   17.2962  -17.7265 C   0  0  0  0  0  0  0  0  0  0  0  0
  -21.8784   17.4647  -17.3343 C   0  0  0  0  0  0  0  0  0  0  0  0
  -22.7379   16.3870  -17.3100 C   0  0  0  0  0  0  0  0  0  0  0  0
  -24.0751   16.5763  -16.9114 O   0  0  0  0  0  0  0  0  0  0  0  0
  -22.2760   15.1535  -17.6734 C   0  0  0  0  0  0  0  0  0  0  0  0
  -20.9599   15.0094  -18.0574 C   0  0  0  0  0  0  0  0  0  0  0  0
  -24.7193   16.8039  -17.6709 H   0  0  0  0  0  0  0  0  0  0  0  0
  -20.4048   19.0591  -21.9722 C   0  0  0  0  0  0  0  0  0  0  0  0
  -19.2463   19.3196  -21.2605 C   0  0  0  0  0  0  0  0  0  0  0  0
  -18.6282   18.2665  -20.6185 C   0  0  0  0  0  0  0  0  0  0  0  0
  -19.1062   16.9727  -20.6512 C   0  0  0  0  0  0  0  0  0  0  0  0
  -20.2556   16.7374  -21.3628 C   0  0  0  0  0  0  0  0  0  0  0  0
  -20.8966   17.7761  -22.0166 C   0  0  0  0  0  0  0  0  0  0  0  0
  -21.0650   20.1079  -22.6411 O   0  0  0  0  0  0  0  0  0  0  0  0
  -21.8266   21.0414  -21.8951 C   0  0  0  0  0  0  0  0  0  0  0  0
  -24.0751   21.3721  -22.9424 C   0  0  0  0  0  0  0  0  0  0  0  0
  -23.2553   20.6046  -21.9243 C   0  0  0  0  0  0  0  0  0  0  0  0
  -23.9380   20.6659  -20.6733 N   0  0  0  0  0  0  0  0  0  0  0  0
  -24.2310   19.4036  -20.0675 C   0  0  0  0  0  0  0  0  0  0  0  0
  -24.6444   19.7798  -18.6381 C   0  0  0  0  0  0  0  0  0  0  0  0
  -24.1819   21.2143  -18.4554 C   0  0  0  0  0  0  0  0  0  0  0  0
  -23.2187   21.3611  -19.6397 C   0  0  0  0  0  0  0  0  0  0  0  0
 29 30  1  0  0  0
 30 28  1  0  0  0
 28 27  1  0  0  0
 27 21  1  0  0  0
 21 22  2  0  0  0
 22 23  1  0  0  0
 23 24  2  0  0  0
 24 25  1  0  0  0
 25 26  2  0  0  0
 24  1  1  0  0  0
  1  2  1  0  0  0
  2  3  1  0  0  0
  3  4  2  0  0  0
  4  5  1  0  0  0
  5  6  2  0  0  0
  6  7  1  0  0  0
  6  8  1  0  0  0
  8  9  2  0  0  0
  9 10  1  0  0  0
 10 11  1  0  0  0
 11 13  1  0  0  0
 13 14  2  0  0  0
 14 15  1  0  0  0
 15 16  2  0  0  0
 16 17  1  0  0  0
 16 18  1  0  0  0
 18 19  2  0  0  0
 30 31  1  0  0  0
 31 32  1  0  0  0
 32 33  1  0  0  0
 33 34  1  0  0  0
 34 35  1  0  0  0
 26 21  1  0  0  0
 11  1  1  0  0  0
 19 13  1  0  0  0
 35 31  1  0  0  0
  9  3  1  0  0  0
  7 12  1  0  0  0
 17 20  1  0  0  0
M  END
> <minimizedAffinity>
-5.66876

> <CNNscore>
0.1364479065

> <CNNaffinity>
5.9230718613

> <CNN_VS>
0.8081907630

> <CNNaffinity_variance>
0.1669902354

$$$$
[H]Oc1c([H])c([H])c([C@@]2([H])Sc3c([H])c(O[H])c([H])c([H])c3O[C@@]2([H])c2c([H])c([H])c(OC([H])([H])[C@@]([H])(N3C([H])([H])C([H])([H])C([H])([H])C3([H])[H])C([H])([H])[H])c([H])c2[H])c([H])c1[H]


 35 39  0  0  0  0  0  0  0  0999 V2000
  -17.7533   13.7813  -22.4421 C   0  0  0  0  0  0  0  0  0  0  0  0
  -16.3752   13.8895  -22.6522 O   0  0  0  0  0  0  0  0  0  0  0  0
  -15.8116   14.6166  -23.6868 C   0  0  0  0  0  0  0  0  0  0  0  0
  -14.5294   14.3018  -24.0679 C   0  0  0  0  0  0  0  0  0  0  0  0
  -13.8767   14.9715  -25.0940 C   0  0  0  0  0  0  0  0  0  0  0  0
  -14.5769   15.9796  -25.7238 C   0  0  0  0  0  0  0  0  0  0  0  0
  -13.9270   16.6588  -26.7578 O   0  0  0  0  0  0  0  0  0  0  0  0
  -15.8682   16.3038  -25.3469 C   0  0  0  0  0  0  0  0  0  0  0  0
  -16.4666   15.6224  -24.3386 C   0  0  0  0  0  0  0  0  0  0  0  0
  -18.1342   16.0760  -23.8849 S   0  0  0  0  0  0  0  0  0  0  0  0
  -18.5454   15.0285  -22.4333 C   0  0  0  0  0  0  0  0  0  0  0  0
  -14.4370   17.4153  -27.2388 H   0  0  0  0  0  0  0  0  0  0  0  0
  -18.5671   15.8080  -21.2008 C   0  0  0  0  0  0  0  0  0  0  0  0
  -17.3974   16.0778  -20.5269 C   0  0  0  0  0  0  0  0  0  0  0  0
  -17.3998   16.8213  -19.3456 C   0  0  0  0  0  0  0  0  0  0  0  0
  -18.5843   17.3022  -18.8292 C   0  0  0  0  0  0  0  0  0  0  0  0
  -18.5669   18.0502  -17.6364 O   0  0  0  0  0  0  0  0  0  0  0  0
  -19.7548   17.0437  -19.4852 C   0  0  0  0  0  0  0  0  0  0  0  0
  -19.7297   16.3074  -20.6503 C   0  0  0  0  0  0  0  0  0  0  0  0
  -18.4589   19.0578  -17.7653 H   0  0  0  0  0  0  0  0  0  0  0  0
  -18.3079   11.4857  -18.8932 C   0  0  0  0  0  0  0  0  0  0  0  0
  -17.0774   11.4992  -19.5273 C   0  0  0  0  0  0  0  0  0  0  0  0
  -16.9469   12.2531  -20.6752 C   0  0  0  0  0  0  0  0  0  0  0  0
  -17.9780   12.9907  -21.2193 C   0  0  0  0  0  0  0  0  0  0  0  0
  -19.1888   12.9631  -20.5741 C   0  0  0  0  0  0  0  0  0  0  0  0
  -19.3477   12.2146  -19.4201 C   0  0  0  0  0  0  0  0  0  0  0  0
  -18.4809   10.7280  -17.7188 O   0  0  0  0  0  0  0  0  0  0  0  0
  -19.7227   10.7698  -17.0377 C   0  0  0  0  0  0  0  0  0  0  0  0
  -20.0751   10.8763  -14.5625 C   0  0  0  0  0  0  0  0  0  0  0  0
  -19.5444   11.5807  -15.7953 C   0  0  0  0  0  0  0  0  0  0  0  0
  -20.1123   12.8887  -15.8334 N   0  0  0  0  0  0  0  0  0  0  0  0
  -19.2961   13.8988  -16.4334 C   0  0  0  0  0  0  0  0  0  0  0  0
  -20.2651   15.0729  -16.6285 C   0  0  0  0  0  0  0  0  0  0  0  0
  -21.6509   14.4768  -16.4577 C   0  0  0  0  0  0  0  0  0  0  0  0
  -21.3392   12.9801  -16.5784 C   0  0  0  0  0  0  0  0  0  0  0  0
 29 30  1  0  0  0
 30 28  1  0  0  0
 28 27  1  0  0  0
 27 21  1  0  0  0
 21 22  2  0  0  0
 22 23  1  0  0  0
 23 24  2  0  0  0
 24 25  1  0  0  0
 25 26  2  0  0  0
 24  1  1  0  0  0
  1  2  1  0  0  0
  2  3  1  0  0  0
  3  4  2  0  0  0
  4  5  1  0  0  0
  5  6  2  0  0  0
  6  7  1  0  0  0
  6  8  1  0  0  0
  8  9  2  0  0  0
  9 10  1  0  0  0
 10 11  1  0  0  0
 11 13  1  0  0  0
 13 14  2  0  0  0
 14 15  1  0  0  0
 15 16  2  0  0  0
 16 17  1  0  0  0
 16 18  1  0  0  0
 18 19  2  0  0  0
 30 31  1  0  0  0
 31 32  1  0  0  0
 32 33  1  0  0  0
 33 34  1  0  0  0
 34 35  1  0  0  0
 26 21  1  0  0  0
 11  1  1  0  0  0
 19 13  1  0  0  0
 35 31  1  0  0  0
  9  3  1  0  0  0
  7 12  1  0  0  0
 17 20  1  0  0  0
M  END
> <minimizedAffinity>
-8.38899

> <CNNscore>
0.1173256934

> <CNNaffinity>
6.4611043930

> <CNN_VS>
0.7580535412

> <CNNaffinity_variance>
0.1220945343

$$$$
[H]Oc1c([H])c([H])c([C@@]2([H])Sc3c([H])c(O[H])c([H])c([H])c3O[C@@]2([H])c2c([H])c([H])c(OC([H])([H])[C@@]([H])(N3C([H])([H])C([H])([H])C([H])([H])C3([H])[H])C([H])([H])[H])c([H])c2[H])c([H])c1[H]


 35 39  0  0  0  0  0  0  0  0999 V2000
  -20.3741   12.2316  -16.2425 C   0  0  0  0  0  0  0  0  0  0  0  0
  -19.6532   12.1073  -15.0509 O   0  0  0  0  0  0  0  0  0  0  0  0
  -19.7058   10.9898  -14.2354 C   0  0  0  0  0  0  0  0  0  0  0  0
  -19.3415   11.1388  -12.9188 C   0  0  0  0  0  0  0  0  0  0  0  0
  -19.3604   10.0798  -12.0212 C   0  0  0  0  0  0  0  0  0  0  0  0
  -19.7651    8.8553  -12.5113 C   0  0  0  0  0  0  0  0  0  0  0  0
  -19.7869    7.7841  -11.6142 O   0  0  0  0  0  0  0  0  0  0  0  0
  -20.1336    8.6957  -13.8355 C   0  0  0  0  0  0  0  0  0  0  0  0
  -20.0996    9.7587  -14.6768 C   0  0  0  0  0  0  0  0  0  0  0  0
  -20.5828    9.5058  -16.3783 S   0  0  0  0  0  0  0  0  0  0  0  0
  -20.2960   11.1180  -17.2103 C   0  0  0  0  0  0  0  0  0  0  0  0
  -20.0872    6.8619  -11.9652 H   0  0  0  0  0  0  0  0  0  0  0  0
  -19.1341   11.0660  -18.0902 C   0  0  0  0  0  0  0  0  0  0  0  0
  -19.0455   11.9065  -19.1769 C   0  0  0  0  0  0  0  0  0  0  0  0
  -17.9413   11.8697  -20.0300 C   0  0  0  0  0  0  0  0  0  0  0  0
  -16.9118   10.9828  -19.7966 C   0  0  0  0  0  0  0  0  0  0  0  0
  -15.8061   10.9601  -20.6682 O   0  0  0  0  0  0  0  0  0  0  0  0
  -16.9833   10.1412  -18.7226 C   0  0  0  0  0  0  0  0  0  0  0  0
  -18.0828   10.1943  -17.8928 C   0  0  0  0  0  0  0  0  0  0  0  0
  -15.0432   11.5875  -20.4074 H   0  0  0  0  0  0  0  0  0  0  0  0
  -19.2579   15.9317  -18.0413 C   0  0  0  0  0  0  0  0  0  0  0  0
  -18.3469   15.2312  -17.2693 C   0  0  0  0  0  0  0  0  0  0  0  0
  -18.7550   14.0408  -16.7039 C   0  0  0  0  0  0  0  0  0  0  0  0
  -20.0205   13.5172  -16.8695 C   0  0  0  0  0  0  0  0  0  0  0  0
  -20.9070   14.2281  -17.6389 C   0  0  0  0  0  0  0  0  0  0  0  0
  -20.5239   15.4259  -18.2182 C   0  0  0  0  0  0  0  0  0  0  0  0
  -18.8791   17.1511  -18.6353 O   0  0  0  0  0  0  0  0  0  0  0  0
  -19.3760   17.4861  -19.9193 C   0  0  0  0  0  0  0  0  0  0  0  0
  -18.0138   18.5758  -21.7135 C   0  0  0  0  0  0  0  0  0  0  0  0
  -18.2661   17.3183  -20.9056 C   0  0  0  0  0  0  0  0  0  0  0  0
  -18.4191   16.2325  -21.8180 N   0  0  0  0  0  0  0  0  0  0  0  0
  -18.4878   16.5930  -23.2006 C   0  0  0  0  0  0  0  0  0  0  0  0
  -18.3168   15.2530  -23.9290 C   0  0  0  0  0  0  0  0  0  0  0  0
  -17.7872   14.2942  -22.8776 C   0  0  0  0  0  0  0  0  0  0  0  0
  -17.3448   15.2766  -21.7863 C   0  0  0  0  0  0  0  0  0  0  0  0
 29 30  1  0  0  0
 30 28  1  0  0  0
 28 27  1  0  0  0
 27 21  1  0  0  0
 21 22  2  0  0  0
 22 23  1  0  0  0
 23 24  2  0  0  0
 24 25  1  0  0  0
 25 26  2  0  0  0
 24  1  1  0  0  0
  1  2  1  0  0  0
  2  3  1  0  0  0
  3  4  2  0  0  0
  4  5  1  0  0  0
  5  6  2  0  0  0
  6  7  1  0  0  0
  6  8  1  0  0  0
  8  9  2  0  0  0
  9 10  1  0  0  0
 10 11  1  0  0  0
 11 13  1  0  0  0
 13 14  2  0  0  0
 14 15  1  0  0  0
 15 16  2  0  0  0
 16 17  1  0  0  0
 16 18  1  0  0  0
 18 19  2  0  0  0
 30 31  1  0  0  0
 31 32  1  0  0  0
 32 33  1  0  0  0
 33 34  1  0  0  0
 34 35  1  0  0  0
 26 21  1  0  0  0
 11  1  1  0  0  0
 19 13  1  0  0  0
 35 31  1  0  0  0
  9  3  1  0  0  0
  7 12  1  0  0  0
 17 20  1  0  0  0
M  END
> <minimizedAffinity>
-6.85731

> <CNNscore>
0.1093808636

> <CNNaffinity>
6.2491369247

> <CNN_VS>
0.6835359931

> <CNNaffinity_variance>
0.0773444325

$$$$
[H]Oc1c([H])c([H])c([C@@]2([H])Sc3c([H])c(O[H])c([H])c([H])c3O[C@@]2([H])c2c([H])c([H])c(OC([H])([H])[C@@]([H])(N3C([H])([H])C([H])([H])C([H])([H])C3([H])[H])C([H])([H])[H])c([H])c2[H])c([H])c1[H]


 35 39  0  0  0  0  0  0  0  0999 V2000
  -18.1455   15.3534  -19.0473 C   0  0  0  0  0  0  0  0  0  0  0  0
  -18.4831   14.0100  -19.2369 O   0  0  0  0  0  0  0  0  0  0  0  0
  -19.0278   13.2088  -18.2479 C   0  0  0  0  0  0  0  0  0  0  0  0
  -18.9025   11.8471  -18.3841 C   0  0  0  0  0  0  0  0  0  0  0  0
  -19.4137   10.9594  -17.4470 C   0  0  0  0  0  0  0  0  0  0  0  0
  -20.0614   11.5072  -16.3590 C   0  0  0  0  0  0  0  0  0  0  0  0
  -20.5789   10.6204  -15.4110 O   0  0  0  0  0  0  0  0  0  0  0  0
  -20.1924   12.8769  -16.2134 C   0  0  0  0  0  0  0  0  0  0  0  0
  -19.6771   13.7065  -17.1542 C   0  0  0  0  0  0  0  0  0  0  0  0
  -19.8710   15.4680  -16.9256 S   0  0  0  0  0  0  0  0  0  0  0  0
  -19.1605   16.2356  -18.4354 C   0  0  0  0  0  0  0  0  0  0  0  0
  -21.0659   11.0142  -14.5916 H   0  0  0  0  0  0  0  0  0  0  0  0
  -20.2027   16.7723  -19.3031 C   0  0  0  0  0  0  0  0  0  0  0  0
  -20.1459   18.0786  -19.7336 C   0  0  0  0  0  0  0  0  0  0  0  0
  -21.1351   18.6090  -20.5635 C   0  0  0  0  0  0  0  0  0  0  0  0
  -22.1950   17.8263  -20.9695 C   0  0  0  0  0  0  0  0  0  0  0  0
  -23.1833   18.3788  -21.8066 O   0  0  0  0  0  0  0  0  0  0  0  0
  -22.2672   16.5274  -20.5516 C   0  0  0  0  0  0  0  0  0  0  0  0
  -21.2795   16.0238  -19.7323 C   0  0  0  0  0  0  0  0  0  0  0  0
  -23.0005   18.2797  -22.8068 H   0  0  0  0  0  0  0  0  0  0  0  0
  -16.8204   16.8984  -22.7929 C   0  0  0  0  0  0  0  0  0  0  0  0
  -17.8857   16.0157  -22.7426 C   0  0  0  0  0  0  0  0  0  0  0  0
  -18.2759   15.5389  -21.5082 C   0  0  0  0  0  0  0  0  0  0  0  0
  -17.6591   15.8973  -20.3274 C   0  0  0  0  0  0  0  0  0  0  0  0
  -16.6056   16.7736  -20.4007 C   0  0  0  0  0  0  0  0  0  0  0  0
  -16.1930   17.2676  -21.6267 C   0  0  0  0  0  0  0  0  0  0  0  0
  -16.3922   17.4072  -24.0343 O   0  0  0  0  0  0  0  0  0  0  0  0
  -16.6597   16.6758  -25.2181 C   0  0  0  0  0  0  0  0  0  0  0  0
  -15.1285   15.7791  -26.9826 C   0  0  0  0  0  0  0  0  0  0  0  0
  -15.4760   15.8108  -25.5075 C   0  0  0  0  0  0  0  0  0  0  0  0
  -15.5783   14.4634  -25.0505 N   0  0  0  0  0  0  0  0  0  0  0  0
  -15.0084   14.2028  -23.7646 C   0  0  0  0  0  0  0  0  0  0  0  0
  -15.5479   12.8106  -23.4094 C   0  0  0  0  0  0  0  0  0  0  0  0
  -16.6896   12.5675  -24.3802 C   0  0  0  0  0  0  0  0  0  0  0  0
  -16.9281   13.9873  -24.9082 C   0  0  0  0  0  0  0  0  0  0  0  0
 29 30  1  0  0  0
 30 28  1  0  0  0
 28 27  1  0  0  0
 27 21  1  0  0  0
 21 22  2  0  0  0
 22 23  1  0  0  0
 23 24  2  0  0  0
 24 25  1  0  0  0
 25 26  2  0  0  0
 24  1  1  0  0  0
  1  2  1  0  0  0
  2  3  1  0  0  0
  3  4  2  0  0  0
  4  5  1  0  0  0
  5  6  2  0  0  0
  6  7  1  0  0  0
  6  8  1  0  0  0
  8  9  2  0  0  0
  9 10  1  0  0  0
 10 11  1  0  0  0
 11 13  1  0  0  0
 13 14  2  0  0  0
 14 15  1  0  0  0
 15 16  2  0  0  0
 16 17  1  0  0  0
 16 18  1  0  0  0
 18 19  2  0  0  0
 30 31  1  0  0  0
 31 32  1  0  0  0
 32 33  1  0  0  0
 33 34  1  0  0  0
 34 35  1  0  0  0
 26 21  1  0  0  0
 11  1  1  0  0  0
 19 13  1  0  0  0
 35 31  1  0  0  0
  9  3  1  0  0  0
  7 12  1  0  0  0
 17 20  1  0  0  0
M  END
> <minimizedAffinity>
-8.02185

> <CNNscore>
0.1033294424

> <CNNaffinity>
6.3222751617

> <CNN_VS>
0.6532771587

> <CNNaffinity_variance>
0.2027930915

$$$$
[H]Oc1c([H])c([H])c(C([H])=C2C(=O)N(c3c([H])c([H])c([H])c([H])c3[H])C2=O)c([H])c1O[H]


 23 25  0  0  0  0  0  0  0  0999 V2000
  -15.8615   12.2300  -22.9190 C   0  0  0  0  0  0  0  0  0  0  0  0
  -16.5127   11.9390  -21.8097 C   0  0  0  0  0  0  0  0  0  0  0  0
  -16.4981   10.8150  -20.8485 C   0  0  0  0  0  0  0  0  0  0  0  0
  -15.7900    9.7790  -20.8281 O   0  0  0  0  0  0  0  0  0  0  0  0
  -17.5226   11.3809  -20.0649 N   0  0  0  0  0  0  0  0  0  0  0  0
  -17.5675   12.4775  -20.9653 C   0  0  0  0  0  0  0  0  0  0  0  0
  -18.3053   13.5242  -20.9611 O   0  0  0  0  0  0  0  0  0  0  0  0
  -16.8009   17.0228  -25.7501 O   0  0  0  0  0  0  0  0  0  0  0  0
  -16.5593   15.8483  -25.0164 C   0  0  0  0  0  0  0  0  0  0  0  0
  -16.9268   14.6323  -25.5711 C   0  0  0  0  0  0  0  0  0  0  0  0
  -16.7030   13.4606  -24.8765 C   0  0  0  0  0  0  0  0  0  0  0  0
  -16.1188   13.4446  -23.6329 C   0  0  0  0  0  0  0  0  0  0  0  0
  -15.7506   14.6481  -23.0731 C   0  0  0  0  0  0  0  0  0  0  0  0
  -15.9740   15.8432  -23.7704 C   0  0  0  0  0  0  0  0  0  0  0  0
  -15.5949   17.0389  -23.1859 O   0  0  0  0  0  0  0  0  0  0  0  0
  -16.5710   17.9396  -25.4315 H   0  0  0  0  0  0  0  0  0  0  0  0
  -15.7223   17.9235  -23.6205 H   0  0  0  0  0  0  0  0  0  0  0  0
  -18.2379   11.0372  -18.8741 C   0  0  0  0  0  0  0  0  0  0  0  0
  -18.1140    9.7889  -18.2995 C   0  0  0  0  0  0  0  0  0  0  0  0
  -18.8008    9.4435  -17.1468 C   0  0  0  0  0  0  0  0  0  0  0  0
  -19.6408   10.3409  -16.5250 C   0  0  0  0  0  0  0  0  0  0  0  0
  -19.7695   11.5901  -17.0936 C   0  0  0  0  0  0  0  0  0  0  0  0
  -19.0819   11.9288  -18.2435 C   0  0  0  0  0  0  0  0  0  0  0  0
  8  9  1  0  0  0
  9 10  2  0  0  0
 10 11  1  0  0  0
 11 12  2  0  0  0
 12  1  1  0  0  0
  1  2  2  0  0  0
  2  3  1  0  0  0
  3  4  2  0  0  0
  3  5  1  0  0  0
  5  6  1  0  0  0
  6  7  2  0  0  0
  5 18  1  0  0  0
 18 19  2  0  0  0
 19 20  1  0  0  0
 20 21  2  0  0  0
 21 22  1  0  0  0
 22 23  2  0  0  0
 12 13  1  0  0  0
 13 14  2  0  0  0
 14 15  1  0  0  0
 14  9  1  0  0  0
  6  2  1  0  0  0
 23 18  1  0  0  0
  8 16  1  0  0  0
 15 17  1  0  0  0
M  END
> <minimizedAffinity>
-8.99582

> <CNNscore>
0.8738629222

> <CNNaffinity>
5.9601659775

> <CNN_VS>
5.2083678246

> <CNNaffinity_variance>
0.1586716920

$$$$
[H]Oc1c([H])c([H])c(C([H])=C2C(=O)N(c3c([H])c([H])c([H])c([H])c3[H])C2=O)c([H])c1O[H]


 23 25  0  0  0  0  0  0  0  0999 V2000
  -15.8129   12.0522  -22.9096 C   0  0  0  0  0  0  0  0  0  0  0  0
  -16.4808   11.8179  -21.7969 C   0  0  0  0  0  0  0  0  0  0  0  0
  -16.4832   10.7428  -20.7810 C   0  0  0  0  0  0  0  0  0  0  0  0
  -15.7783    9.7077  -20.6990 O   0  0  0  0  0  0  0  0  0  0  0  0
  -17.5173   11.3489  -20.0415 N   0  0  0  0  0  0  0  0  0  0  0  0
  -17.5462   12.3996  -20.9956 C   0  0  0  0  0  0  0  0  0  0  0  0
  -18.2812   13.4467  -21.0539 O   0  0  0  0  0  0  0  0  0  0  0  0
  -16.7405   16.6625  -26.0326 O   0  0  0  0  0  0  0  0  0  0  0  0
  -16.4774   15.5268  -25.2472 C   0  0  0  0  0  0  0  0  0  0  0  0
  -17.5261   14.6726  -24.9438 C   0  0  0  0  0  0  0  0  0  0  0  0
  -17.3009   13.5485  -24.1750 C   0  0  0  0  0  0  0  0  0  0  0  0
  -16.0566   13.2304  -23.6864 C   0  0  0  0  0  0  0  0  0  0  0  0
  -15.0082   14.0734  -23.9821 C   0  0  0  0  0  0  0  0  0  0  0  0
  -15.2268   15.2174  -24.7618 C   0  0  0  0  0  0  0  0  0  0  0  0
  -14.1567   16.0480  -25.0445 O   0  0  0  0  0  0  0  0  0  0  0  0
  -16.0502   17.3311  -26.2997 H   0  0  0  0  0  0  0  0  0  0  0  0
  -14.2368   16.8751  -25.5897 H   0  0  0  0  0  0  0  0  0  0  0  0
  -18.2507   11.0661  -18.8456 C   0  0  0  0  0  0  0  0  0  0  0  0
  -19.0602   12.0179  -18.2602 C   0  0  0  0  0  0  0  0  0  0  0  0
  -19.7756   11.7568  -17.1026 C   0  0  0  0  0  0  0  0  0  0  0  0
  -19.7052   10.5267  -16.4866 C   0  0  0  0  0  0  0  0  0  0  0  0
  -18.8983    9.5709  -17.0661 C   0  0  0  0  0  0  0  0  0  0  0  0
  -18.1871    9.8371  -18.2207 C   0  0  0  0  0  0  0  0  0  0  0  0
  8  9  1  0  0  0
  9 10  2  0  0  0
 10 11  1  0  0  0
 11 12  2  0  0  0
 12  1  1  0  0  0
  1  2  2  0  0  0
  2  3  1  0  0  0
  3  4  2  0  0  0
  3  5  1  0  0  0
  5  6  1  0  0  0
  6  7  2  0  0  0
  5 18  1  0  0  0
 18 19  2  0  0  0
 19 20  1  0  0  0
 20 21  2  0  0  0
 21 22  1  0  0  0
 22 23  2  0  0  0
 12 13  1  0  0  0
 13 14  2  0  0  0
 14 15  1  0  0  0
 14  9  1  0  0  0
  6  2  1  0  0  0
 23 18  1  0  0  0
  8 16  1  0  0  0
 15 17  1  0  0  0
M  END
> <minimizedAffinity>
-9.06821

> <CNNscore>
0.8551261425

> <CNNaffinity>
5.9566287994

> <CNN_VS>
5.0936689377

> <CNNaffinity_variance>
0.1328030825

$$$$
[H]Oc1c([H])c([H])c(C([H])=C2C(=O)N(c3c([H])c([H])c([H])c([H])c3[H])C2=O)c([H])c1O[H]


 23 25  0  0  0  0  0  0  0  0999 V2000
  -17.1253   10.2757  -19.1936 C   0  0  0  0  0  0  0  0  0  0  0  0
  -17.1982   11.0684  -20.2451 C   0  0  0  0  0  0  0  0  0  0  0  0
  -16.3423   11.3311  -21.4225 C   0  0  0  0  0  0  0  0  0  0  0  0
  -15.2523   10.8093  -21.7610 O   0  0  0  0  0  0  0  0  0  0  0  0
  -17.2143   12.3176  -21.9229 N   0  0  0  0  0  0  0  0  0  0  0  0
  -18.0623   12.0949  -20.8065 C   0  0  0  0  0  0  0  0  0  0  0  0
  -19.1726   12.6465  -20.4855 O   0  0  0  0  0  0  0  0  0  0  0  0
  -21.1522   10.2065  -15.2378 O   0  0  0  0  0  0  0  0  0  0  0  0
  -20.1499   10.1885  -16.2233 C   0  0  0  0  0  0  0  0  0  0  0  0
  -19.8144   11.3785  -16.8501 C   0  0  0  0  0  0  0  0  0  0  0  0
  -18.8342   11.3948  -17.8218 C   0  0  0  0  0  0  0  0  0  0  0  0
  -18.1605   10.2598  -18.2041 C   0  0  0  0  0  0  0  0  0  0  0  0
  -18.4872    9.0723  -17.5873 C   0  0  0  0  0  0  0  0  0  0  0  0
  -19.4813    9.0455  -16.5997 C   0  0  0  0  0  0  0  0  0  0  0  0
  -19.7908    7.8396  -15.9955 O   0  0  0  0  0  0  0  0  0  0  0  0
  -21.4586    9.4011  -14.7357 H   0  0  0  0  0  0  0  0  0  0  0  0
  -20.4834    7.7448  -15.2891 H   0  0  0  0  0  0  0  0  0  0  0  0
  -17.2646   13.1896  -23.0564 C   0  0  0  0  0  0  0  0  0  0  0  0
  -17.2691   12.6916  -24.3433 C   0  0  0  0  0  0  0  0  0  0  0  0
  -17.3178   13.5249  -25.4492 C   0  0  0  0  0  0  0  0  0  0  0  0
  -17.3639   14.8941  -25.3050 C   0  0  0  0  0  0  0  0  0  0  0  0
  -17.3597   15.3987  -24.0222 C   0  0  0  0  0  0  0  0  0  0  0  0
  -17.3110   14.5625  -22.9230 C   0  0  0  0  0  0  0  0  0  0  0  0
  8  9  1  0  0  0
  9 10  2  0  0  0
 10 11  1  0  0  0
 11 12  2  0  0  0
 12  1  1  0  0  0
  1  2  2  0  0  0
  2  3  1  0  0  0
  3  4  2  0  0  0
  3  5  1  0  0  0
  5  6  1  0  0  0
  6  7  2  0  0  0
  5 18  1  0  0  0
 18 19  2  0  0  0
 19 20  1  0  0  0
 20 21  2  0  0  0
 21 22  1  0  0  0
 22 23  2  0  0  0
 12 13  1  0  0  0
 13 14  2  0  0  0
 14 15  1  0  0  0
 14  9  1  0  0  0
  6  2  1  0  0  0
 23 18  1  0  0  0
  8 16  1  0  0  0
 15 17  1  0  0  0
M  END
> <minimizedAffinity>
-8.39298

> <CNNscore>
0.7446440458

> <CNNaffinity>
5.6562008858

> <CNN_VS>
4.2118563652

> <CNNaffinity_variance>
0.1609691083

$$$$
[H]Oc1c([H])c([H])c(C([H])=C2C(=O)N(c3c([H])c([H])c([H])c([H])c3[H])C2=O)c([H])c1O[H]


 23 25  0  0  0  0  0  0  0  0999 V2000
  -17.2214   11.1321  -19.1702 C   0  0  0  0  0  0  0  0  0  0  0  0
  -17.0841   11.6707  -20.3662 C   0  0  0  0  0  0  0  0  0  0  0  0
  -16.2405   11.3967  -21.5499 C   0  0  0  0  0  0  0  0  0  0  0  0
  -15.3880   10.4962  -21.7429 O   0  0  0  0  0  0  0  0  0  0  0  0
  -16.7750   12.4837  -22.2686 N   0  0  0  0  0  0  0  0  0  0  0  0
  -17.6011   12.7795  -21.1528 C   0  0  0  0  0  0  0  0  0  0  0  0
  -18.4641   13.7105  -20.9837 O   0  0  0  0  0  0  0  0  0  0  0  0
  -20.9697   13.2284  -15.5063 O   0  0  0  0  0  0  0  0  0  0  0  0
  -20.0150   12.7336  -16.4117 C   0  0  0  0  0  0  0  0  0  0  0  0
  -20.1765   11.4505  -16.9107 C   0  0  0  0  0  0  0  0  0  0  0  0
  -19.2568   10.9351  -17.8018 C   0  0  0  0  0  0  0  0  0  0  0  0
  -18.1646   11.6527  -18.2267 C   0  0  0  0  0  0  0  0  0  0  0  0
  -17.9953   12.9286  -17.7361 C   0  0  0  0  0  0  0  0  0  0  0  0
  -18.9235   13.4605  -16.8306 C   0  0  0  0  0  0  0  0  0  0  0  0
  -18.7305   14.7448  -16.3526 O   0  0  0  0  0  0  0  0  0  0  0  0
  -20.9350   14.1371  -15.0966 H   0  0  0  0  0  0  0  0  0  0  0  0
  -19.3461   15.1861  -15.7093 H   0  0  0  0  0  0  0  0  0  0  0  0
  -16.5947   13.0715  -23.5609 C   0  0  0  0  0  0  0  0  0  0  0  0
  -15.5027   13.8678  -23.8392 C   0  0  0  0  0  0  0  0  0  0  0  0
  -15.3163   14.4426  -25.0861 C   0  0  0  0  0  0  0  0  0  0  0  0
  -16.2218   14.2396  -26.1041 C   0  0  0  0  0  0  0  0  0  0  0  0
  -17.3153   13.4451  -25.8331 C   0  0  0  0  0  0  0  0  0  0  0  0
  -17.4958   12.8744  -24.5874 C   0  0  0  0  0  0  0  0  0  0  0  0
  8  9  1  0  0  0
  9 10  2  0  0  0
 10 11  1  0  0  0
 11 12  2  0  0  0
 12  1  1  0  0  0
  1  2  2  0  0  0
  2  3  1  0  0  0
  3  4  2  0  0  0
  3  5  1  0  0  0
  5  6  1  0  0  0
  6  7  2  0  0  0
  5 18  1  0  0  0
 18 19  2  0  0  0
 19 20  1  0  0  0
 20 21  2  0  0  0
 21 22  1  0  0  0
 22 23  2  0  0  0
 12 13  1  0  0  0
 13 14  2  0  0  0
 14 15  1  0  0  0
 14  9  1  0  0  0
  6  2  1  0  0  0
 23 18  1  0  0  0
  8 16  1  0  0  0
 15 17  1  0  0  0
M  END
> <minimizedAffinity>
-8.54592

> <CNNscore>
0.7259652615

> <CNNaffinity>
5.7552351952

> <CNN_VS>
4.1781005859

> <CNNaffinity_variance>
0.1409020424

$$$$
[H]Oc1c([H])c([H])c(C([H])=C2C(=O)N(c3c([H])c([H])c([H])c([H])c3[H])C2=O)c([H])c1O[H]


 23 25  0  0  0  0  0  0  0  0999 V2000
  -17.1597   10.3241  -19.1371 C   0  0  0  0  0  0  0  0  0  0  0  0
  -17.2131   11.0840  -20.2136 C   0  0  0  0  0  0  0  0  0  0  0  0
  -16.3552   11.2815  -21.4022 C   0  0  0  0  0  0  0  0  0  0  0  0
  -15.2837   10.7152  -21.7279 O   0  0  0  0  0  0  0  0  0  0  0  0
  -17.1985   12.2781  -21.9311 N   0  0  0  0  0  0  0  0  0  0  0  0
  -18.0475   12.1184  -20.8047 C   0  0  0  0  0  0  0  0  0  0  0  0
  -19.1385   12.7146  -20.4975 O   0  0  0  0  0  0  0  0  0  0  0  0
  -21.2734   10.5255  -15.2763 O   0  0  0  0  0  0  0  0  0  0  0  0
  -20.2469   10.5105  -16.2366 C   0  0  0  0  0  0  0  0  0  0  0  0
  -19.6627    9.2969  -16.5643 C   0  0  0  0  0  0  0  0  0  0  0  0
  -18.6525    9.2480  -17.5037 C   0  0  0  0  0  0  0  0  0  0  0  0
  -18.1900   10.3727  -18.1435 C   0  0  0  0  0  0  0  0  0  0  0  0
  -18.7639   11.5835  -17.8243 C   0  0  0  0  0  0  0  0  0  0  0  0
  -19.7901   11.6434  -16.8714 C   0  0  0  0  0  0  0  0  0  0  0  0
  -20.3499   12.8722  -16.5686 O   0  0  0  0  0  0  0  0  0  0  0  0
  -21.7498   11.3496  -14.9784 H   0  0  0  0  0  0  0  0  0  0  0  0
  -21.0795   12.9908  -15.9044 H   0  0  0  0  0  0  0  0  0  0  0  0
  -17.2273   13.1140  -23.0922 C   0  0  0  0  0  0  0  0  0  0  0  0
  -17.2835   12.5751  -24.3612 C   0  0  0  0  0  0  0  0  0  0  0  0
  -17.3120   13.3733  -25.4935 C   0  0  0  0  0  0  0  0  0  0  0  0
  -17.2849   14.7469  -25.3947 C   0  0  0  0  0  0  0  0  0  0  0  0
  -17.2288   15.2923  -24.1299 C   0  0  0  0  0  0  0  0  0  0  0  0
  -17.2005   14.4911  -23.0042 C   0  0  0  0  0  0  0  0  0  0  0  0
  8  9  1  0  0  0
  9 10  2  0  0  0
 10 11  1  0  0  0
 11 12  2  0  0  0
 12  1  1  0  0  0
  1  2  2  0  0  0
  2  3  1  0  0  0
  3  4  2  0  0  0
  3  5  1  0  0  0
  5  6  1  0  0  0
  6  7  2  0  0  0
  5 18  1  0  0  0
 18 19  2  0  0  0
 19 20  1  0  0  0
 20 21  2  0  0  0
 21 22  1  0  0  0
 22 23  2  0  0  0
 12 13  1  0  0  0
 13 14  2  0  0  0
 14 15  1  0  0  0
 14  9  1  0  0  0
  6  2  1  0  0  0
 23 18  1  0  0  0
  8 16  1  0  0  0
 15 17  1  0  0  0
M  END
> <minimizedAffinity>
-8.19341

> <CNNscore>
0.7079522014

> <CNNaffinity>
5.5880928040

> <CNN_VS>
3.9561026096

> <CNNaffinity_variance>
0.1833859235

$$$$
[H]Oc1c([H])c([H])c(C([H])=C2C(=O)N(c3c([H])c([H])c([H])c([H])c3[H])C2=O)c([H])c1O[H]


 23 25  0  0  0  0  0  0  0  0999 V2000
  -17.3285   11.1831  -19.1204 C   0  0  0  0  0  0  0  0  0  0  0  0
  -17.1710   11.7115  -20.3184 C   0  0  0  0  0  0  0  0  0  0  0  0
  -16.3099   11.4256  -21.4865 C   0  0  0  0  0  0  0  0  0  0  0  0
  -15.4571   10.5212  -21.6590 O   0  0  0  0  0  0  0  0  0  0  0  0
  -16.8300   12.5082  -22.2223 N   0  0  0  0  0  0  0  0  0  0  0  0
  -17.6725   12.8154  -21.1219 C   0  0  0  0  0  0  0  0  0  0  0  0
  -18.5354   13.7500  -20.9738 O   0  0  0  0  0  0  0  0  0  0  0  0
  -21.0617   13.2390  -15.4184 O   0  0  0  0  0  0  0  0  0  0  0  0
  -20.1518   12.6979  -16.3432 C   0  0  0  0  0  0  0  0  0  0  0  0
  -19.1657   13.5218  -16.8633 C   0  0  0  0  0  0  0  0  0  0  0  0
  -18.2565   13.0212  -17.7733 C   0  0  0  0  0  0  0  0  0  0  0  0
  -18.2847   11.7139  -18.1959 C   0  0  0  0  0  0  0  0  0  0  0  0
  -19.2612   10.8875  -17.6850 C   0  0  0  0  0  0  0  0  0  0  0  0
  -20.1891   11.3867  -16.7608 C   0  0  0  0  0  0  0  0  0  0  0  0
  -21.1602   10.5358  -16.2628 O   0  0  0  0  0  0  0  0  0  0  0  0
  -21.8019   12.7230  -14.9934 H   0  0  0  0  0  0  0  0  0  0  0  0
  -21.8500   10.8196  -15.6060 H   0  0  0  0  0  0  0  0  0  0  0  0
  -16.6279   13.0849  -23.5163 C   0  0  0  0  0  0  0  0  0  0  0  0
  -15.5067   13.8385  -23.7972 C   0  0  0  0  0  0  0  0  0  0  0  0
  -15.2991   14.4023  -25.0458 C   0  0  0  0  0  0  0  0  0  0  0  0
  -16.2119   14.2306  -26.0630 C   0  0  0  0  0  0  0  0  0  0  0  0
  -17.3345   13.4788  -25.7895 C   0  0  0  0  0  0  0  0  0  0  0  0
  -17.5362   12.9190  -24.5422 C   0  0  0  0  0  0  0  0  0  0  0  0
  8  9  1  0  0  0
  9 10  2  0  0  0
 10 11  1  0  0  0
 11 12  2  0  0  0
 12  1  1  0  0  0
  1  2  2  0  0  0
  2  3  1  0  0  0
  3  4  2  0  0  0
  3  5  1  0  0  0
  5  6  1  0  0  0
  6  7  2  0  0  0
  5 18  1  0  0  0
 18 19  2  0  0  0
 19 20  1  0  0  0
 20 21  2  0  0  0
 21 22  1  0  0  0
 22 23  2  0  0  0
 12 13  1  0  0  0
 13 14  2  0  0  0
 14 15  1  0  0  0
 14  9  1  0  0  0
  6  2  1  0  0  0
 23 18  1  0  0  0
  8 16  1  0  0  0
 15 17  1  0  0  0
M  END
> <minimizedAffinity>
-8.34185

> <CNNscore>
0.6949261427

> <CNNaffinity>
5.6713094711

> <CNN_VS>
3.9411411285

> <CNNaffinity_variance>
0.1861902922

$$$$
[H]Oc1c([H])c([H])c(C([H])=C2C(=O)N(c3c([H])c([H])c([H])c([H])c3[H])C2=O)c([H])c1O[H]


 23 25  0  0  0  0  0  0  0  0999 V2000
  -15.8714   11.7979  -22.6714 C   0  0  0  0  0  0  0  0  0  0  0  0
  -16.5612   11.8651  -21.5495 C   0  0  0  0  0  0  0  0  0  0  0  0
  -16.6935   11.0150  -20.3463 C   0  0  0  0  0  0  0  0  0  0  0  0
  -16.1204    9.9381  -20.0515 O   0  0  0  0  0  0  0  0  0  0  0  0
  -17.6446   11.8725  -19.7601 N   0  0  0  0  0  0  0  0  0  0  0  0
  -17.5463   12.7146  -20.8986 C   0  0  0  0  0  0  0  0  0  0  0  0
  -18.1478   13.8114  -21.1732 O   0  0  0  0  0  0  0  0  0  0  0  0
  -16.2162   15.8024  -26.6355 O   0  0  0  0  0  0  0  0  0  0  0  0
  -16.1007   14.8202  -25.6365 C   0  0  0  0  0  0  0  0  0  0  0  0
  -17.1750   13.9737  -25.4111 C   0  0  0  0  0  0  0  0  0  0  0  0
  -17.0935   12.9985  -24.4376 C   0  0  0  0  0  0  0  0  0  0  0  0
  -15.9704   12.8243  -23.6652 C   0  0  0  0  0  0  0  0  0  0  0  0
  -14.8977   13.6609  -23.8815 C   0  0  0  0  0  0  0  0  0  0  0  0
  -14.9710   14.6544  -24.8674 C   0  0  0  0  0  0  0  0  0  0  0  0
  -13.8796   15.4820  -25.0647 O   0  0  0  0  0  0  0  0  0  0  0  0
  -15.4970   16.4537  -26.8666 H   0  0  0  0  0  0  0  0  0  0  0  0
  -13.8600   16.2070  -25.7441 H   0  0  0  0  0  0  0  0  0  0  0  0
  -18.4053   11.9165  -18.5487 C   0  0  0  0  0  0  0  0  0  0  0  0
  -18.9697   10.7757  -18.0159 C   0  0  0  0  0  0  0  0  0  0  0  0
  -19.7082   10.8047  -16.8438 C   0  0  0  0  0  0  0  0  0  0  0  0
  -19.9088   11.9835  -16.1600 C   0  0  0  0  0  0  0  0  0  0  0  0
  -19.3477   13.1272  -16.6865 C   0  0  0  0  0  0  0  0  0  0  0  0
  -18.6122   13.0922  -17.8560 C   0  0  0  0  0  0  0  0  0  0  0  0
  8  9  1  0  0  0
  9 10  2  0  0  0
 10 11  1  0  0  0
 11 12  2  0  0  0
 12  1  1  0  0  0
  1  2  2  0  0  0
  2  3  1  0  0  0
  3  4  2  0  0  0
  3  5  1  0  0  0
  5  6  1  0  0  0
  6  7  2  0  0  0
  5 18  1  0  0  0
 18 19  2  0  0  0
 19 20  1  0  0  0
 20 21  2  0  0  0
 21 22  1  0  0  0
 22 23  2  0  0  0
 12 13  1  0  0  0
 13 14  2  0  0  0
 14 15  1  0  0  0
 14  9  1  0  0  0
  6  2  1  0  0  0
 23 18  1  0  0  0
  8 16  1  0  0  0
 15 17  1  0  0  0
M  END
> <minimizedAffinity>
-8.71044

> <CNNscore>
0.6711720824

> <CNNaffinity>
5.7818064690

> <CNN_VS>
3.8805871010

> <CNNaffinity_variance>
0.1470773518

$$$$
[H]Oc1c([H])c([H])c(C([H])=C2C(=O)N(c3c([H])c([H])c([H])c([H])c3[H])C2=O)c([H])c1O[H]


 23 25  0  0  0  0  0  0  0  0999 V2000
  -18.0462   14.0528  -20.1215 C   0  0  0  0  0  0  0  0  0  0  0  0
  -19.1344   14.7965  -20.1642 C   0  0  0  0  0  0  0  0  0  0  0  0
  -19.4773   16.1239  -20.7195 C   0  0  0  0  0  0  0  0  0  0  0  0
  -18.7705   16.9370  -21.3632 O   0  0  0  0  0  0  0  0  0  0  0  0
  -20.8023   16.0563  -20.2467 N   0  0  0  0  0  0  0  0  0  0  0  0
  -20.5123   14.7793  -19.6988 C   0  0  0  0  0  0  0  0  0  0  0  0
  -21.2570   13.9701  -19.0425 O   0  0  0  0  0  0  0  0  0  0  0  0
  -17.9975    9.0083  -17.5880 O   0  0  0  0  0  0  0  0  0  0  0  0
  -17.9888   10.2514  -18.2442 C   0  0  0  0  0  0  0  0  0  0  0  0
  -18.8796   11.2281  -17.8269 C   0  0  0  0  0  0  0  0  0  0  0  0
  -18.8962   12.4595  -18.4503 C   0  0  0  0  0  0  0  0  0  0  0  0
  -18.0504   12.7683  -19.4882 C   0  0  0  0  0  0  0  0  0  0  0  0
  -17.1617   11.8042  -19.9103 C   0  0  0  0  0  0  0  0  0  0  0  0
  -17.1376   10.5506  -19.2839 C   0  0  0  0  0  0  0  0  0  0  0  0
  -16.2354    9.5994  -19.7270 O   0  0  0  0  0  0  0  0  0  0  0  0
  -17.3945    8.2484  -17.8196 H   0  0  0  0  0  0  0  0  0  0  0  0
  -16.1621    8.6906  -19.3315 H   0  0  0  0  0  0  0  0  0  0  0  0
  -21.9669   16.8873  -20.2797 C   0  0  0  0  0  0  0  0  0  0  0  0
  -22.3392   17.6420  -19.1862 C   0  0  0  0  0  0  0  0  0  0  0  0
  -23.4642   18.4507  -19.2053 C   0  0  0  0  0  0  0  0  0  0  0  0
  -24.2608   18.5327  -20.3261 C   0  0  0  0  0  0  0  0  0  0  0  0
  -23.8948   17.7813  -21.4223 C   0  0  0  0  0  0  0  0  0  0  0  0
  -22.7716   16.9765  -21.3974 C   0  0  0  0  0  0  0  0  0  0  0  0
  8  9  1  0  0  0
  9 10  2  0  0  0
 10 11  1  0  0  0
 11 12  2  0  0  0
 12  1  1  0  0  0
  1  2  2  0  0  0
  2  3  1  0  0  0
  3  4  2  0  0  0
  3  5  1  0  0  0
  5  6  1  0  0  0
  6  7  2  0  0  0
  5 18  1  0  0  0
 18 19  2  0  0  0
 19 20  1  0  0  0
 20 21  2  0  0  0
 21 22  1  0  0  0
 22 23  2  0  0  0
 12 13  1  0  0  0
 13 14  2  0  0  0
 14 15  1  0  0  0
 14  9  1  0  0  0
  6  2  1  0  0  0
 23 18  1  0  0  0
  8 16  1  0  0  0
 15 17  1  0  0  0
M  END
> <minimizedAffinity>
-7.19708

> <CNNscore>
0.5681990385

> <CNNaffinity>
5.0584664345

> <CNN_VS>
2.8742158413

> <CNNaffinity_variance>
0.2080839425

$$$$
[H]Oc1c([H])c([H])c(C([H])=C2C(=O)N(c3c([H])c([H])c([H])c([H])c3[H])C2=O)c([H])c1O[H]


 23 25  0  0  0  0  0  0  0  0999 V2000
  -17.9934   14.1308  -20.0728 C   0  0  0  0  0  0  0  0  0  0  0  0
  -17.4944   14.3158  -21.2794 C   0  0  0  0  0  0  0  0  0  0  0  0
  -17.3144   15.4805  -22.1733 C   0  0  0  0  0  0  0  0  0  0  0  0
  -17.5914   16.6905  -21.9887 O   0  0  0  0  0  0  0  0  0  0  0  0
  -16.7565   14.6939  -23.1999 N   0  0  0  0  0  0  0  0  0  0  0  0
  -16.9132   13.5516  -22.3720 C   0  0  0  0  0  0  0  0  0  0  0  0
  -16.6215   12.3237  -22.5893 O   0  0  0  0  0  0  0  0  0  0  0  0
  -18.0206    9.0299  -17.6543 O   0  0  0  0  0  0  0  0  0  0  0  0
  -17.9893   10.2888  -18.2792 C   0  0  0  0  0  0  0  0  0  0  0  0
  -18.9738   11.2115  -17.9619 C   0  0  0  0  0  0  0  0  0  0  0  0
  -18.9712   12.4566  -18.5577 C   0  0  0  0  0  0  0  0  0  0  0  0
  -18.0152   12.8315  -19.4708 C   0  0  0  0  0  0  0  0  0  0  0  0
  -17.0329   11.9212  -19.7929 C   0  0  0  0  0  0  0  0  0  0  0  0
  -17.0273   10.6543  -19.1935 C   0  0  0  0  0  0  0  0  0  0  0  0
  -16.0294    9.7581  -19.5344 O   0  0  0  0  0  0  0  0  0  0  0  0
  -17.3557    8.3053  -17.8206 H   0  0  0  0  0  0  0  0  0  0  0  0
  -15.9625    8.8438  -19.1508 H   0  0  0  0  0  0  0  0  0  0  0  0
  -16.2425   14.9084  -24.5181 C   0  0  0  0  0  0  0  0  0  0  0  0
  -17.0063   14.6434  -25.6363 C   0  0  0  0  0  0  0  0  0  0  0  0
  -16.5207   14.8468  -26.9180 C   0  0  0  0  0  0  0  0  0  0  0  0
  -15.2460   15.3254  -27.1266 C   0  0  0  0  0  0  0  0  0  0  0  0
  -14.4772   15.5924  -26.0140 C   0  0  0  0  0  0  0  0  0  0  0  0
  -14.9670   15.3874  -24.7380 C   0  0  0  0  0  0  0  0  0  0  0  0
  8  9  1  0  0  0
  9 10  2  0  0  0
 10 11  1  0  0  0
 11 12  2  0  0  0
 12  1  1  0  0  0
  1  2  2  0  0  0
  2  3  1  0  0  0
  3  4  2  0  0  0
  3  5  1  0  0  0
  5  6  1  0  0  0
  6  7  2  0  0  0
  5 18  1  0  0  0
 18 19  2  0  0  0
 19 20  1  0  0  0
 20 21  2  0  0  0
 21 22  1  0  0  0
 22 23  2  0  0  0
 12 13  1  0  0  0
 13 14  2  0  0  0
 14 15  1  0  0  0
 14  9  1  0  0  0
  6  2  1  0  0  0
 23 18  1  0  0  0
  8 16  1  0  0  0
 15 17  1  0  0  0
M  END
> <minimizedAffinity>
-9.00545

> <CNNscore>
0.5572682619

> <CNNaffinity>
5.4640150070

> <CNN_VS>
3.0449221134

> <CNNaffinity_variance>
0.0441501327

$$$$
[H]c1c([H])c(C([H])([H])N2C([H])([H])C([H])([H])N(C([H])([H])[H])C([H])([H])C2([H])[H])c(C(F)(F)F)c([H])c1C(=O)N([H])c1c([H])c([H])c(C([H])([H])[H])c(C(=O)N([H])[H])c1[H]


 34 36  0  0  0  0  0  0  0  0999 V2000
  -18.4686   10.9308  -17.9282 C   0  0  0  0  0  0  0  0  0  0  0  0
  -17.6776   10.0905  -18.6641 C   0  0  0  0  0  0  0  0  0  0  0  0
  -17.1540   10.4264  -19.9104 C   0  0  0  0  0  0  0  0  0  0  0  0
  -17.4293   11.6648  -20.4583 C   0  0  0  0  0  0  0  0  0  0  0  0
  -18.2159   12.5027  -19.7278 C   0  0  0  0  0  0  0  0  0  0  0  0
  -18.7467   12.1851  -18.4839 C   0  0  0  0  0  0  0  0  0  0  0  0
  -19.5848   13.1427  -17.7623 C   0  0  0  0  0  0  0  0  0  0  0  0
  -19.1364   13.4534  -16.4907 F   0  0  0  0  0  0  0  0  0  0  0  0
  -20.9246   12.7912  -17.7559 F   0  0  0  0  0  0  0  0  0  0  0  0
  -19.5447   14.3621  -18.4548 F   0  0  0  0  0  0  0  0  0  0  0  0
  -16.8796   12.0207  -21.7887 C   0  0  0  0  0  0  0  0  0  0  0  0
  -15.8590   11.4335  -22.1541 O   0  0  0  0  0  0  0  0  0  0  0  0
  -17.5096   12.9937  -22.5903 N   0  0  0  0  0  0  0  0  0  0  0  0
  -18.3967   13.4587  -22.1771 H   0  0  0  0  0  0  0  0  0  0  0  0
  -17.1543   13.4555  -23.8591 C   0  0  0  0  0  0  0  0  0  0  0  0
  -17.9238   13.0519  -24.9455 C   0  0  0  0  0  0  0  0  0  0  0  0
  -17.6018   13.4710  -26.2105 C   0  0  0  0  0  0  0  0  0  0  0  0
  -16.5123   14.3056  -26.4793 C   0  0  0  0  0  0  0  0  0  0  0  0
  -16.2474   14.7076  -27.8759 C   0  0  0  0  0  0  0  0  0  0  0  0
  -15.7671   14.6909  -25.3923 C   0  0  0  0  0  0  0  0  0  0  0  0
  -16.0918   14.2631  -24.0831 C   0  0  0  0  0  0  0  0  0  0  0  0
  -14.6123   15.5528  -25.5672 C   0  0  0  0  0  0  0  0  0  0  0  0
  -14.6920   16.9530  -25.6045 N   0  0  0  0  0  0  0  0  0  0  0  0
  -13.4656   14.9854  -25.6934 O   0  0  0  0  0  0  0  0  0  0  0  0
  -14.8462   17.4428  -26.5106 H   0  0  0  0  0  0  0  0  0  0  0  0
  -14.5905   17.5415  -24.7516 H   0  0  0  0  0  0  0  0  0  0  0  0
  -18.9689   10.5332  -16.6218 C   0  0  0  0  0  0  0  0  0  0  0  0
  -20.7149    8.5211  -12.6189 C   0  0  0  0  0  0  0  0  0  0  0  0
  -20.3751    9.2736  -13.8124 N   0  0  0  0  0  0  0  0  0  0  0  0
  -21.5633    9.4326  -14.6233 C   0  0  0  0  0  0  0  0  0  0  0  0
  -21.2637   10.1028  -15.9451 C   0  0  0  0  0  0  0  0  0  0  0  0
  -20.0645    9.6435  -16.5536 N   0  0  0  0  0  0  0  0  0  0  0  0
  -19.6379    8.4149  -15.9226 C   0  0  0  0  0  0  0  0  0  0  0  0
  -19.3082    8.5895  -14.4727 C   0  0  0  0  0  0  0  0  0  0  0  0
 28 29  1  0  0  0
 29 30  1  0  0  0
 30 31  1  0  0  0
 31 32  1  0  0  0
 32 27  1  0  0  0
 27  1  1  0  0  0
  1  2  2  0  0  0
  2  3  1  0  0  0
  3  4  2  0  0  0
  4  5  1  0  0  0
  5  6  2  0  0  0
  6  7  1  0  0  0
  7  8  1  0  0  0
  7  9  1  0  0  0
  7 10  1  0  0  0
  4 11  1  0  0  0
 11 12  2  0  0  0
 11 13  1  0  0  0
 13 15  1  0  0  0
 15 16  2  0  0  0
 16 17  1  0  0  0
 17 18  2  0  0  0
 18 19  1  0  0  0
 18 20  1  0  0  0
 20 21  2  0  0  0
 20 22  1  0  0  0
 22 23  1  0  0  0
 22 24  2  0  0  0
 32 33  1  0  0  0
 33 34  1  0  0  0
 34 29  1  0  0  0
  6  1  1  0  0  0
 21 15  1  0  0  0
 13 14  1  0  0  0
 23 25  1  0  0  0
 23 26  1  0  0  0
M  END
> <minimizedAffinity>
-9.05962

> <CNNscore>
0.5081329942

> <CNNaffinity>
6.5321412086

> <CNN_VS>
3.3191964626

> <CNNaffinity_variance>
0.1328373402

$$$$
[H]c1c([H])c(C([H])([H])N2C([H])([H])C([H])([H])N(C([H])([H])[H])C([H])([H])C2([H])[H])c(C(F)(F)F)c([H])c1C(=O)N([H])c1c([H])c([H])c(C([H])([H])[H])c(C(=O)N([H])[H])c1[H]


 34 36  0  0  0  0  0  0  0  0999 V2000
  -19.4891   12.1585  -16.8873 C   0  0  0  0  0  0  0  0  0  0  0  0
  -19.2584   13.3568  -17.5072 C   0  0  0  0  0  0  0  0  0  0  0  0
  -18.6709   13.4682  -18.7652 C   0  0  0  0  0  0  0  0  0  0  0  0
  -18.2911   12.3283  -19.4478 C   0  0  0  0  0  0  0  0  0  0  0  0
  -18.5200   11.1349  -18.8330 C   0  0  0  0  0  0  0  0  0  0  0  0
  -19.1043   11.0043  -17.5795 C   0  0  0  0  0  0  0  0  0  0  0  0
  -19.3155    9.6835  -16.9872 C   0  0  0  0  0  0  0  0  0  0  0  0
  -18.7686    8.6371  -17.7085 F   0  0  0  0  0  0  0  0  0  0  0  0
  -20.6410    9.4405  -16.6665 F   0  0  0  0  0  0  0  0  0  0  0  0
  -18.6439    9.6482  -15.7559 F   0  0  0  0  0  0  0  0  0  0  0  0
  -17.6579   12.4457  -20.7834 C   0  0  0  0  0  0  0  0  0  0  0  0
  -16.7841   11.6240  -21.0688 O   0  0  0  0  0  0  0  0  0  0  0  0
  -18.0496   13.4614  -21.6784 N   0  0  0  0  0  0  0  0  0  0  0  0
  -18.8204   14.1392  -21.3316 H   0  0  0  0  0  0  0  0  0  0  0  0
  -17.5839   13.7287  -22.9673 C   0  0  0  0  0  0  0  0  0  0  0  0
  -18.2587   13.1587  -24.0420 C   0  0  0  0  0  0  0  0  0  0  0  0
  -17.8269   13.3842  -25.3235 C   0  0  0  0  0  0  0  0  0  0  0  0
  -16.7142   14.1775  -25.6210 C   0  0  0  0  0  0  0  0  0  0  0  0
  -16.3279   14.3655  -27.0344 C   0  0  0  0  0  0  0  0  0  0  0  0
  -16.0637   14.7292  -24.5449 C   0  0  0  0  0  0  0  0  0  0  0  0
  -16.5022   14.5018  -23.2189 C   0  0  0  0  0  0  0  0  0  0  0  0
  -14.8940   15.5642  -24.7485 C   0  0  0  0  0  0  0  0  0  0  0  0
  -14.9650   16.9228  -25.0914 N   0  0  0  0  0  0  0  0  0  0  0  0
  -13.7420   15.0124  -24.6033 O   0  0  0  0  0  0  0  0  0  0  0  0
  -14.9981   17.2071  -26.0928 H   0  0  0  0  0  0  0  0  0  0  0  0
  -14.9748   17.6798  -24.3766 H   0  0  0  0  0  0  0  0  0  0  0  0
  -20.1268   12.1032  -15.5814 C   0  0  0  0  0  0  0  0  0  0  0  0
  -22.7024   12.3535  -11.5287 C   0  0  0  0  0  0  0  0  0  0  0  0
  -21.9550   12.5132  -12.7625 N   0  0  0  0  0  0  0  0  0  0  0  0
  -22.7017   13.3706  -13.6579 C   0  0  0  0  0  0  0  0  0  0  0  0
  -22.0435   13.4866  -15.0141 C   0  0  0  0  0  0  0  0  0  0  0  0
  -21.5294   12.2545  -15.5010 N   0  0  0  0  0  0  0  0  0  0  0  0
  -22.0803   11.1600  -14.7341 C   0  0  0  0  0  0  0  0  0  0  0  0
  -21.6942   11.2102  -13.2884 C   0  0  0  0  0  0  0  0  0  0  0  0
 28 29  1  0  0  0
 29 30  1  0  0  0
 30 31  1  0  0  0
 31 32  1  0  0  0
 32 27  1  0  0  0
 27  1  1  0  0  0
  1  2  2  0  0  0
  2  3  1  0  0  0
  3  4  2  0  0  0
  4  5  1  0  0  0
  5  6  2  0  0  0
  6  7  1  0  0  0
  7  8  1  0  0  0
  7  9  1  0  0  0
  7 10  1  0  0  0
  4 11  1  0  0  0
 11 12  2  0  0  0
 11 13  1  0  0  0
 13 15  1  0  0  0
 15 16  2  0  0  0
 16 17  1  0  0  0
 17 18  2  0  0  0
 18 19  1  0  0  0
 18 20  1  0  0  0
 20 21  2  0  0  0
 20 22  1  0  0  0
 22 23  1  0  0  0
 22 24  2  0  0  0
 32 33  1  0  0  0
 33 34  1  0  0  0
 34 29  1  0  0  0
  6  1  1  0  0  0
 21 15  1  0  0  0
 13 14  1  0  0  0
 23 25  1  0  0  0
 23 26  1  0  0  0
M  END
> <minimizedAffinity>
-7.85630

> <CNNscore>
0.4552932978

> <CNNaffinity>
6.2791051865

> <CNN_VS>
2.8588345051

> <CNNaffinity_variance>
0.4088417888

$$$$
[H]c1c([H])c(C([H])([H])N2C([H])([H])C([H])([H])N(C([H])([H])[H])C([H])([H])C2([H])[H])c(C(F)(F)F)c([H])c1C(=O)N([H])c1c([H])c([H])c(C([H])([H])[H])c(C(=O)N([H])[H])c1[H]


 34 36  0  0  0  0  0  0  0  0999 V2000
  -19.8724    9.5679  -16.2436 C   0  0  0  0  0  0  0  0  0  0  0  0
  -18.8567    8.8976  -16.8703 C   0  0  0  0  0  0  0  0  0  0  0  0
  -18.0470    9.4727  -17.8469 C   0  0  0  0  0  0  0  0  0  0  0  0
  -18.2548   10.7859  -18.2236 C   0  0  0  0  0  0  0  0  0  0  0  0
  -19.2646   11.4548  -17.6011 C   0  0  0  0  0  0  0  0  0  0  0  0
  -20.0820   10.8981  -16.6256 C   0  0  0  0  0  0  0  0  0  0  0  0
  -21.1473   11.6852  -16.0047 C   0  0  0  0  0  0  0  0  0  0  0  0
  -20.8255   12.2096  -14.7654 F   0  0  0  0  0  0  0  0  0  0  0  0
  -22.3626   11.0211  -15.9744 F   0  0  0  0  0  0  0  0  0  0  0  0
  -21.3813   12.8097  -16.8102 F   0  0  0  0  0  0  0  0  0  0  0  0
  -17.3992   11.3969  -19.2691 C   0  0  0  0  0  0  0  0  0  0  0  0
  -16.1867   11.1828  -19.2036 O   0  0  0  0  0  0  0  0  0  0  0  0
  -17.9642   12.1886  -20.2889 N   0  0  0  0  0  0  0  0  0  0  0  0
  -19.0386   12.3241  -20.2553 H   0  0  0  0  0  0  0  0  0  0  0  0
  -17.3345   12.8355  -21.3541 C   0  0  0  0  0  0  0  0  0  0  0  0
  -16.5690   12.0707  -22.2283 C   0  0  0  0  0  0  0  0  0  0  0  0
  -15.9226   12.6677  -23.2797 C   0  0  0  0  0  0  0  0  0  0  0  0
  -15.9907   14.0418  -23.5310 C   0  0  0  0  0  0  0  0  0  0  0  0
  -15.2625   14.5929  -24.6921 C   0  0  0  0  0  0  0  0  0  0  0  0
  -16.7513   14.7766  -22.6552 C   0  0  0  0  0  0  0  0  0  0  0  0
  -17.4219   14.1689  -21.5674 C   0  0  0  0  0  0  0  0  0  0  0  0
  -16.8807   16.2120  -22.8273 C   0  0  0  0  0  0  0  0  0  0  0  0
  -17.8753   16.8089  -23.6165 N   0  0  0  0  0  0  0  0  0  0  0  0
  -16.0303   16.9589  -22.2176 O   0  0  0  0  0  0  0  0  0  0  0  0
  -17.7033   16.9835  -24.6287 H   0  0  0  0  0  0  0  0  0  0  0  0
  -18.7952   17.1036  -23.2278 H   0  0  0  0  0  0  0  0  0  0  0  0
  -20.6713    8.9215  -15.2145 C   0  0  0  0  0  0  0  0  0  0  0  0
  -19.4098    5.9332  -11.6649 C   0  0  0  0  0  0  0  0  0  0  0  0
  -19.5634    6.9041  -12.7326 N   0  0  0  0  0  0  0  0  0  0  0  0
  -18.9162    8.1387  -12.3435 C   0  0  0  0  0  0  0  0  0  0  0  0
  -19.1381    9.2402  -13.3551 C   0  0  0  0  0  0  0  0  0  0  0  0
  -20.4642    9.2823  -13.8641 N   0  0  0  0  0  0  0  0  0  0  0  0
  -21.3337    8.4900  -13.0239 C   0  0  0  0  0  0  0  0  0  0  0  0
  -20.9601    7.0404  -13.0032 C   0  0  0  0  0  0  0  0  0  0  0  0
 28 29  1  0  0  0
 29 30  1  0  0  0
 30 31  1  0  0  0
 31 32  1  0  0  0
 32 27  1  0  0  0
 27  1  1  0  0  0
  1  2  2  0  0  0
  2  3  1  0  0  0
  3  4  2  0  0  0
  4  5  1  0  0  0
  5  6  2  0  0  0
  6  7  1  0  0  0
  7  8  1  0  0  0
  7  9  1  0  0  0
  7 10  1  0  0  0
  4 11  1  0  0  0
 11 12  2  0  0  0
 11 13  1  0  0  0
 13 15  1  0  0  0
 15 16  2  0  0  0
 16 17  1  0  0  0
 17 18  2  0  0  0
 18 19  1  0  0  0
 18 20  1  0  0  0
 20 21  2  0  0  0
 20 22  1  0  0  0
 22 23  1  0  0  0
 22 24  2  0  0  0
 32 33  1  0  0  0
 33 34  1  0  0  0
 34 29  1  0  0  0
  6  1  1  0  0  0
 21 15  1  0  0  0
 13 14  1  0  0  0
 23 25  1  0  0  0
 23 26  1  0  0  0
M  END
> <minimizedAffinity>
-8.32978

> <CNNscore>
0.3900544941

> <CNNaffinity>
6.0993299484

> <CNN_VS>
2.3790709972

> <CNNaffinity_variance>
0.2149684727

$$$$
[H]c1c([H])c(C([H])([H])N2C([H])([H])C([H])([H])N(C([H])([H])[H])C([H])([H])C2([H])[H])c(C(F)(F)F)c([H])c1C(=O)N([H])c1c([H])c([H])c(C([H])([H])[H])c(C(=O)N([H])[H])c1[H]


 34 36  0  0  0  0  0  0  0  0999 V2000
  -19.2519   12.0639  -18.1491 C   0  0  0  0  0  0  0  0  0  0  0  0
  -19.8523   13.2149  -18.5828 C   0  0  0  0  0  0  0  0  0  0  0  0
  -19.5459   13.8294  -19.7946 C   0  0  0  0  0  0  0  0  0  0  0  0
  -18.5912   13.2721  -20.6237 C   0  0  0  0  0  0  0  0  0  0  0  0
  -17.9927   12.1267  -20.1944 C   0  0  0  0  0  0  0  0  0  0  0  0
  -18.2851   11.4998  -18.9897 C   0  0  0  0  0  0  0  0  0  0  0  0
  -17.5956   10.2698  -18.6003 C   0  0  0  0  0  0  0  0  0  0  0  0
  -18.4040    9.3275  -17.9898 F   0  0  0  0  0  0  0  0  0  0  0  0
  -16.4454   10.5044  -17.8649 F   0  0  0  0  0  0  0  0  0  0  0  0
  -17.1431    9.6381  -19.7684 F   0  0  0  0  0  0  0  0  0  0  0  0
  -18.2579   13.9296  -21.9102 C   0  0  0  0  0  0  0  0  0  0  0  0
  -18.6619   15.0824  -22.0772 O   0  0  0  0  0  0  0  0  0  0  0  0
  -17.5094   13.2505  -22.8924 N   0  0  0  0  0  0  0  0  0  0  0  0
  -17.2072   12.2377  -22.6542 H   0  0  0  0  0  0  0  0  0  0  0  0
  -17.0928   13.6962  -24.1483 C   0  0  0  0  0  0  0  0  0  0  0  0
  -17.8870   13.3952  -25.2500 C   0  0  0  0  0  0  0  0  0  0  0  0
  -17.5081   13.8019  -26.5033 C   0  0  0  0  0  0  0  0  0  0  0  0
  -16.3345   14.5232  -26.7447 C   0  0  0  0  0  0  0  0  0  0  0  0
  -16.0125   14.9212  -28.1304 C   0  0  0  0  0  0  0  0  0  0  0  0
  -15.5663   14.8085  -25.6429 C   0  0  0  0  0  0  0  0  0  0  0  0
  -15.9495   14.3927  -24.3457 C   0  0  0  0  0  0  0  0  0  0  0  0
  -14.3262   15.5484  -25.7893 C   0  0  0  0  0  0  0  0  0  0  0  0
  -14.2746   16.9289  -26.0340 N   0  0  0  0  0  0  0  0  0  0  0  0
  -13.2284   14.8872  -25.6868 O   0  0  0  0  0  0  0  0  0  0  0  0
  -14.2784   17.2858  -27.0124 H   0  0  0  0  0  0  0  0  0  0  0  0
  -14.2197   17.6308  -25.2669 H   0  0  0  0  0  0  0  0  0  0  0  0
  -19.6290   11.4554  -16.8831 C   0  0  0  0  0  0  0  0  0  0  0  0
  -21.2700   10.1724  -12.5493 C   0  0  0  0  0  0  0  0  0  0  0  0
  -20.7782   10.7810  -13.7716 N   0  0  0  0  0  0  0  0  0  0  0  0
  -21.5859   11.9422  -14.0778 C   0  0  0  0  0  0  0  0  0  0  0  0
  -21.2110   12.5612  -15.4053 C   0  0  0  0  0  0  0  0  0  0  0  0
  -20.9573   11.6040  -16.4245 N   0  0  0  0  0  0  0  0  0  0  0  0
  -21.4647   10.3131  -16.0175 C   0  0  0  0  0  0  0  0  0  0  0  0
  -20.7870    9.7814  -14.7930 C   0  0  0  0  0  0  0  0  0  0  0  0
 28 29  1  0  0  0
 29 30  1  0  0  0
 30 31  1  0  0  0
 31 32  1  0  0  0
 32 27  1  0  0  0
 27  1  1  0  0  0
  1  2  2  0  0  0
  2  3  1  0  0  0
  3  4  2  0  0  0
  4  5  1  0  0  0
  5  6  2  0  0  0
  6  7  1  0  0  0
  7  8  1  0  0  0
  7  9  1  0  0  0
  7 10  1  0  0  0
  4 11  1  0  0  0
 11 12  2  0  0  0
 11 13  1  0  0  0
 13 15  1  0  0  0
 15 16  2  0  0  0
 16 17  1  0  0  0
 17 18  2  0  0  0
 18 19  1  0  0  0
 18 20  1  0  0  0
 20 21  2  0  0  0
 20 22  1  0  0  0
 22 23  1  0  0  0
 22 24  2  0  0  0
 32 33  1  0  0  0
 33 34  1  0  0  0
 34 29  1  0  0  0
  6  1  1  0  0  0
 21 15  1  0  0  0
 13 14  1  0  0  0
 23 25  1  0  0  0
 23 26  1  0  0  0
M  END
> <minimizedAffinity>
-9.07475

> <CNNscore>
0.2911003530

> <CNNaffinity>
6.2238035202

> <CNN_VS>
1.8117513657

> <CNNaffinity_variance>
0.0811228156

$$$$
[H]c1c([H])c(C([H])([H])N2C([H])([H])C([H])([H])N(C([H])([H])[H])C([H])([H])C2([H])[H])c(C(F)(F)F)c([H])c1C(=O)N([H])c1c([H])c([H])c(C([H])([H])[H])c(C(=O)N([H])[H])c1[H]


 34 36  0  0  0  0  0  0  0  0999 V2000
  -19.6523    9.5024  -16.4168 C   0  0  0  0  0  0  0  0  0  0  0  0
  -18.6232    8.9500  -17.1304 C   0  0  0  0  0  0  0  0  0  0  0  0
  -17.9024    9.6449  -18.0988 C   0  0  0  0  0  0  0  0  0  0  0  0
  -18.2186   10.9613  -18.3754 C   0  0  0  0  0  0  0  0  0  0  0  0
  -19.2421   11.5131  -17.6664 C   0  0  0  0  0  0  0  0  0  0  0  0
  -19.9718   10.8360  -16.6975 C   0  0  0  0  0  0  0  0  0  0  0  0
  -21.0589   11.5014  -15.9795 C   0  0  0  0  0  0  0  0  0  0  0  0
  -20.7516   11.8623  -14.6797 F   0  0  0  0  0  0  0  0  0  0  0  0
  -22.2547   10.8051  -16.0434 F   0  0  0  0  0  0  0  0  0  0  0  0
  -21.3253   12.7174  -16.6264 F   0  0  0  0  0  0  0  0  0  0  0  0
  -17.4578   11.6999  -19.4119 C   0  0  0  0  0  0  0  0  0  0  0  0
  -16.3593   11.2451  -19.7382 O   0  0  0  0  0  0  0  0  0  0  0  0
  -17.9826   12.8731  -19.9901 N   0  0  0  0  0  0  0  0  0  0  0  0
  -18.9523   13.1961  -19.6306 H   0  0  0  0  0  0  0  0  0  0  0  0
  -17.4292   13.6950  -20.9738 C   0  0  0  0  0  0  0  0  0  0  0  0
  -17.3765   15.0642  -20.7338 C   0  0  0  0  0  0  0  0  0  0  0  0
  -16.8535   15.9089  -21.6786 C   0  0  0  0  0  0  0  0  0  0  0  0
  -16.3553   15.4597  -22.9058 C   0  0  0  0  0  0  0  0  0  0  0  0
  -15.8073   16.4463  -23.8589 C   0  0  0  0  0  0  0  0  0  0  0  0
  -16.4180   14.1050  -23.1210 C   0  0  0  0  0  0  0  0  0  0  0  0
  -16.9562   13.2258  -22.1516 C   0  0  0  0  0  0  0  0  0  0  0  0
  -15.9311   13.5403  -24.3663 C   0  0  0  0  0  0  0  0  0  0  0  0
  -16.7703   13.1794  -25.4311 N   0  0  0  0  0  0  0  0  0  0  0  0
  -14.6621   13.3690  -24.4808 O   0  0  0  0  0  0  0  0  0  0  0  0
  -17.1723   12.2197  -25.4764 H   0  0  0  0  0  0  0  0  0  0  0  0
  -17.0075   13.8364  -26.2033 H   0  0  0  0  0  0  0  0  0  0  0  0
  -20.3549    8.7338  -15.4015 C   0  0  0  0  0  0  0  0  0  0  0  0
  -21.4974    8.2664  -10.7542 C   0  0  0  0  0  0  0  0  0  0  0  0
  -21.2295    8.1839  -12.1782 N   0  0  0  0  0  0  0  0  0  0  0  0
  -20.5563    6.9340  -12.4593 C   0  0  0  0  0  0  0  0  0  0  0  0
  -20.1342    6.8289  -13.9073 C   0  0  0  0  0  0  0  0  0  0  0  0
  -19.6005    8.0376  -14.4304 N   0  0  0  0  0  0  0  0  0  0  0  0
  -19.2795    8.9378  -13.3458 C   0  0  0  0  0  0  0  0  0  0  0  0
  -20.4818    9.3434  -12.5512 C   0  0  0  0  0  0  0  0  0  0  0  0
 28 29  1  0  0  0
 29 30  1  0  0  0
 30 31  1  0  0  0
 31 32  1  0  0  0
 32 27  1  0  0  0
 27  1  1  0  0  0
  1  2  2  0  0  0
  2  3  1  0  0  0
  3  4  2  0  0  0
  4  5  1  0  0  0
  5  6  2  0  0  0
  6  7  1  0  0  0
  7  8  1  0  0  0
  7  9  1  0  0  0
  7 10  1  0  0  0
  4 11  1  0  0  0
 11 12  2  0  0  0
 11 13  1  0  0  0
 13 15  1  0  0  0
 15 16  2  0  0  0
 16 17  1  0  0  0
 17 18  2  0  0  0
 18 19  1  0  0  0
 18 20  1  0  0  0
 20 21  2  0  0  0
 20 22  1  0  0  0
 22 23  1  0  0  0
 22 24  2  0  0  0
 32 33  1  0  0  0
 33 34  1  0  0  0
 34 29  1  0  0  0
  6  1  1  0  0  0
 21 15  1  0  0  0
 13 14  1  0  0  0
 23 25  1  0  0  0
 23 26  1  0  0  0
M  END
> <minimizedAffinity>
-8.77909

> <CNNscore>
0.2639347017

> <CNNaffinity>
5.8941707611

> <CNN_VS>
1.5556762218

> <CNNaffinity_variance>
0.1065086350

$$$$
[H]c1c([H])c(C([H])([H])N2C([H])([H])C([H])([H])N(C([H])([H])[H])C([H])([H])C2([H])[H])c(C(F)(F)F)c([H])c1C(=O)N([H])c1c([H])c([H])c(C([H])([H])[H])c(C(=O)N([H])[H])c1[H]


 34 36  0  0  0  0  0  0  0  0999 V2000
  -18.7442   11.7776  -18.5069 C   0  0  0  0  0  0  0  0  0  0  0  0
  -19.7077   12.7495  -18.4817 C   0  0  0  0  0  0  0  0  0  0  0  0
  -19.7736   13.7876  -19.4081 C   0  0  0  0  0  0  0  0  0  0  0  0
  -18.8323   13.8671  -20.4166 C   0  0  0  0  0  0  0  0  0  0  0  0
  -17.8728   12.9010  -20.4438 C   0  0  0  0  0  0  0  0  0  0  0  0
  -17.7912   11.8588  -19.5290 C   0  0  0  0  0  0  0  0  0  0  0  0
  -16.7272   10.8597  -19.6271 C   0  0  0  0  0  0  0  0  0  0  0  0
  -17.1726    9.5510  -19.6849 F   0  0  0  0  0  0  0  0  0  0  0  0
  -15.7452   11.0192  -18.6632 F   0  0  0  0  0  0  0  0  0  0  0  0
  -16.0592   11.0558  -20.8450 F   0  0  0  0  0  0  0  0  0  0  0  0
  -18.8960   14.9763  -21.3985 C   0  0  0  0  0  0  0  0  0  0  0  0
  -18.4724   14.7509  -22.5342 O   0  0  0  0  0  0  0  0  0  0  0  0
  -19.4216   16.2316  -21.0324 N   0  0  0  0  0  0  0  0  0  0  0  0
  -19.7612   16.3326  -20.0086 H   0  0  0  0  0  0  0  0  0  0  0  0
  -19.5721   17.3841  -21.8061 C   0  0  0  0  0  0  0  0  0  0  0  0
  -18.4503   18.1748  -22.0336 C   0  0  0  0  0  0  0  0  0  0  0  0
  -18.5564   19.3222  -22.7765 C   0  0  0  0  0  0  0  0  0  0  0  0
  -19.7629   19.7561  -23.3350 C   0  0  0  0  0  0  0  0  0  0  0  0
  -19.7769   21.0047  -24.1244 C   0  0  0  0  0  0  0  0  0  0  0  0
  -20.8564   18.9604  -23.0972 C   0  0  0  0  0  0  0  0  0  0  0  0
  -20.7564   17.7746  -22.3316 C   0  0  0  0  0  0  0  0  0  0  0  0
  -22.1559   19.3274  -23.6296 C   0  0  0  0  0  0  0  0  0  0  0  0
  -23.0504   20.1797  -22.9650 N   0  0  0  0  0  0  0  0  0  0  0  0
  -22.4870   18.8355  -24.7703 O   0  0  0  0  0  0  0  0  0  0  0  0
  -23.7452   19.7875  -22.2957 H   0  0  0  0  0  0  0  0  0  0  0  0
  -23.0615   21.2092  -23.1206 H   0  0  0  0  0  0  0  0  0  0  0  0
  -18.7390   10.7047  -17.5251 C   0  0  0  0  0  0  0  0  0  0  0  0
  -19.0221    8.5839  -13.2190 C   0  0  0  0  0  0  0  0  0  0  0  0
  -18.9793    9.4255  -14.4006 N   0  0  0  0  0  0  0  0  0  0  0  0
  -20.1081   10.3309  -14.3752 C   0  0  0  0  0  0  0  0  0  0  0  0
  -20.2007   11.1593  -15.6367 C   0  0  0  0  0  0  0  0  0  0  0  0
  -19.9301   10.4205  -16.8200 N   0  0  0  0  0  0  0  0  0  0  0  0
  -19.9838    9.0047  -16.5332 C   0  0  0  0  0  0  0  0  0  0  0  0
  -18.9453    8.5712  -15.5459 C   0  0  0  0  0  0  0  0  0  0  0  0
 28 29  1  0  0  0
 29 30  1  0  0  0
 30 31  1  0  0  0
 31 32  1  0  0  0
 32 27  1  0  0  0
 27  1  1  0  0  0
  1  2  2  0  0  0
  2  3  1  0  0  0
  3  4  2  0  0  0
  4  5  1  0  0  0
  5  6  2  0  0  0
  6  7  1  0  0  0
  7  8  1  0  0  0
  7  9  1  0  0  0
  7 10  1  0  0  0
  4 11  1  0  0  0
 11 12  2  0  0  0
 11 13  1  0  0  0
 13 15  1  0  0  0
 15 16  2  0  0  0
 16 17  1  0  0  0
 17 18  2  0  0  0
 18 19  1  0  0  0
 18 20  1  0  0  0
 20 21  2  0  0  0
 20 22  1  0  0  0
 22 23  1  0  0  0
 22 24  2  0  0  0
 32 33  1  0  0  0
 33 34  1  0  0  0
 34 29  1  0  0  0
  6  1  1  0  0  0
 21 15  1  0  0  0
 13 14  1  0  0  0
 23 25  1  0  0  0
 23 26  1  0  0  0
M  END
> <minimizedAffinity>
-8.15891

> <CNNscore>
0.2287258655

> <CNNaffinity>
5.5987873077

> <CNN_VS>
1.2805874348

> <CNNaffinity_variance>
0.1297408938

$$$$
[H]c1c([H])c(C([H])([H])N2C([H])([H])C([H])([H])N(C([H])([H])[H])C([H])([H])C2([H])[H])c(C(F)(F)F)c([H])c1C(=O)N([H])c1c([H])c([H])c(C([H])([H])[H])c(C(=O)N([H])[H])c1[H]


 34 36  0  0  0  0  0  0  0  0999 V2000
  -18.9709   15.2201  -17.5631 C   0  0  0  0  0  0  0  0  0  0  0  0
  -18.2871   16.0165  -18.4416 C   0  0  0  0  0  0  0  0  0  0  0  0
  -17.8557   15.5827  -19.6930 C   0  0  0  0  0  0  0  0  0  0  0  0
  -18.1167   14.2873  -20.0970 C   0  0  0  0  0  0  0  0  0  0  0  0
  -18.7972   13.4933  -19.2246 C   0  0  0  0  0  0  0  0  0  0  0  0
  -19.2351   13.9082  -17.9732 C   0  0  0  0  0  0  0  0  0  0  0  0
  -19.9606   12.9918  -17.0935 C   0  0  0  0  0  0  0  0  0  0  0  0
  -21.3010   13.2938  -16.9303 F   0  0  0  0  0  0  0  0  0  0  0  0
  -19.3314   12.8011  -15.8742 F   0  0  0  0  0  0  0  0  0  0  0  0
  -19.9584   11.7231  -17.6922 F   0  0  0  0  0  0  0  0  0  0  0  0
  -17.6508   13.8215  -21.4253 C   0  0  0  0  0  0  0  0  0  0  0  0
  -17.0313   12.7562  -21.4654 O   0  0  0  0  0  0  0  0  0  0  0  0
  -17.9126   14.5778  -22.5853 N   0  0  0  0  0  0  0  0  0  0  0  0
  -18.4575   15.5036  -22.4448 H   0  0  0  0  0  0  0  0  0  0  0  0
  -17.5682   14.3069  -23.9110 C   0  0  0  0  0  0  0  0  0  0  0  0
  -18.0664   13.1474  -24.4963 C   0  0  0  0  0  0  0  0  0  0  0  0
  -17.7419   12.8362  -25.7915 C   0  0  0  0  0  0  0  0  0  0  0  0
  -16.9145   13.6411  -26.5811 C   0  0  0  0  0  0  0  0  0  0  0  0
  -16.6251   13.2244  -27.9685 C   0  0  0  0  0  0  0  0  0  0  0  0
  -16.4342   14.7798  -25.9825 C   0  0  0  0  0  0  0  0  0  0  0  0
  -16.7637   15.1089  -24.6463 C   0  0  0  0  0  0  0  0  0  0  0  0
  -15.5628   15.6787  -26.7171 C   0  0  0  0  0  0  0  0  0  0  0  0
  -14.4238   16.2781  -26.1588 N   0  0  0  0  0  0  0  0  0  0  0  0
  -15.8670   15.9268  -27.9412 O   0  0  0  0  0  0  0  0  0  0  0  0
  -14.5019   17.1971  -25.6750 H   0  0  0  0  0  0  0  0  0  0  0  0
  -13.4790   15.8441  -26.2159 H   0  0  0  0  0  0  0  0  0  0  0  0
  -19.4156   15.7353  -16.2778 C   0  0  0  0  0  0  0  0  0  0  0  0
  -23.2469   16.9634  -13.6446 C   0  0  0  0  0  0  0  0  0  0  0  0
  -21.9642   16.7040  -14.2720 N   0  0  0  0  0  0  0  0  0  0  0  0
  -21.1858   17.9241  -14.2749 C   0  0  0  0  0  0  0  0  0  0  0  0
  -19.8814   17.7643  -15.0225 C   0  0  0  0  0  0  0  0  0  0  0  0
  -20.0063   17.0179  -16.2253 N   0  0  0  0  0  0  0  0  0  0  0  0
  -21.4010   16.9119  -16.5901 C   0  0  0  0  0  0  0  0  0  0  0  0
  -22.2133   16.1706  -15.5742 C   0  0  0  0  0  0  0  0  0  0  0  0
 28 29  1  0  0  0
 29 30  1  0  0  0
 30 31  1  0  0  0
 31 32  1  0  0  0
 32 27  1  0  0  0
 27  1  1  0  0  0
  1  2  2  0  0  0
  2  3  1  0  0  0
  3  4  2  0  0  0
  4  5  1  0  0  0
  5  6  2  0  0  0
  6  7  1  0  0  0
  7  8  1  0  0  0
  7  9  1  0  0  0
  7 10  1  0  0  0
  4 11  1  0  0  0
 11 12  2  0  0  0
 11 13  1  0  0  0
 13 15  1  0  0  0
 15 16  2  0  0  0
 16 17  1  0  0  0
 17 18  2  0  0  0
 18 19  1  0  0  0
 18 20  1  0  0  0
 20 21  2  0  0  0
 20 22  1  0  0  0
 22 23  1  0  0  0
 22 24  2  0  0  0
 32 33  1  0  0  0
 33 34  1  0  0  0
 34 29  1  0  0  0
  6  1  1  0  0  0
 21 15  1  0  0  0
 13 14  1  0  0  0
 23 25  1  0  0  0
 23 26  1  0  0  0
M  END
> <minimizedAffinity>
-7.32650

> <CNNscore>
0.2143817246

> <CNNaffinity>
6.0529794693

> <CNN_VS>
1.2976481915

> <CNNaffinity_variance>
0.2131006271

$$$$
[H]c1c([H])c(C([H])([H])N2C([H])([H])C([H])([H])N(C([H])([H])[H])C([H])([H])C2([H])[H])c(C(F)(F)F)c([H])c1C(=O)N([H])c1c([H])c([H])c(C([H])([H])[H])c(C(=O)N([H])[H])c1[H]


 34 36  0  0  0  0  0  0  0  0999 V2000
  -17.7308   12.6282  -21.3694 C   0  0  0  0  0  0  0  0  0  0  0  0
  -18.6138   13.5738  -20.9227 C   0  0  0  0  0  0  0  0  0  0  0  0
  -19.0211   13.6753  -19.5945 C   0  0  0  0  0  0  0  0  0  0  0  0
  -18.5254   12.7905  -18.6560 C   0  0  0  0  0  0  0  0  0  0  0  0
  -17.6464   11.8489  -19.0982 C   0  0  0  0  0  0  0  0  0  0  0  0
  -17.2289   11.7325  -20.4180 C   0  0  0  0  0  0  0  0  0  0  0  0
  -16.2805   10.6911  -20.8129 C   0  0  0  0  0  0  0  0  0  0  0  0
  -15.3578   11.0865  -21.7650 F   0  0  0  0  0  0  0  0  0  0  0  0
  -16.8986    9.5034  -21.1679 F   0  0  0  0  0  0  0  0  0  0  0  0
  -15.5058   10.3621  -19.6905 F   0  0  0  0  0  0  0  0  0  0  0  0
  -18.9645   12.8918  -17.2434 C   0  0  0  0  0  0  0  0  0  0  0  0
  -18.5069   13.8210  -16.5745 O   0  0  0  0  0  0  0  0  0  0  0  0
  -19.8679   11.9555  -16.7020 N   0  0  0  0  0  0  0  0  0  0  0  0
  -20.2068   11.1710  -17.3681 H   0  0  0  0  0  0  0  0  0  0  0  0
  -20.4000   11.8871  -15.4129 C   0  0  0  0  0  0  0  0  0  0  0  0
  -21.4910   12.6945  -15.1079 C   0  0  0  0  0  0  0  0  0  0  0  0
  -22.0359   12.6686  -13.8501 C   0  0  0  0  0  0  0  0  0  0  0  0
  -21.5435   11.8531  -12.8262 C   0  0  0  0  0  0  0  0  0  0  0  0
  -22.2005   11.8913  -11.5036 C   0  0  0  0  0  0  0  0  0  0  0  0
  -20.4664   11.0653  -13.1499 C   0  0  0  0  0  0  0  0  0  0  0  0
  -19.8974   11.0856  -14.4453 C   0  0  0  0  0  0  0  0  0  0  0  0
  -19.8787   10.1874  -12.1546 C   0  0  0  0  0  0  0  0  0  0  0  0
  -18.8098   10.5635  -11.3274 N   0  0  0  0  0  0  0  0  0  0  0  0
  -20.3766    9.0076  -12.0400 O   0  0  0  0  0  0  0  0  0  0  0  0
  -17.8285   10.4077  -11.6397 H   0  0  0  0  0  0  0  0  0  0  0  0
  -18.9530   10.9907  -10.3887 H   0  0  0  0  0  0  0  0  0  0  0  0
  -17.3251   12.5848  -22.7653 C   0  0  0  0  0  0  0  0  0  0  0  0
  -14.0011   14.6988  -25.5227 C   0  0  0  0  0  0  0  0  0  0  0  0
  -15.0877   13.9708  -24.8937 N   0  0  0  0  0  0  0  0  0  0  0  0
  -16.3038   14.1981  -25.6446 C   0  0  0  0  0  0  0  0  0  0  0  0
  -17.5078   13.5694  -24.9804 C   0  0  0  0  0  0  0  0  0  0  0  0
  -17.5236   13.7302  -23.5686 N   0  0  0  0  0  0  0  0  0  0  0  0
  -16.5727   14.7487  -23.1838 C   0  0  0  0  0  0  0  0  0  0  0  0
  -15.1614   14.3870  -23.5285 C   0  0  0  0  0  0  0  0  0  0  0  0
 28 29  1  0  0  0
 29 30  1  0  0  0
 30 31  1  0  0  0
 31 32  1  0  0  0
 32 27  1  0  0  0
 27  1  1  0  0  0
  1  2  2  0  0  0
  2  3  1  0  0  0
  3  4  2  0  0  0
  4  5  1  0  0  0
  5  6  2  0  0  0
  6  7  1  0  0  0
  7  8  1  0  0  0
  7  9  1  0  0  0
  7 10  1  0  0  0
  4 11  1  0  0  0
 11 12  2  0  0  0
 11 13  1  0  0  0
 13 15  1  0  0  0
 15 16  2  0  0  0
 16 17  1  0  0  0
 17 18  2  0  0  0
 18 19  1  0  0  0
 18 20  1  0  0  0
 20 21  2  0  0  0
 20 22  1  0  0  0
 22 23  1  0  0  0
 22 24  2  0  0  0
 32 33  1  0  0  0
 33 34  1  0  0  0
 34 29  1  0  0  0
  6  1  1  0  0  0
 21 15  1  0  0  0
 13 14  1  0  0  0
 23 25  1  0  0  0
 23 26  1  0  0  0
M  END
> <minimizedAffinity>
-8.96027

> <CNNscore>
0.1999423206

> <CNNaffinity>
5.5783047676

> <CNN_VS>
1.1153391600

> <CNNaffinity_variance>
0.2141440809

$$$$
[H]c1c([H])c(C([H])([H])N2C([H])([H])C([H])([H])N(C([H])([H])[H])C([H])([H])C2([H])[H])c(C(F)(F)F)c([H])c1C(=O)N([H])c1c([H])c([H])c(C([H])([H])[H])c(C(=O)N([H])[H])c1[H]


 34 36  0  0  0  0  0  0  0  0999 V2000
  -17.7622   12.5626  -21.2604 C   0  0  0  0  0  0  0  0  0  0  0  0
  -18.7884   13.3298  -20.7788 C   0  0  0  0  0  0  0  0  0  0  0  0
  -19.3766   13.1278  -19.5324 C   0  0  0  0  0  0  0  0  0  0  0  0
  -18.9223   12.1088  -18.7171 C   0  0  0  0  0  0  0  0  0  0  0  0
  -17.9012   11.3444  -19.1941 C   0  0  0  0  0  0  0  0  0  0  0  0
  -17.3025   11.5308  -20.4337 C   0  0  0  0  0  0  0  0  0  0  0  0
  -16.2090   10.6643  -20.8735 C   0  0  0  0  0  0  0  0  0  0  0  0
  -15.4477   11.1809  -21.9069 F   0  0  0  0  0  0  0  0  0  0  0  0
  -16.6207    9.3698  -21.1448 F   0  0  0  0  0  0  0  0  0  0  0  0
  -15.3067   10.5300  -19.8077 F   0  0  0  0  0  0  0  0  0  0  0  0
  -19.5531   11.8872  -17.3936 C   0  0  0  0  0  0  0  0  0  0  0  0
  -19.7022   12.8717  -16.6665 O   0  0  0  0  0  0  0  0  0  0  0  0
  -19.9592   10.5972  -16.9973 N   0  0  0  0  0  0  0  0  0  0  0  0
  -19.7778    9.7959  -17.7036 H   0  0  0  0  0  0  0  0  0  0  0  0
  -20.5707   10.1913  -15.8095 C   0  0  0  0  0  0  0  0  0  0  0  0
  -19.7573    9.8622  -14.7299 C   0  0  0  0  0  0  0  0  0  0  0  0
  -20.3159    9.4458  -13.5492 C   0  0  0  0  0  0  0  0  0  0  0  0
  -21.6971    9.3293  -13.3624 C   0  0  0  0  0  0  0  0  0  0  0  0
  -22.2052    8.8759  -12.0515 C   0  0  0  0  0  0  0  0  0  0  0  0
  -22.4799    9.6589  -14.4412 C   0  0  0  0  0  0  0  0  0  0  0  0
  -21.9121   10.0895  -15.6637 C   0  0  0  0  0  0  0  0  0  0  0  0
  -23.9256    9.5662  -14.3496 C   0  0  0  0  0  0  0  0  0  0  0  0
  -24.7428   10.6273  -13.9320 N   0  0  0  0  0  0  0  0  0  0  0  0
  -24.4670    8.4454  -14.6715 O   0  0  0  0  0  0  0  0  0  0  0  0
  -24.9651   10.7483  -12.9217 H   0  0  0  0  0  0  0  0  0  0  0  0
  -25.1576   11.3097  -14.6002 H   0  0  0  0  0  0  0  0  0  0  0  0
  -17.1724   12.8349  -22.5616 C   0  0  0  0  0  0  0  0  0  0  0  0
  -14.1847   14.9622  -25.6711 C   0  0  0  0  0  0  0  0  0  0  0  0
  -15.2218   14.2761  -24.9226 N   0  0  0  0  0  0  0  0  0  0  0  0
  -16.5142   14.7704  -25.3466 C   0  0  0  0  0  0  0  0  0  0  0  0
  -17.6424   14.1897  -24.5245 C   0  0  0  0  0  0  0  0  0  0  0  0
  -17.3499   14.1137  -23.1360 N   0  0  0  0  0  0  0  0  0  0  0  0
  -16.1963   14.9315  -22.8358 C   0  0  0  0  0  0  0  0  0  0  0  0
  -14.9554   14.4647  -23.5313 C   0  0  0  0  0  0  0  0  0  0  0  0
 28 29  1  0  0  0
 29 30  1  0  0  0
 30 31  1  0  0  0
 31 32  1  0  0  0
 32 27  1  0  0  0
 27  1  1  0  0  0
  1  2  2  0  0  0
  2  3  1  0  0  0
  3  4  2  0  0  0
  4  5  1  0  0  0
  5  6  2  0  0  0
  6  7  1  0  0  0
  7  8  1  0  0  0
  7  9  1  0  0  0
  7 10  1  0  0  0
  4 11  1  0  0  0
 11 12  2  0  0  0
 11 13  1  0  0  0
 13 15  1  0  0  0
 15 16  2  0  0  0
 16 17  1  0  0  0
 17 18  2  0  0  0
 18 19  1  0  0  0
 18 20  1  0  0  0
 20 21  2  0  0  0
 20 22  1  0  0  0
 22 23  1  0  0  0
 22 24  2  0  0  0
 32 33  1  0  0  0
 33 34  1  0  0  0
 34 29  1  0  0  0
  6  1  1  0  0  0
 21 15  1  0  0  0
 13 14  1  0  0  0
 23 25  1  0  0  0
 23 26  1  0  0  0
M  END
> <minimizedAffinity>
-8.63529

> <CNNscore>
0.1978791207

> <CNNaffinity>
5.6914787292

> <CNN_VS>
1.1262247562

> <CNNaffinity_variance>
0.1391192079

$$$$
[H]c1nc(N2C([H])([H])C([H])([H])c3nc(-c4c([H])c([H])c([H])c([H])c4[H])nc(N([H])c4nc([H])c(C(F)(F)F)c([H])c4[H])c3C([H])([H])C2([H])[H])c(C(F)(F)F)c([H])c1[H]


 39 43  0  0  0  0  0  0  0  0999 V2000
  -22.1777   15.0154  -20.0961 C   0  0  0  0  0  0  0  0  0  0  0  0
  -21.2763   14.1678  -20.6486 N   0  0  0  0  0  0  0  0  0  0  0  0
  -20.5463   13.3175  -19.9251 C   0  0  0  0  0  0  0  0  0  0  0  0
  -20.7382   13.3067  -18.5508 N   0  0  0  0  0  0  0  0  0  0  0  0
  -21.6076   14.1101  -17.9330 C   0  0  0  0  0  0  0  0  0  0  0  0
  -21.6823   13.8175  -16.4636 C   0  0  0  0  0  0  0  0  0  0  0  0
  -21.7933   15.0637  -15.6050 C   0  0  0  0  0  0  0  0  0  0  0  0
  -22.9283   15.8306  -15.9531 N   0  0  0  0  0  0  0  0  0  0  0  0
  -23.9330   15.4764  -16.9959 C   0  0  0  0  0  0  0  0  0  0  0  0
  -23.3517   15.9267  -18.3351 C   0  0  0  0  0  0  0  0  0  0  0  0
  -22.3087   14.9493  -18.6894 C   0  0  0  0  0  0  0  0  0  0  0  0
  -23.2724   17.0743  -15.3989 C   0  0  0  0  0  0  0  0  0  0  0  0
  -23.3968   18.1597  -16.2434 N   0  0  0  0  0  0  0  0  0  0  0  0
  -23.7739   19.3634  -15.8643 C   0  0  0  0  0  0  0  0  0  0  0  0
  -24.0691   19.5938  -14.5490 C   0  0  0  0  0  0  0  0  0  0  0  0
  -23.9784   18.5791  -13.6315 C   0  0  0  0  0  0  0  0  0  0  0  0
  -23.5702   17.3004  -14.0886 C   0  0  0  0  0  0  0  0  0  0  0  0
  -23.4294   16.2045  -13.0862 C   0  0  0  0  0  0  0  0  0  0  0  0
  -22.6609   15.1696  -13.6760 F   0  0  0  0  0  0  0  0  0  0  0  0
  -22.8681   16.5423  -11.9222 F   0  0  0  0  0  0  0  0  0  0  0  0
  -24.6806   15.5416  -12.9577 F   0  0  0  0  0  0  0  0  0  0  0  0
  -19.3231   12.6387  -20.3263 C   0  0  0  0  0  0  0  0  0  0  0  0
  -18.0988   12.9722  -19.8293 C   0  0  0  0  0  0  0  0  0  0  0  0
  -16.9181   12.5528  -20.4206 C   0  0  0  0  0  0  0  0  0  0  0  0
  -16.9888   11.7714  -21.5489 C   0  0  0  0  0  0  0  0  0  0  0  0
  -18.2058   11.4177  -22.0696 C   0  0  0  0  0  0  0  0  0  0  0  0
  -19.3660   11.8491  -21.4582 C   0  0  0  0  0  0  0  0  0  0  0  0
  -22.8007   16.0557  -20.7559 N   0  0  0  0  0  0  0  0  0  0  0  0
  -23.8356   15.9975  -20.9607 H   0  0  0  0  0  0  0  0  0  0  0  0
  -20.2032   19.2030  -21.4087 C   0  0  0  0  0  0  0  0  0  0  0  0
  -20.5370   18.4271  -22.5285 C   0  0  0  0  0  0  0  0  0  0  0  0
  -21.5313   17.4672  -22.3881 C   0  0  0  0  0  0  0  0  0  0  0  0
  -22.1797   17.2590  -21.2179 C   0  0  0  0  0  0  0  0  0  0  0  0
  -21.8068   18.0831  -20.1466 N   0  0  0  0  0  0  0  0  0  0  0  0
  -20.8732   18.9994  -20.2309 C   0  0  0  0  0  0  0  0  0  0  0  0
  -18.7925   20.5279  -20.1164 F   0  0  0  0  0  0  0  0  0  0  0  0
  -19.0374   20.1300  -21.4374 C   0  0  0  0  0  0  0  0  0  0  0  0
  -19.1735   21.2030  -22.2549 F   0  0  0  0  0  0  0  0  0  0  0  0
  -17.9284   19.3582  -21.8140 F   0  0  0  0  0  0  0  0  0  0  0  0
 36 37  1  0  0  0
 37 38  1  0  0  0
 37 39  1  0  0  0
 37 30  1  0  0  0
 30 31  2  0  0  0
 31 32  1  0  0  0
 32 33  2  0  0  0
 33 28  1  0  0  0
 28  1  1  0  0  0
  1  2  2  0  0  0
  2  3  1  0  0  0
  3  4  2  0  0  0
  4  5  1  0  0  0
  5  6  1  0  0  0
  6  7  1  0  0  0
  7  8  1  0  0  0
  8  9  1  0  0  0
  9 10  1  0  0  0
 10 11  1  0  0  0
  8 12  1  0  0  0
 12 13  2  0  0  0
 13 14  1  0  0  0
 14 15  2  0  0  0
 15 16  1  0  0  0
 16 17  2  0  0  0
 17 18  1  0  0  0
 18 19  1  0  0  0
 18 20  1  0  0  0
 18 21  1  0  0  0
  3 22  1  0  0  0
 22 23  2  0  0  0
 23 24  1  0  0  0
 24 25  2  0  0  0
 25 26  1  0  0  0
 26 27  2  0  0  0
 33 34  1  0  0  0
 34 35  2  0  0  0
 35 30  1  0  0  0
 11  1  1  0  0  0
 17 12  1  0  0  0
 27 22  1  0  0  0
 11  5  2  0  0  0
 28 29  1  0  0  0
M  END
> <minimizedAffinity>
0.39532

> <CNNscore>
0.4114086926

> <CNNaffinity>
6.8829145432

> <CNN_VS>
2.8316907883

> <CNNaffinity_variance>
2.5676095486

$$$$
[H]c1nc(N2C([H])([H])C([H])([H])c3nc(-c4c([H])c([H])c([H])c([H])c4[H])nc(N([H])c4nc([H])c(C(F)(F)F)c([H])c4[H])c3C([H])([H])C2([H])[H])c(C(F)(F)F)c([H])c1[H]


 39 43  0  0  0  0  0  0  0  0999 V2000
  -18.2312   15.7371  -20.5468 C   0  0  0  0  0  0  0  0  0  0  0  0
  -18.8331   15.0884  -19.5205 N   0  0  0  0  0  0  0  0  0  0  0  0
  -18.6273   13.7958  -19.2629 C   0  0  0  0  0  0  0  0  0  0  0  0
  -17.7486   13.1040  -20.0844 N   0  0  0  0  0  0  0  0  0  0  0  0
  -17.1168   13.6731  -21.1140 C   0  0  0  0  0  0  0  0  0  0  0  0
  -16.1556   12.7234  -21.7654 C   0  0  0  0  0  0  0  0  0  0  0  0
  -16.1381   12.8263  -23.2792 C   0  0  0  0  0  0  0  0  0  0  0  0
  -15.8112   14.1342  -23.7037 N   0  0  0  0  0  0  0  0  0  0  0  0
  -15.4808   15.2826  -22.8125 C   0  0  0  0  0  0  0  0  0  0  0  0
  -16.8110   15.8794  -22.3558 C   0  0  0  0  0  0  0  0  0  0  0  0
  -17.3568   14.9608  -21.3425 C   0  0  0  0  0  0  0  0  0  0  0  0
  -15.7838   14.5750  -25.0369 C   0  0  0  0  0  0  0  0  0  0  0  0
  -14.8025   15.4702  -25.4144 N   0  0  0  0  0  0  0  0  0  0  0  0
  -14.6260   15.9132  -26.6420 C   0  0  0  0  0  0  0  0  0  0  0  0
  -15.4550   15.4807  -27.6401 C   0  0  0  0  0  0  0  0  0  0  0  0
  -16.4597   14.5888  -27.3670 C   0  0  0  0  0  0  0  0  0  0  0  0
  -16.6083   14.1393  -26.0303 C   0  0  0  0  0  0  0  0  0  0  0  0
  -17.7268   13.2017  -25.7214 C   0  0  0  0  0  0  0  0  0  0  0  0
  -17.1891   12.1007  -25.0086 F   0  0  0  0  0  0  0  0  0  0  0  0
  -18.7419   13.7104  -25.0181 F   0  0  0  0  0  0  0  0  0  0  0  0
  -18.1202   12.5509  -26.9227 F   0  0  0  0  0  0  0  0  0  0  0  0
  -19.4556   12.9119  -18.4564 C   0  0  0  0  0  0  0  0  0  0  0  0
  -20.4783   13.3670  -17.6792 C   0  0  0  0  0  0  0  0  0  0  0  0
  -21.0613   12.5912  -16.6902 C   0  0  0  0  0  0  0  0  0  0  0  0
  -20.5883   11.3166  -16.4896 C   0  0  0  0  0  0  0  0  0  0  0  0
  -19.5630   10.8309  -17.2579 C   0  0  0  0  0  0  0  0  0  0  0  0
  -19.0023   11.6262  -18.2372 C   0  0  0  0  0  0  0  0  0  0  0  0
  -18.5612   17.0012  -20.9925 N   0  0  0  0  0  0  0  0  0  0  0  0
  -17.7965   17.7105  -21.1610 H   0  0  0  0  0  0  0  0  0  0  0  0
  -22.2981   17.6906  -22.6171 C   0  0  0  0  0  0  0  0  0  0  0  0
  -22.2693   17.2245  -21.2944 C   0  0  0  0  0  0  0  0  0  0  0  0
  -21.0383   17.1391  -20.6563 C   0  0  0  0  0  0  0  0  0  0  0  0
  -19.8795   17.4866  -21.2641 C   0  0  0  0  0  0  0  0  0  0  0  0
  -19.9864   17.9607  -22.5792 N   0  0  0  0  0  0  0  0  0  0  0  0
  -21.1245   18.0559  -23.2227 C   0  0  0  0  0  0  0  0  0  0  0  0
  -24.1130   18.9336  -23.3763 F   0  0  0  0  0  0  0  0  0  0  0  0
  -23.5537   17.6496  -23.4178 C   0  0  0  0  0  0  0  0  0  0  0  0
  -24.4530   16.7108  -23.0330 F   0  0  0  0  0  0  0  0  0  0  0  0
  -23.1657   17.4466  -24.7504 F   0  0  0  0  0  0  0  0  0  0  0  0
 36 37  1  0  0  0
 37 38  1  0  0  0
 37 39  1  0  0  0
 37 30  1  0  0  0
 30 31  2  0  0  0
 31 32  1  0  0  0
 32 33  2  0  0  0
 33 28  1  0  0  0
 28  1  1  0  0  0
  1  2  2  0  0  0
  2  3  1  0  0  0
  3  4  2  0  0  0
  4  5  1  0  0  0
  5  6  1  0  0  0
  6  7  1  0  0  0
  7  8  1  0  0  0
  8  9  1  0  0  0
  9 10  1  0  0  0
 10 11  1  0  0  0
  8 12  1  0  0  0
 12 13  2  0  0  0
 13 14  1  0  0  0
 14 15  2  0  0  0
 15 16  1  0  0  0
 16 17  2  0  0  0
 17 18  1  0  0  0
 18 19  1  0  0  0
 18 20  1  0  0  0
 18 21  1  0  0  0
  3 22  1  0  0  0
 22 23  2  0  0  0
 23 24  1  0  0  0
 24 25  2  0  0  0
 25 26  1  0  0  0
 26 27  2  0  0  0
 33 34  1  0  0  0
 34 35  2  0  0  0
 35 30  1  0  0  0
 11  1  1  0  0  0
 17 12  1  0  0  0
 27 22  1  0  0  0
 11  5  2  0  0  0
 28 29  1  0  0  0
M  END
> <minimizedAffinity>
-9.97040

> <CNNscore>
0.1672172397

> <CNNaffinity>
7.7367949486

> <CNN_VS>
1.2937254906

> <CNNaffinity_variance>
0.0718186051

$$$$
[H]c1nc(N2C([H])([H])C([H])([H])c3nc(-c4c([H])c([H])c([H])c([H])c4[H])nc(N([H])c4nc([H])c(C(F)(F)F)c([H])c4[H])c3C([H])([H])C2([H])[H])c(C(F)(F)F)c([H])c1[H]


 39 43  0  0  0  0  0  0  0  0999 V2000
  -17.5369   13.9329  -21.1952 C   0  0  0  0  0  0  0  0  0  0  0  0
  -16.8583   13.7197  -22.3486 N   0  0  0  0  0  0  0  0  0  0  0  0
  -16.1997   14.6871  -22.9888 C   0  0  0  0  0  0  0  0  0  0  0  0
  -16.2119   15.9574  -22.4304 N   0  0  0  0  0  0  0  0  0  0  0  0
  -16.8563   16.2460  -21.2970 C   0  0  0  0  0  0  0  0  0  0  0  0
  -16.6195   17.6652  -20.8730 C   0  0  0  0  0  0  0  0  0  0  0  0
  -17.8564   18.3418  -20.3119 C   0  0  0  0  0  0  0  0  0  0  0  0
  -18.3707   17.6365  -19.2002 N   0  0  0  0  0  0  0  0  0  0  0  0
  -17.7817   16.4054  -18.6006 C   0  0  0  0  0  0  0  0  0  0  0  0
  -18.2777   15.2290  -19.4399 C   0  0  0  0  0  0  0  0  0  0  0  0
  -17.5083   15.2557  -20.6953 C   0  0  0  0  0  0  0  0  0  0  0  0
  -19.5464   17.9599  -18.5033 C   0  0  0  0  0  0  0  0  0  0  0  0
  -19.4414   18.3652  -17.1874 N   0  0  0  0  0  0  0  0  0  0  0  0
  -20.4543   18.7558  -16.4417 C   0  0  0  0  0  0  0  0  0  0  0  0
  -21.7147   18.7723  -16.9724 C   0  0  0  0  0  0  0  0  0  0  0  0
  -21.9230   18.3900  -18.2724 C   0  0  0  0  0  0  0  0  0  0  0  0
  -20.8005   17.9797  -19.0356 C   0  0  0  0  0  0  0  0  0  0  0  0
  -21.0292   17.5226  -20.4372 C   0  0  0  0  0  0  0  0  0  0  0  0
  -22.4281   17.4964  -20.6650 F   0  0  0  0  0  0  0  0  0  0  0  0
  -20.4547   18.2555  -21.3946 F   0  0  0  0  0  0  0  0  0  0  0  0
  -20.7392   16.1330  -20.5158 F   0  0  0  0  0  0  0  0  0  0  0  0
  -15.7560   14.6875  -24.3748 C   0  0  0  0  0  0  0  0  0  0  0  0
  -14.5408   15.1702  -24.7589 C   0  0  0  0  0  0  0  0  0  0  0  0
  -14.2392   15.4551  -26.0808 C   0  0  0  0  0  0  0  0  0  0  0  0
  -15.2033   15.2408  -27.0364 C   0  0  0  0  0  0  0  0  0  0  0  0
  -16.4333   14.7533  -26.6803 C   0  0  0  0  0  0  0  0  0  0  0  0
  -16.7052   14.4771  -25.3553 C   0  0  0  0  0  0  0  0  0  0  0  0
  -18.4054   13.0368  -20.6052 N   0  0  0  0  0  0  0  0  0  0  0  0
  -19.3981   12.9631  -20.9593 H   0  0  0  0  0  0  0  0  0  0  0  0
  -18.5533   10.1178  -17.6835 C   0  0  0  0  0  0  0  0  0  0  0  0
  -17.5362    9.9909  -18.6410 C   0  0  0  0  0  0  0  0  0  0  0  0
  -17.3470   11.0344  -19.5383 C   0  0  0  0  0  0  0  0  0  0  0  0
  -18.1051   12.1560  -19.5184 C   0  0  0  0  0  0  0  0  0  0  0  0
  -19.0904   12.2214  -18.5230 N   0  0  0  0  0  0  0  0  0  0  0  0
  -19.3075   11.2615  -17.6572 C   0  0  0  0  0  0  0  0  0  0  0  0
  -17.7315    8.3636  -16.3940 F   0  0  0  0  0  0  0  0  0  0  0  0
  -18.9241    8.9755  -16.8020 C   0  0  0  0  0  0  0  0  0  0  0  0
  -19.7737    8.0738  -17.3529 F   0  0  0  0  0  0  0  0  0  0  0  0
  -19.4803    9.5356  -15.6426 F   0  0  0  0  0  0  0  0  0  0  0  0
 36 37  1  0  0  0
 37 38  1  0  0  0
 37 39  1  0  0  0
 37 30  1  0  0  0
 30 31  2  0  0  0
 31 32  1  0  0  0
 32 33  2  0  0  0
 33 28  1  0  0  0
 28  1  1  0  0  0
  1  2  2  0  0  0
  2  3  1  0  0  0
  3  4  2  0  0  0
  4  5  1  0  0  0
  5  6  1  0  0  0
  6  7  1  0  0  0
  7  8  1  0  0  0
  8  9  1  0  0  0
  9 10  1  0  0  0
 10 11  1  0  0  0
  8 12  1  0  0  0
 12 13  2  0  0  0
 13 14  1  0  0  0
 14 15  2  0  0  0
 15 16  1  0  0  0
 16 17  2  0  0  0
 17 18  1  0  0  0
 18 19  1  0  0  0
 18 20  1  0  0  0
 18 21  1  0  0  0
  3 22  1  0  0  0
 22 23  2  0  0  0
 23 24  1  0  0  0
 24 25  2  0  0  0
 25 26  1  0  0  0
 26 27  2  0  0  0
 33 34  1  0  0  0
 34 35  2  0  0  0
 35 30  1  0  0  0
 11  1  1  0  0  0
 17 12  1  0  0  0
 27 22  1  0  0  0
 11  5  2  0  0  0
 28 29  1  0  0  0
M  END
> <minimizedAffinity>
-9.98410

> <CNNscore>
0.1571379155

> <CNNaffinity>
7.5189843178

> <CNN_VS>
1.1815174818

> <CNNaffinity_variance>
0.0811194479

$$$$
[H]c1nc(N2C([H])([H])C([H])([H])c3nc(-c4c([H])c([H])c([H])c([H])c4[H])nc(N([H])c4nc([H])c(C(F)(F)F)c([H])c4[H])c3C([H])([H])C2([H])[H])c(C(F)(F)F)c([H])c1[H]


 39 43  0  0  0  0  0  0  0  0999 V2000
  -18.4982   14.5707  -20.4323 C   0  0  0  0  0  0  0  0  0  0  0  0
  -18.8894   13.7437  -19.4326 N   0  0  0  0  0  0  0  0  0  0  0  0
  -18.3111   12.5637  -19.2032 C   0  0  0  0  0  0  0  0  0  0  0  0
  -17.2592   12.1875  -20.0263 N   0  0  0  0  0  0  0  0  0  0  0  0
  -16.8158   12.9474  -21.0308 C   0  0  0  0  0  0  0  0  0  0  0  0
  -15.6100   12.3448  -21.6887 C   0  0  0  0  0  0  0  0  0  0  0  0
  -15.6102   12.4913  -23.1991 C   0  0  0  0  0  0  0  0  0  0  0  0
  -15.6829   13.8488  -23.5857 N   0  0  0  0  0  0  0  0  0  0  0  0
  -15.7167   15.0177  -22.6613 C   0  0  0  0  0  0  0  0  0  0  0  0
  -17.1683   15.1795  -22.2128 C   0  0  0  0  0  0  0  0  0  0  0  0
  -17.4256   14.1118  -21.2317 C   0  0  0  0  0  0  0  0  0  0  0  0
  -15.7757   14.3156  -24.9071 C   0  0  0  0  0  0  0  0  0  0  0  0
  -14.7769   15.1402  -25.3858 N   0  0  0  0  0  0  0  0  0  0  0  0
  -14.7097   15.5953  -26.6199 C   0  0  0  0  0  0  0  0  0  0  0  0
  -15.6808   15.2505  -27.5190 C   0  0  0  0  0  0  0  0  0  0  0  0
  -16.7147   14.4333  -27.1411 C   0  0  0  0  0  0  0  0  0  0  0  0
  -16.7421   13.9671  -25.8022 C   0  0  0  0  0  0  0  0  0  0  0  0
  -17.8881   13.1123  -25.3760 C   0  0  0  0  0  0  0  0  0  0  0  0
  -18.1976   12.2330  -26.4439 F   0  0  0  0  0  0  0  0  0  0  0  0
  -17.7011   12.3893  -24.2686 F   0  0  0  0  0  0  0  0  0  0  0  0
  -19.0671   13.9068  -25.3595 F   0  0  0  0  0  0  0  0  0  0  0  0
  -18.8466   11.4511  -18.4329 C   0  0  0  0  0  0  0  0  0  0  0  0
  -19.8436   11.6025  -17.5162 C   0  0  0  0  0  0  0  0  0  0  0  0
  -20.1411   10.6297  -16.5754 C   0  0  0  0  0  0  0  0  0  0  0  0
  -19.4018    9.4714  -16.5706 C   0  0  0  0  0  0  0  0  0  0  0  0
  -18.3951    9.2900  -17.4822 C   0  0  0  0  0  0  0  0  0  0  0  0
  -18.1220   10.2760  -18.4091 C   0  0  0  0  0  0  0  0  0  0  0  0
  -19.1850   15.6920  -20.8525 N   0  0  0  0  0  0  0  0  0  0  0  0
  -19.4657   15.7814  -21.8671 H   0  0  0  0  0  0  0  0  0  0  0  0
  -20.5473   18.0894  -17.7743 C   0  0  0  0  0  0  0  0  0  0  0  0
  -19.2268   18.3051  -18.1952 C   0  0  0  0  0  0  0  0  0  0  0  0
  -18.7844   17.6402  -19.3319 C   0  0  0  0  0  0  0  0  0  0  0  0
  -19.5781   16.8000  -20.0370 C   0  0  0  0  0  0  0  0  0  0  0  0
  -20.8907   16.6468  -19.5685 N   0  0  0  0  0  0  0  0  0  0  0  0
  -21.3516   17.2505  -18.5002 C   0  0  0  0  0  0  0  0  0  0  0  0
  -21.1378   17.5540  -15.5880 F   0  0  0  0  0  0  0  0  0  0  0  0
  -21.0374   18.6326  -16.4765 C   0  0  0  0  0  0  0  0  0  0  0  0
  -22.2026   19.3226  -16.5431 F   0  0  0  0  0  0  0  0  0  0  0  0
  -20.0093   19.4443  -15.9748 F   0  0  0  0  0  0  0  0  0  0  0  0
 36 37  1  0  0  0
 37 38  1  0  0  0
 37 39  1  0  0  0
 37 30  1  0  0  0
 30 31  2  0  0  0
 31 32  1  0  0  0
 32 33  2  0  0  0
 33 28  1  0  0  0
 28  1  1  0  0  0
  1  2  2  0  0  0
  2  3  1  0  0  0
  3  4  2  0  0  0
  4  5  1  0  0  0
  5  6  1  0  0  0
  6  7  1  0  0  0
  7  8  1  0  0  0
  8  9  1  0  0  0
  9 10  1  0  0  0
 10 11  1  0  0  0
  8 12  1  0  0  0
 12 13  2  0  0  0
 13 14  1  0  0  0
 14 15  2  0  0  0
 15 16  1  0  0  0
 16 17  2  0  0  0
 17 18  1  0  0  0
 18 19  1  0  0  0
 18 20  1  0  0  0
 18 21  1  0  0  0
  3 22  1  0  0  0
 22 23  2  0  0  0
 23 24  1  0  0  0
 24 25  2  0  0  0
 25 26  1  0  0  0
 26 27  2  0  0  0
 33 34  1  0  0  0
 34 35  2  0  0  0
 35 30  1  0  0  0
 11  1  1  0  0  0
 17 12  1  0  0  0
 27 22  1  0  0  0
 11  5  2  0  0  0
 28 29  1  0  0  0
M  END
> <minimizedAffinity>
-9.33516

> <CNNscore>
0.1519477069

> <CNNaffinity>
7.4976968765

> <CNN_VS>
1.1392577887

> <CNNaffinity_variance>
0.2684594095

$$$$
[H]c1nc(N2C([H])([H])C([H])([H])c3nc(-c4c([H])c([H])c([H])c([H])c4[H])nc(N([H])c4nc([H])c(C(F)(F)F)c([H])c4[H])c3C([H])([H])C2([H])[H])c(C(F)(F)F)c([H])c1[H]


 39 43  0  0  0  0  0  0  0  0999 V2000
  -19.5772   13.4704  -19.7730 C   0  0  0  0  0  0  0  0  0  0  0  0
  -19.8381   12.7129  -18.6801 N   0  0  0  0  0  0  0  0  0  0  0  0
  -19.0310   11.7328  -18.2710 C   0  0  0  0  0  0  0  0  0  0  0  0
  -17.8744   11.4994  -19.0013 N   0  0  0  0  0  0  0  0  0  0  0  0
  -17.5477   12.2032  -20.0880 C   0  0  0  0  0  0  0  0  0  0  0  0
  -16.2018   11.8071  -20.6187 C   0  0  0  0  0  0  0  0  0  0  0  0
  -16.1424   11.7533  -22.1340 C   0  0  0  0  0  0  0  0  0  0  0  0
  -16.4863   12.9981  -22.7083 N   0  0  0  0  0  0  0  0  0  0  0  0
  -16.8307   14.2389  -21.9573 C   0  0  0  0  0  0  0  0  0  0  0  0
  -18.3070   14.1271  -21.5800 C   0  0  0  0  0  0  0  0  0  0  0  0
  -18.3838   13.1649  -20.4678 C   0  0  0  0  0  0  0  0  0  0  0  0
  -16.5987   13.2573  -24.0840 C   0  0  0  0  0  0  0  0  0  0  0  0
  -17.6047   12.6303  -24.7921 N   0  0  0  0  0  0  0  0  0  0  0  0
  -17.8594   12.8324  -26.0684 C   0  0  0  0  0  0  0  0  0  0  0  0
  -17.0932   13.7167  -26.7765 C   0  0  0  0  0  0  0  0  0  0  0  0
  -16.0703   14.3921  -26.1624 C   0  0  0  0  0  0  0  0  0  0  0  0
  -15.8367   14.1421  -24.7862 C   0  0  0  0  0  0  0  0  0  0  0  0
  -14.6979   14.8433  -24.1251 C   0  0  0  0  0  0  0  0  0  0  0  0
  -13.7587   15.1921  -25.1279 F   0  0  0  0  0  0  0  0  0  0  0  0
  -15.0082   15.9412  -23.4307 F   0  0  0  0  0  0  0  0  0  0  0  0
  -13.9380   13.8889  -23.3949 F   0  0  0  0  0  0  0  0  0  0  0  0
  -19.3562   10.6375  -17.3696 C   0  0  0  0  0  0  0  0  0  0  0  0
  -20.1999   10.7822  -16.3092 C   0  0  0  0  0  0  0  0  0  0  0  0
  -20.2729    9.8508  -15.2861 C   0  0  0  0  0  0  0  0  0  0  0  0
  -19.4638    8.7417  -15.3471 C   0  0  0  0  0  0  0  0  0  0  0  0
  -18.6077    8.5679  -16.4027 C   0  0  0  0  0  0  0  0  0  0  0  0
  -18.5573    9.5119  -17.4087 C   0  0  0  0  0  0  0  0  0  0  0  0
  -20.4655   14.3448  -20.3661 N   0  0  0  0  0  0  0  0  0  0  0  0
  -20.8373   14.1342  -21.3324 H   0  0  0  0  0  0  0  0  0  0  0  0
  -22.6875   17.7189  -19.4962 C   0  0  0  0  0  0  0  0  0  0  0  0
  -22.5436   16.7830  -18.4615 C   0  0  0  0  0  0  0  0  0  0  0  0
  -21.6707   15.7200  -18.6560 C   0  0  0  0  0  0  0  0  0  0  0  0
  -20.9638   15.5605  -19.7997 C   0  0  0  0  0  0  0  0  0  0  0  0
  -21.1442   16.5437  -20.7829 N   0  0  0  0  0  0  0  0  0  0  0  0
  -21.9582   17.5619  -20.6456 C   0  0  0  0  0  0  0  0  0  0  0  0
  -24.3813   18.8051  -20.6653 F   0  0  0  0  0  0  0  0  0  0  0  0
  -23.7255   18.7854  -19.4273 C   0  0  0  0  0  0  0  0  0  0  0  0
  -23.2658   20.0173  -19.0967 F   0  0  0  0  0  0  0  0  0  0  0  0
  -24.6804   18.3475  -18.4979 F   0  0  0  0  0  0  0  0  0  0  0  0
 36 37  1  0  0  0
 37 38  1  0  0  0
 37 39  1  0  0  0
 37 30  1  0  0  0
 30 31  2  0  0  0
 31 32  1  0  0  0
 32 33  2  0  0  0
 33 28  1  0  0  0
 28  1  1  0  0  0
  1  2  2  0  0  0
  2  3  1  0  0  0
  3  4  2  0  0  0
  4  5  1  0  0  0
  5  6  1  0  0  0
  6  7  1  0  0  0
  7  8  1  0  0  0
  8  9  1  0  0  0
  9 10  1  0  0  0
 10 11  1  0  0  0
  8 12  1  0  0  0
 12 13  2  0  0  0
 13 14  1  0  0  0
 14 15  2  0  0  0
 15 16  1  0  0  0
 16 17  2  0  0  0
 17 18  1  0  0  0
 18 19  1  0  0  0
 18 20  1  0  0  0
 18 21  1  0  0  0
  3 22  1  0  0  0
 22 23  2  0  0  0
 23 24  1  0  0  0
 24 25  2  0  0  0
 25 26  1  0  0  0
 26 27  2  0  0  0
 33 34  1  0  0  0
 34 35  2  0  0  0
 35 30  1  0  0  0
 11  1  1  0  0  0
 17 12  1  0  0  0
 27 22  1  0  0  0
 11  5  2  0  0  0
 28 29  1  0  0  0
M  END
> <minimizedAffinity>
-9.54869

> <CNNscore>
0.1043887660

> <CNNaffinity>
7.3107490540

> <CNN_VS>
0.7631600499

> <CNNaffinity_variance>
0.1183460578

$$$$
[H]c1nc(N2C([H])([H])C([H])([H])c3nc(-c4c([H])c([H])c([H])c([H])c4[H])nc(N([H])c4nc([H])c(C(F)(F)F)c([H])c4[H])c3C([H])([H])C2([H])[H])c(C(F)(F)F)c([H])c1[H]


 39 43  0  0  0  0  0  0  0  0999 V2000
  -17.9022   17.0483  -22.3262 C   0  0  0  0  0  0  0  0  0  0  0  0
  -18.6608   17.9528  -22.9916 N   0  0  0  0  0  0  0  0  0  0  0  0
  -19.9749   18.0757  -22.7978 C   0  0  0  0  0  0  0  0  0  0  0  0
  -20.5723   17.2408  -21.8642 N   0  0  0  0  0  0  0  0  0  0  0  0
  -19.8926   16.3259  -21.1685 C   0  0  0  0  0  0  0  0  0  0  0  0
  -20.7657   15.6359  -20.1627 C   0  0  0  0  0  0  0  0  0  0  0  0
  -20.4923   14.1479  -20.0461 C   0  0  0  0  0  0  0  0  0  0  0  0
  -19.1460   13.8964  -19.6974 N   0  0  0  0  0  0  0  0  0  0  0  0
  -18.1068   14.9314  -19.4311 C   0  0  0  0  0  0  0  0  0  0  0  0
  -17.5610   15.3642  -20.7909 C   0  0  0  0  0  0  0  0  0  0  0  0
  -18.5865   16.2291  -21.3983 C   0  0  0  0  0  0  0  0  0  0  0  0
  -18.5573   12.6263  -19.5843 C   0  0  0  0  0  0  0  0  0  0  0  0
  -17.8500   12.1301  -20.6615 N   0  0  0  0  0  0  0  0  0  0  0  0
  -17.1989   10.9853  -20.6659 C   0  0  0  0  0  0  0  0  0  0  0  0
  -17.2025   10.2039  -19.5435 C   0  0  0  0  0  0  0  0  0  0  0  0
  -17.8746   10.6103  -18.4198 C   0  0  0  0  0  0  0  0  0  0  0  0
  -18.5588   11.8516  -18.4634 C   0  0  0  0  0  0  0  0  0  0  0  0
  -19.3263   12.2771  -17.2570 C   0  0  0  0  0  0  0  0  0  0  0  0
  -19.3542   11.1874  -16.3508 F   0  0  0  0  0  0  0  0  0  0  0  0
  -18.8630   13.3533  -16.6160 F   0  0  0  0  0  0  0  0  0  0  0  0
  -20.7048   12.3516  -17.5974 F   0  0  0  0  0  0  0  0  0  0  0  0
  -20.9416   18.7208  -23.6737 C   0  0  0  0  0  0  0  0  0  0  0  0
  -20.9717   20.0689  -23.8710 C   0  0  0  0  0  0  0  0  0  0  0  0
  -22.0570   20.7111  -24.4450 C   0  0  0  0  0  0  0  0  0  0  0  0
  -23.1401   19.9573  -24.8285 C   0  0  0  0  0  0  0  0  0  0  0  0
  -23.1369   18.5994  -24.6453 C   0  0  0  0  0  0  0  0  0  0  0  0
  -22.0409   17.9863  -24.0721 C   0  0  0  0  0  0  0  0  0  0  0  0
  -16.5947   16.7276  -22.6315 N   0  0  0  0  0  0  0  0  0  0  0  0
  -15.8225   16.9962  -21.9623 H   0  0  0  0  0  0  0  0  0  0  0  0
  -16.1200   15.3048  -26.4823 C   0  0  0  0  0  0  0  0  0  0  0  0
  -15.0318   16.0012  -25.9361 C   0  0  0  0  0  0  0  0  0  0  0  0
  -15.0848   16.3501  -24.5925 C   0  0  0  0  0  0  0  0  0  0  0  0
  -16.1415   16.0435  -23.8036 C   0  0  0  0  0  0  0  0  0  0  0  0
  -17.1844   15.3311  -24.4124 N   0  0  0  0  0  0  0  0  0  0  0  0
  -17.1802   14.9830  -25.6762 C   0  0  0  0  0  0  0  0  0  0  0  0
  -14.8992   14.8883  -28.4193 F   0  0  0  0  0  0  0  0  0  0  0  0
  -16.2088   15.0470  -27.9469 C   0  0  0  0  0  0  0  0  0  0  0  0
  -16.8757   15.9884  -28.6591 F   0  0  0  0  0  0  0  0  0  0  0  0
  -16.8197   13.7925  -28.0907 F   0  0  0  0  0  0  0  0  0  0  0  0
 36 37  1  0  0  0
 37 38  1  0  0  0
 37 39  1  0  0  0
 37 30  1  0  0  0
 30 31  2  0  0  0
 31 32  1  0  0  0
 32 33  2  0  0  0
 33 28  1  0  0  0
 28  1  1  0  0  0
  1  2  2  0  0  0
  2  3  1  0  0  0
  3  4  2  0  0  0
  4  5  1  0  0  0
  5  6  1  0  0  0
  6  7  1  0  0  0
  7  8  1  0  0  0
  8  9  1  0  0  0
  9 10  1  0  0  0
 10 11  1  0  0  0
  8 12  1  0  0  0
 12 13  2  0  0  0
 13 14  1  0  0  0
 14 15  2  0  0  0
 15 16  1  0  0  0
 16 17  2  0  0  0
 17 18  1  0  0  0
 18 19  1  0  0  0
 18 20  1  0  0  0
 18 21  1  0  0  0
  3 22  1  0  0  0
 22 23  2  0  0  0
 23 24  1  0  0  0
 24 25  2  0  0  0
 25 26  1  0  0  0
 26 27  2  0  0  0
 33 34  1  0  0  0
 34 35  2  0  0  0
 35 30  1  0  0  0
 11  1  1  0  0  0
 17 12  1  0  0  0
 27 22  1  0  0  0
 11  5  2  0  0  0
 28 29  1  0  0  0
M  END
> <minimizedAffinity>
-10.49362

> <CNNscore>
0.0904850513

> <CNNaffinity>
7.2031416893

> <CNN_VS>
0.6517766714

> <CNNaffinity_variance>
0.1210395545

$$$$
[H]c1nc(N2C([H])([H])C([H])([H])c3nc(-c4c([H])c([H])c([H])c([H])c4[H])nc(N([H])c4nc([H])c(C(F)(F)F)c([H])c4[H])c3C([H])([H])C2([H])[H])c(C(F)(F)F)c([H])c1[H]


 39 43  0  0  0  0  0  0  0  0999 V2000
  -18.4300   15.9762  -18.3684 C   0  0  0  0  0  0  0  0  0  0  0  0
  -17.7571   16.1467  -19.5322 N   0  0  0  0  0  0  0  0  0  0  0  0
  -17.6482   17.3308  -20.1369 C   0  0  0  0  0  0  0  0  0  0  0  0
  -18.2468   18.4254  -19.5293 N   0  0  0  0  0  0  0  0  0  0  0  0
  -18.9256   18.3379  -18.3827 C   0  0  0  0  0  0  0  0  0  0  0  0
  -19.3781   19.6858  -17.9046 C   0  0  0  0  0  0  0  0  0  0  0  0
  -20.7750   19.6782  -17.3121 C   0  0  0  0  0  0  0  0  0  0  0  0
  -20.8701   18.7780  -16.2266 N   0  0  0  0  0  0  0  0  0  0  0  0
  -19.7561   17.9533  -15.6782 C   0  0  0  0  0  0  0  0  0  0  0  0
  -19.6559   16.7101  -16.5606 C   0  0  0  0  0  0  0  0  0  0  0  0
  -19.0186   17.1381  -17.8173 C   0  0  0  0  0  0  0  0  0  0  0  0
  -22.0432   18.4841  -15.5125 C   0  0  0  0  0  0  0  0  0  0  0  0
  -22.9034   17.5318  -16.0225 N   0  0  0  0  0  0  0  0  0  0  0  0
  -24.0014   17.1182  -15.4242 C   0  0  0  0  0  0  0  0  0  0  0  0
  -24.3485   17.6477  -14.2120 C   0  0  0  0  0  0  0  0  0  0  0  0
  -23.5578   18.5987  -13.6206 C   0  0  0  0  0  0  0  0  0  0  0  0
  -22.3846   19.0100  -14.3028 C   0  0  0  0  0  0  0  0  0  0  0  0
  -21.5443   20.0751  -13.6823 C   0  0  0  0  0  0  0  0  0  0  0  0
  -22.2635   20.6159  -12.5870 F   0  0  0  0  0  0  0  0  0  0  0  0
  -20.3373   19.6957  -13.2545 F   0  0  0  0  0  0  0  0  0  0  0  0
  -21.5263   21.2028  -14.5480 F   0  0  0  0  0  0  0  0  0  0  0  0
  -17.2884   17.5859  -21.5238 C   0  0  0  0  0  0  0  0  0  0  0  0
  -18.0918   18.2813  -22.3771 C   0  0  0  0  0  0  0  0  0  0  0  0
  -17.9077   18.2640  -23.7502 C   0  0  0  0  0  0  0  0  0  0  0  0
  -16.8756   17.5177  -24.2662 C   0  0  0  0  0  0  0  0  0  0  0  0
  -16.0497   16.8105  -23.4324 C   0  0  0  0  0  0  0  0  0  0  0  0
  -16.2562   16.8476  -22.0679 C   0  0  0  0  0  0  0  0  0  0  0  0
  -18.7585   14.7572  -17.8100 N   0  0  0  0  0  0  0  0  0  0  0  0
  -19.2048   14.7258  -16.8529 H   0  0  0  0  0  0  0  0  0  0  0  0
  -17.3378   11.5690  -20.0226 C   0  0  0  0  0  0  0  0  0  0  0  0
  -17.3338   11.4120  -18.6288 C   0  0  0  0  0  0  0  0  0  0  0  0
  -17.9541   12.3869  -17.8576 C   0  0  0  0  0  0  0  0  0  0  0  0
  -18.5544   13.4711  -18.4028 C   0  0  0  0  0  0  0  0  0  0  0  0
  -18.5353   13.5529  -19.8023 N   0  0  0  0  0  0  0  0  0  0  0  0
  -17.9602   12.6598  -20.5705 C   0  0  0  0  0  0  0  0  0  0  0  0
  -16.2105   11.3817  -22.0498 F   0  0  0  0  0  0  0  0  0  0  0  0
  -16.5507   10.6575  -20.8996 C   0  0  0  0  0  0  0  0  0  0  0  0
  -17.1646    9.4915  -21.2186 F   0  0  0  0  0  0  0  0  0  0  0  0
  -15.3414   10.4139  -20.2320 F   0  0  0  0  0  0  0  0  0  0  0  0
 36 37  1  0  0  0
 37 38  1  0  0  0
 37 39  1  0  0  0
 37 30  1  0  0  0
 30 31  2  0  0  0
 31 32  1  0  0  0
 32 33  2  0  0  0
 33 28  1  0  0  0
 28  1  1  0  0  0
  1  2  2  0  0  0
  2  3  1  0  0  0
  3  4  2  0  0  0
  4  5  1  0  0  0
  5  6  1  0  0  0
  6  7  1  0  0  0
  7  8  1  0  0  0
  8  9  1  0  0  0
  9 10  1  0  0  0
 10 11  1  0  0  0
  8 12  1  0  0  0
 12 13  2  0  0  0
 13 14  1  0  0  0
 14 15  2  0  0  0
 15 16  1  0  0  0
 16 17  2  0  0  0
 17 18  1  0  0  0
 18 19  1  0  0  0
 18 20  1  0  0  0
 18 21  1  0  0  0
  3 22  1  0  0  0
 22 23  2  0  0  0
 23 24  1  0  0  0
 24 25  2  0  0  0
 25 26  1  0  0  0
 26 27  2  0  0  0
 33 34  1  0  0  0
 34 35  2  0  0  0
 35 30  1  0  0  0
 11  1  1  0  0  0
 17 12  1  0  0  0
 27 22  1  0  0  0
 11  5  2  0  0  0
 28 29  1  0  0  0
M  END
> <minimizedAffinity>
-8.08745

> <CNNscore>
0.0723692700

> <CNNaffinity>
6.3958392143

> <CNN_VS>
0.4628622234

> <CNNaffinity_variance>
0.2175489217

$$$$
[H]c1nc(N2C([H])([H])C([H])([H])c3nc(-c4c([H])c([H])c([H])c([H])c4[H])nc(N([H])c4nc([H])c(C(F)(F)F)c([H])c4[H])c3C([H])([H])C2([H])[H])c(C(F)(F)F)c([H])c1[H]


 39 43  0  0  0  0  0  0  0  0999 V2000
  -17.8142   16.5173  -20.5942 C   0  0  0  0  0  0  0  0  0  0  0  0
  -16.8650   16.0015  -21.4123 N   0  0  0  0  0  0  0  0  0  0  0  0
  -16.5608   16.5388  -22.5948 C   0  0  0  0  0  0  0  0  0  0  0  0
  -17.2482   17.6799  -22.9833 N   0  0  0  0  0  0  0  0  0  0  0  0
  -18.1955   18.2476  -22.2327 C   0  0  0  0  0  0  0  0  0  0  0  0
  -18.6991   19.5197  -22.8476 C   0  0  0  0  0  0  0  0  0  0  0  0
  -20.1990   19.7038  -22.7106 C   0  0  0  0  0  0  0  0  0  0  0  0
  -20.5989   19.6888  -21.3550 N   0  0  0  0  0  0  0  0  0  0  0  0
  -19.6916   19.5519  -20.1802 C   0  0  0  0  0  0  0  0  0  0  0  0
  -19.4234   18.0580  -20.0056 C   0  0  0  0  0  0  0  0  0  0  0  0
  -18.4751   17.6755  -21.0654 C   0  0  0  0  0  0  0  0  0  0  0  0
  -21.9242   19.7604  -20.8958 C   0  0  0  0  0  0  0  0  0  0  0  0
  -22.3065   20.8628  -20.1574 N   0  0  0  0  0  0  0  0  0  0  0  0
  -23.5295   21.0840  -19.7216 C   0  0  0  0  0  0  0  0  0  0  0  0
  -24.5172   20.1793  -19.9979 C   0  0  0  0  0  0  0  0  0  0  0  0
  -24.2386   19.0523  -20.7272 C   0  0  0  0  0  0  0  0  0  0  0  0
  -22.9074   18.8597  -21.1762 C   0  0  0  0  0  0  0  0  0  0  0  0
  -22.5914   17.6139  -21.9336 C   0  0  0  0  0  0  0  0  0  0  0  0
  -23.7545   16.8036  -21.9456 F   0  0  0  0  0  0  0  0  0  0  0  0
  -22.1752   17.7814  -23.1916 F   0  0  0  0  0  0  0  0  0  0  0  0
  -21.7334   16.8041  -21.1402 F   0  0  0  0  0  0  0  0  0  0  0  0
  -15.8552   15.9054  -23.6989 C   0  0  0  0  0  0  0  0  0  0  0  0
  -15.0998   14.7820  -23.5423 C   0  0  0  0  0  0  0  0  0  0  0  0
  -14.1934   14.3574  -24.5003 C   0  0  0  0  0  0  0  0  0  0  0  0
  -14.0547   15.0986  -25.6490 C   0  0  0  0  0  0  0  0  0  0  0  0
  -14.8030   16.2312  -25.8354 C   0  0  0  0  0  0  0  0  0  0  0  0
  -15.6996   16.6295  -24.8642 C   0  0  0  0  0  0  0  0  0  0  0  0
  -18.3206   15.8951  -19.4708 N   0  0  0  0  0  0  0  0  0  0  0  0
  -18.6328   16.4793  -18.6477 H   0  0  0  0  0  0  0  0  0  0  0  0
  -17.7575   11.8028  -19.3499 C   0  0  0  0  0  0  0  0  0  0  0  0
  -17.9918   12.4368  -18.1208 C   0  0  0  0  0  0  0  0  0  0  0  0
  -18.3502   13.7788  -18.1335 C   0  0  0  0  0  0  0  0  0  0  0  0
  -18.4780   14.4857  -19.2811 C   0  0  0  0  0  0  0  0  0  0  0  0
  -18.2463   13.7829  -20.4720 N   0  0  0  0  0  0  0  0  0  0  0  0
  -17.9033   12.5182  -20.5094 C   0  0  0  0  0  0  0  0  0  0  0  0
  -17.2720   10.0036  -20.7437 F   0  0  0  0  0  0  0  0  0  0  0  0
  -17.2082   10.4192  -19.4071 C   0  0  0  0  0  0  0  0  0  0  0  0
  -17.8119    9.5245  -18.5866 F   0  0  0  0  0  0  0  0  0  0  0  0
  -15.8422   10.5238  -19.1061 F   0  0  0  0  0  0  0  0  0  0  0  0
 36 37  1  0  0  0
 37 38  1  0  0  0
 37 39  1  0  0  0
 37 30  1  0  0  0
 30 31  2  0  0  0
 31 32  1  0  0  0
 32 33  2  0  0  0
 33 28  1  0  0  0
 28  1  1  0  0  0
  1  2  2  0  0  0
  2  3  1  0  0  0
  3  4  2  0  0  0
  4  5  1  0  0  0
  5  6  1  0  0  0
  6  7  1  0  0  0
  7  8  1  0  0  0
  8  9  1  0  0  0
  9 10  1  0  0  0
 10 11  1  0  0  0
  8 12  1  0  0  0
 12 13  2  0  0  0
 13 14  1  0  0  0
 14 15  2  0  0  0
 15 16  1  0  0  0
 16 17  2  0  0  0
 17 18  1  0  0  0
 18 19  1  0  0  0
 18 20  1  0  0  0
 18 21  1  0  0  0
  3 22  1  0  0  0
 22 23  2  0  0  0
 23 24  1  0  0  0
 24 25  2  0  0  0
 25 26  1  0  0  0
 26 27  2  0  0  0
 33 34  1  0  0  0
 34 35  2  0  0  0
 35 30  1  0  0  0
 11  1  1  0  0  0
 17 12  1  0  0  0
 27 22  1  0  0  0
 11  5  2  0  0  0
 28 29  1  0  0  0
M  END
> <minimizedAffinity>
-9.46258

> <CNNscore>
0.0692640170

> <CNNaffinity>
6.9722595215

> <CNN_VS>
0.4829266965

> <CNNaffinity_variance>
0.1504850090

$$$$
[H]c1nc(N2C([H])([H])C([H])([H])c3nc(-c4c([H])c([H])c([H])c([H])c4[H])nc(N([H])c4nc([H])c(C(F)(F)F)c([H])c4[H])c3C([H])([H])C2([H])[H])c(C(F)(F)F)c([H])c1[H]


 39 43  0  0  0  0  0  0  0  0999 V2000
  -17.7953   14.1075  -20.9951 C   0  0  0  0  0  0  0  0  0  0  0  0
  -16.9664   13.9188  -22.0505 N   0  0  0  0  0  0  0  0  0  0  0  0
  -16.3554   14.9250  -22.6781 C   0  0  0  0  0  0  0  0  0  0  0  0
  -16.5815   16.2119  -22.2108 N   0  0  0  0  0  0  0  0  0  0  0  0
  -17.3831   16.4783  -21.1767 C   0  0  0  0  0  0  0  0  0  0  0  0
  -17.3653   17.9365  -20.8254 C   0  0  0  0  0  0  0  0  0  0  0  0
  -18.7299   18.4834  -20.4495 C   0  0  0  0  0  0  0  0  0  0  0  0
  -19.2844   17.7801  -19.3561 N   0  0  0  0  0  0  0  0  0  0  0  0
  -18.6292   16.6652  -18.6145 C   0  0  0  0  0  0  0  0  0  0  0  0
  -18.8826   15.3934  -19.4223 C   0  0  0  0  0  0  0  0  0  0  0  0
  -17.9804   15.4483  -20.5849 C   0  0  0  0  0  0  0  0  0  0  0  0
  -20.5631   17.9918  -18.8153 C   0  0  0  0  0  0  0  0  0  0  0  0
  -21.6448   17.3907  -19.4277 N   0  0  0  0  0  0  0  0  0  0  0  0
  -22.8848   17.4555  -18.9884 C   0  0  0  0  0  0  0  0  0  0  0  0
  -23.1600   18.1610  -17.8495 C   0  0  0  0  0  0  0  0  0  0  0  0
  -22.1528   18.7925  -17.1666 C   0  0  0  0  0  0  0  0  0  0  0  0
  -20.8340   18.6917  -17.6780 C   0  0  0  0  0  0  0  0  0  0  0  0
  -19.7422   19.4126  -16.9612 C   0  0  0  0  0  0  0  0  0  0  0  0
  -20.3418   20.3367  -16.0690 F   0  0  0  0  0  0  0  0  0  0  0  0
  -18.8874   18.6499  -16.2746 F   0  0  0  0  0  0  0  0  0  0  0  0
  -19.1190   20.3126  -17.8684 F   0  0  0  0  0  0  0  0  0  0  0  0
  -15.7561   14.9065  -24.0041 C   0  0  0  0  0  0  0  0  0  0  0  0
  -14.4189   14.7378  -24.2056 C   0  0  0  0  0  0  0  0  0  0  0  0
  -13.8088   15.0225  -25.4166 C   0  0  0  0  0  0  0  0  0  0  0  0
  -14.5842   15.4911  -26.4497 C   0  0  0  0  0  0  0  0  0  0  0  0
  -15.9320   15.6679  -26.2774 C   0  0  0  0  0  0  0  0  0  0  0  0
  -16.5130   15.3745  -25.0599 C   0  0  0  0  0  0  0  0  0  0  0  0
  -18.6157   13.1432  -20.4450 N   0  0  0  0  0  0  0  0  0  0  0  0
  -19.6000   13.0263  -20.8105 H   0  0  0  0  0  0  0  0  0  0  0  0
  -18.6367   10.1466  -17.5992 C   0  0  0  0  0  0  0  0  0  0  0  0
  -17.6340   10.0711  -18.5771 C   0  0  0  0  0  0  0  0  0  0  0  0
  -17.4876   11.1420  -19.4497 C   0  0  0  0  0  0  0  0  0  0  0  0
  -18.2736   12.2426  -19.3871 C   0  0  0  0  0  0  0  0  0  0  0  0
  -19.2422   12.2566  -18.3736 N   0  0  0  0  0  0  0  0  0  0  0  0
  -19.4193   11.2692  -17.5298 C   0  0  0  0  0  0  0  0  0  0  0  0
  -19.9264    9.3913  -15.8155 F   0  0  0  0  0  0  0  0  0  0  0  0
  -18.9624    8.9725  -16.7420 C   0  0  0  0  0  0  0  0  0  0  0  0
  -17.9021    8.3999  -16.1207 F   0  0  0  0  0  0  0  0  0  0  0  0
  -19.6099    8.0452  -17.5718 F   0  0  0  0  0  0  0  0  0  0  0  0
 36 37  1  0  0  0
 37 38  1  0  0  0
 37 39  1  0  0  0
 37 30  1  0  0  0
 30 31  2  0  0  0
 31 32  1  0  0  0
 32 33  2  0  0  0
 33 28  1  0  0  0
 28  1  1  0  0  0
  1  2  2  0  0  0
  2  3  1  0  0  0
  3  4  2  0  0  0
  4  5  1  0  0  0
  5  6  1  0  0  0
  6  7  1  0  0  0
  7  8  1  0  0  0
  8  9  1  0  0  0
  9 10  1  0  0  0
 10 11  1  0  0  0
  8 12  1  0  0  0
 12 13  2  0  0  0
 13 14  1  0  0  0
 14 15  2  0  0  0
 15 16  1  0  0  0
 16 17  2  0  0  0
 17 18  1  0  0  0
 18 19  1  0  0  0
 18 20  1  0  0  0
 18 21  1  0  0  0
  3 22  1  0  0  0
 22 23  2  0  0  0
 23 24  1  0  0  0
 24 25  2  0  0  0
 25 26  1  0  0  0
 26 27  2  0  0  0
 33 34  1  0  0  0
 34 35  2  0  0  0
 35 30  1  0  0  0
 11  1  1  0  0  0
 17 12  1  0  0  0
 27 22  1  0  0  0
 11  5  2  0  0  0
 28 29  1  0  0  0
M  END
> <minimizedAffinity>
-9.67741

> <CNNscore>
0.0666569769

> <CNNaffinity>
7.2174124718

> <CNN_VS>
0.4810909033

> <CNNaffinity_variance>
0.1449841559

$$$$
[H]c1nc(-c2c([H])c3c([H])c(Oc4c([H])c([H])c(S(=O)(=O)C([H])([H])[H])c([H])c4[H])c(C4([H])N(C([H])([H])[H])C(=O)C([H])([H])C4([H])[H])c([H])c3n2[H])c([H])c([H])c1F


 35 39  0  0  0  0  0  0  0  0999 V2000
  -21.8934   16.7788  -17.9052 C   0  0  0  0  0  0  0  0  0  0  0  0
  -20.8837   15.9103  -17.5309 C   0  0  0  0  0  0  0  0  0  0  0  0
  -20.1484   15.1533  -18.4232 C   0  0  0  0  0  0  0  0  0  0  0  0
  -19.1809   14.2332  -18.2940 N   0  0  0  0  0  0  0  0  0  0  0  0
  -18.8026   13.7351  -19.4781 C   0  0  0  0  0  0  0  0  0  0  0  0
  -19.5948   14.3998  -20.4023 C   0  0  0  0  0  0  0  0  0  0  0  0
  -20.4432   15.2771  -19.7745 C   0  0  0  0  0  0  0  0  0  0  0  0
  -21.4613   16.1478  -20.1785 C   0  0  0  0  0  0  0  0  0  0  0  0
  -22.1819   16.8909  -19.2687 C   0  0  0  0  0  0  0  0  0  0  0  0
  -18.7676   13.9575  -17.3533 H   0  0  0  0  0  0  0  0  0  0  0  0
  -24.7206   15.9903  -16.1651 C   0  0  0  0  0  0  0  0  0  0  0  0
  -23.4479   16.6264  -16.0149 N   0  0  0  0  0  0  0  0  0  0  0  0
  -22.7634   17.5229  -16.9570 C   0  0  0  0  0  0  0  0  0  0  0  0
  -21.8715   18.3351  -15.9998 C   0  0  0  0  0  0  0  0  0  0  0  0
  -21.6057   17.5217  -14.7812 C   0  0  0  0  0  0  0  0  0  0  0  0
  -22.6301   16.4717  -14.8293 C   0  0  0  0  0  0  0  0  0  0  0  0
  -22.7636   15.5625  -13.9671 O   0  0  0  0  0  0  0  0  0  0  0  0
  -17.9075   12.6128  -19.7333 C   0  0  0  0  0  0  0  0  0  0  0  0
  -17.5468   12.3169  -21.0647 C   0  0  0  0  0  0  0  0  0  0  0  0
  -16.7162   11.3141  -21.3805 C   0  0  0  0  0  0  0  0  0  0  0  0
  -16.1680   10.5103  -20.3986 C   0  0  0  0  0  0  0  0  0  0  0  0
  -15.3454    9.5011  -20.6951 F   0  0  0  0  0  0  0  0  0  0  0  0
  -16.5317   10.8082  -19.0431 C   0  0  0  0  0  0  0  0  0  0  0  0
  -17.3699   11.8306  -18.8031 N   0  0  0  0  0  0  0  0  0  0  0  0
  -23.1588   17.7435  -19.6925 O   0  0  0  0  0  0  0  0  0  0  0  0
  -23.3173   18.3098  -20.9353 C   0  0  0  0  0  0  0  0  0  0  0  0
  -23.2106   19.6358  -21.2520 C   0  0  0  0  0  0  0  0  0  0  0  0
  -23.3999   20.0079  -22.5665 C   0  0  0  0  0  0  0  0  0  0  0  0
  -23.6937   19.1326  -23.5613 C   0  0  0  0  0  0  0  0  0  0  0  0
  -23.8065   17.7924  -23.2383 C   0  0  0  0  0  0  0  0  0  0  0  0
  -23.6211   17.3715  -21.9496 C   0  0  0  0  0  0  0  0  0  0  0  0
  -23.9840   19.6656  -25.2203 S   0  0  0  0  0  0  0  0  0  0  0  0
  -22.5489   20.5937  -25.7815 C   0  0  0  0  0  0  0  0  0  0  0  0
  -24.1273   18.4137  -26.0751 O   0  0  0  0  0  0  0  0  0  0  0  0
  -25.2434   20.4533  -25.2602 O   0  0  0  0  0  0  0  0  0  0  0  0
 11 12  1  0  0  0
 12 13  1  0  0  0
 13 14  1  0  0  0
 14 15  1  0  0  0
 15 16  1  0  0  0
 16 17  2  0  0  0
 13  1  1  0  0  0
  1  2  2  0  0  0
  2  3  1  0  0  0
  3  4  1  0  0  0
  4  5  1  0  0  0
  5  6  2  0  0  0
  6  7  1  0  0  0
  7  8  1  0  0  0
  8  9  2  0  0  0
  9 25  1  0  0  0
 25 26  1  0  0  0
 26 27  2  0  0  0
 27 28  1  0  0  0
 28 29  2  0  0  0
 29 30  1  0  0  0
 30 31  2  0  0  0
 29 32  1  0  0  0
 32 33  1  0  0  0
 32 34  2  0  0  0
 32 35  2  0  0  0
  5 18  1  0  0  0
 18 19  2  0  0  0
 19 20  1  0  0  0
 20 21  2  0  0  0
 21 22  1  0  0  0
 21 23  1  0  0  0
 23 24  2  0  0  0
 16 12  1  0  0  0
  9  1  1  0  0  0
 31 26  1  0  0  0
 24 18  1  0  0  0
  7  3  2  0  0  0
  4 10  1  0  0  0
M  END
> <minimizedAffinity>
-7.97046

> <CNNscore>
0.3424566686

> <CNNaffinity>
6.4305944443

> <CNN_VS>
2.2021999359

> <CNNaffinity_variance>
0.0624313280

$$$$
[H]c1nc(-c2c([H])c3c([H])c(Oc4c([H])c([H])c(S(=O)(=O)C([H])([H])[H])c([H])c4[H])c(C4([H])N(C([H])([H])[H])C(=O)C([H])([H])C4([H])[H])c([H])c3n2[H])c([H])c([H])c1F


 35 39  0  0  0  0  0  0  0  0999 V2000
  -17.5093   13.1468  -20.2046 C   0  0  0  0  0  0  0  0  0  0  0  0
  -16.8431   12.8745  -21.3861 C   0  0  0  0  0  0  0  0  0  0  0  0
  -16.7452   13.7652  -22.4383 C   0  0  0  0  0  0  0  0  0  0  0  0
  -16.2072   13.7074  -23.6658 N   0  0  0  0  0  0  0  0  0  0  0  0
  -16.4096   14.8377  -24.3547 C   0  0  0  0  0  0  0  0  0  0  0  0
  -17.1226   15.6499  -23.4854 C   0  0  0  0  0  0  0  0  0  0  0  0
  -17.3514   15.0063  -22.2950 C   0  0  0  0  0  0  0  0  0  0  0  0
  -18.0327   15.3052  -21.1100 C   0  0  0  0  0  0  0  0  0  0  0  0
  -18.1179   14.3989  -20.0754 C   0  0  0  0  0  0  0  0  0  0  0  0
  -15.6745   12.8589  -24.0237 H   0  0  0  0  0  0  0  0  0  0  0  0
  -18.7711    9.9802  -20.0538 C   0  0  0  0  0  0  0  0  0  0  0  0
  -17.6811   10.7802  -19.5861 N   0  0  0  0  0  0  0  0  0  0  0  0
  -17.7140   12.1683  -19.1045 C   0  0  0  0  0  0  0  0  0  0  0  0
  -16.4798   12.1928  -18.1839 C   0  0  0  0  0  0  0  0  0  0  0  0
  -15.5169   11.1526  -18.6400 C   0  0  0  0  0  0  0  0  0  0  0  0
  -16.3229   10.2829  -19.5051 C   0  0  0  0  0  0  0  0  0  0  0  0
  -15.8858    9.2611  -20.0989 O   0  0  0  0  0  0  0  0  0  0  0  0
  -16.1241   15.0928  -25.7615 C   0  0  0  0  0  0  0  0  0  0  0  0
  -14.9715   15.8324  -26.1005 C   0  0  0  0  0  0  0  0  0  0  0  0
  -14.6306   16.0942  -27.3696 C   0  0  0  0  0  0  0  0  0  0  0  0
  -15.4077   15.6448  -28.4207 C   0  0  0  0  0  0  0  0  0  0  0  0
  -15.0883   15.9034  -29.6912 F   0  0  0  0  0  0  0  0  0  0  0  0
  -16.5804   14.8917  -28.0803 C   0  0  0  0  0  0  0  0  0  0  0  0
  -16.8580   14.6680  -26.7848 N   0  0  0  0  0  0  0  0  0  0  0  0
  -18.7757   14.7234  -18.9252 O   0  0  0  0  0  0  0  0  0  0  0  0
  -19.2610   13.8812  -17.9529 C   0  0  0  0  0  0  0  0  0  0  0  0
  -18.8279   13.7864  -16.6592 C   0  0  0  0  0  0  0  0  0  0  0  0
  -19.4513   12.8779  -15.8296 C   0  0  0  0  0  0  0  0  0  0  0  0
  -20.4648   12.0678  -16.2275 C   0  0  0  0  0  0  0  0  0  0  0  0
  -20.8981   12.1612  -17.5378 C   0  0  0  0  0  0  0  0  0  0  0  0
  -20.3167   13.0517  -18.3988 C   0  0  0  0  0  0  0  0  0  0  0  0
  -21.1930   10.8791  -15.1423 S   0  0  0  0  0  0  0  0  0  0  0  0
  -20.2095    9.3741  -15.2010 C   0  0  0  0  0  0  0  0  0  0  0  0
  -21.1274   11.4571  -13.7351 O   0  0  0  0  0  0  0  0  0  0  0  0
  -22.6098   10.6691  -15.5383 O   0  0  0  0  0  0  0  0  0  0  0  0
 11 12  1  0  0  0
 12 13  1  0  0  0
 13 14  1  0  0  0
 14 15  1  0  0  0
 15 16  1  0  0  0
 16 17  2  0  0  0
 13  1  1  0  0  0
  1  2  2  0  0  0
  2  3  1  0  0  0
  3  4  1  0  0  0
  4  5  1  0  0  0
  5  6  2  0  0  0
  6  7  1  0  0  0
  7  8  1  0  0  0
  8  9  2  0  0  0
  9 25  1  0  0  0
 25 26  1  0  0  0
 26 27  2  0  0  0
 27 28  1  0  0  0
 28 29  2  0  0  0
 29 30  1  0  0  0
 30 31  2  0  0  0
 29 32  1  0  0  0
 32 33  1  0  0  0
 32 34  2  0  0  0
 32 35  2  0  0  0
  5 18  1  0  0  0
 18 19  2  0  0  0
 19 20  1  0  0  0
 20 21  2  0  0  0
 21 22  1  0  0  0
 21 23  1  0  0  0
 23 24  2  0  0  0
 16 12  1  0  0  0
  9  1  1  0  0  0
 31 26  1  0  0  0
 24 18  1  0  0  0
  7  3  2  0  0  0
  4 10  1  0  0  0
M  END
> <minimizedAffinity>
-3.55722

> <CNNscore>
0.3101238608

> <CNNaffinity>
6.8428778648

> <CNN_VS>
2.1221396923

> <CNNaffinity_variance>
0.2293190211

$$$$
[H]c1nc(-c2c([H])c3c([H])c(Oc4c([H])c([H])c(S(=O)(=O)C([H])([H])[H])c([H])c4[H])c(C4([H])N(C([H])([H])[H])C(=O)C([H])([H])C4([H])[H])c([H])c3n2[H])c([H])c([H])c1F


 35 39  0  0  0  0  0  0  0  0999 V2000
  -18.7206   11.5342  -18.1070 C   0  0  0  0  0  0  0  0  0  0  0  0
  -18.6350   10.2610  -17.5726 C   0  0  0  0  0  0  0  0  0  0  0  0
  -19.5618    9.7295  -16.6961 C   0  0  0  0  0  0  0  0  0  0  0  0
  -19.6604    8.5699  -16.0288 N   0  0  0  0  0  0  0  0  0  0  0  0
  -20.7458    8.5341  -15.2453 C   0  0  0  0  0  0  0  0  0  0  0  0
  -21.3598    9.7612  -15.4482 C   0  0  0  0  0  0  0  0  0  0  0  0
  -20.6421   10.5238  -16.3352 C   0  0  0  0  0  0  0  0  0  0  0  0
  -20.7504   11.8160  -16.8608 C   0  0  0  0  0  0  0  0  0  0  0  0
  -19.8116   12.3243  -17.7323 C   0  0  0  0  0  0  0  0  0  0  0  0
  -18.9557    7.7802  -16.1355 H   0  0  0  0  0  0  0  0  0  0  0  0
  -15.3547   11.1008  -18.4611 C   0  0  0  0  0  0  0  0  0  0  0  0
  -16.5554   11.2550  -19.2236 N   0  0  0  0  0  0  0  0  0  0  0  0
  -17.6838   12.1612  -18.9682 C   0  0  0  0  0  0  0  0  0  0  0  0
  -18.2559   12.3311  -20.3879 C   0  0  0  0  0  0  0  0  0  0  0  0
  -17.8980   11.1345  -21.1986 C   0  0  0  0  0  0  0  0  0  0  0  0
  -16.8173   10.5018  -20.4330 C   0  0  0  0  0  0  0  0  0  0  0  0
  -16.2184    9.4480  -20.7777 O   0  0  0  0  0  0  0  0  0  0  0  0
  -21.1033    7.5253  -14.2553 C   0  0  0  0  0  0  0  0  0  0  0  0
  -20.1268    7.1021  -13.3291 C   0  0  0  0  0  0  0  0  0  0  0  0
  -20.3812    6.1928  -12.3785 C   0  0  0  0  0  0  0  0  0  0  0  0
  -21.6330    5.6181  -12.2625 C   0  0  0  0  0  0  0  0  0  0  0  0
  -21.9024    4.7041  -11.3271 F   0  0  0  0  0  0  0  0  0  0  0  0
  -22.6292    6.0461  -13.2021 C   0  0  0  0  0  0  0  0  0  0  0  0
  -22.3007    6.9630  -14.1277 N   0  0  0  0  0  0  0  0  0  0  0  0
  -19.9510   13.5823  -18.2411 O   0  0  0  0  0  0  0  0  0  0  0  0
  -20.2615   14.7434  -17.5736 C   0  0  0  0  0  0  0  0  0  0  0  0
  -21.5035   15.2949  -17.4214 C   0  0  0  0  0  0  0  0  0  0  0  0
  -21.6104   16.4699  -16.7071 C   0  0  0  0  0  0  0  0  0  0  0  0
  -20.5510   17.1130  -16.1538 C   0  0  0  0  0  0  0  0  0  0  0  0
  -19.2947   16.5566  -16.3131 C   0  0  0  0  0  0  0  0  0  0  0  0
  -19.1366   15.3883  -17.0077 C   0  0  0  0  0  0  0  0  0  0  0  0
  -20.7320   18.6468  -15.2963 S   0  0  0  0  0  0  0  0  0  0  0  0
  -19.6839   18.6115  -13.8349 C   0  0  0  0  0  0  0  0  0  0  0  0
  -20.2396   19.7438  -16.2305 O   0  0  0  0  0  0  0  0  0  0  0  0
  -22.1691   18.8566  -14.9817 O   0  0  0  0  0  0  0  0  0  0  0  0
 11 12  1  0  0  0
 12 13  1  0  0  0
 13 14  1  0  0  0
 14 15  1  0  0  0
 15 16  1  0  0  0
 16 17  2  0  0  0
 13  1  1  0  0  0
  1  2  2  0  0  0
  2  3  1  0  0  0
  3  4  1  0  0  0
  4  5  1  0  0  0
  5  6  2  0  0  0
  6  7  1  0  0  0
  7  8  1  0  0  0
  8  9  2  0  0  0
  9 25  1  0  0  0
 25 26  1  0  0  0
 26 27  2  0  0  0
 27 28  1  0  0  0
 28 29  2  0  0  0
 29 30  1  0  0  0
 30 31  2  0  0  0
 29 32  1  0  0  0
 32 33  1  0  0  0
 32 34  2  0  0  0
 32 35  2  0  0  0
  5 18  1  0  0  0
 18 19  2  0  0  0
 19 20  1  0  0  0
 20 21  2  0  0  0
 21 22  1  0  0  0
 21 23  1  0  0  0
 23 24  2  0  0  0
 16 12  1  0  0  0
  9  1  1  0  0  0
 31 26  1  0  0  0
 24 18  1  0  0  0
  7  3  2  0  0  0
  4 10  1  0  0  0
M  END
> <minimizedAffinity>
-6.96339

> <CNNscore>
0.2919983268

> <CNNaffinity>
6.4397745132

> <CNN_VS>
1.8804033995

> <CNNaffinity_variance>
0.1512703896

$$$$
[H]c1nc(-c2c([H])c3c([H])c(Oc4c([H])c([H])c(S(=O)(=O)C([H])([H])[H])c([H])c4[H])c(C4([H])N(C([H])([H])[H])C(=O)C([H])([H])C4([H])[H])c([H])c3n2[H])c([H])c([H])c1F


 35 39  0  0  0  0  0  0  0  0999 V2000
  -18.7771   12.1353  -18.2135 C   0  0  0  0  0  0  0  0  0  0  0  0
  -18.9872   10.8601  -17.7201 C   0  0  0  0  0  0  0  0  0  0  0  0
  -20.0231   10.5242  -16.8692 C   0  0  0  0  0  0  0  0  0  0  0  0
  -20.3892    9.3970  -16.2407 N   0  0  0  0  0  0  0  0  0  0  0  0
  -21.4671    9.5824  -15.4680 C   0  0  0  0  0  0  0  0  0  0  0  0
  -21.7874   10.9214  -15.6362 C   0  0  0  0  0  0  0  0  0  0  0  0
  -20.9035   11.5296  -16.4919 C   0  0  0  0  0  0  0  0  0  0  0  0
  -20.7114   12.8282  -16.9762 C   0  0  0  0  0  0  0  0  0  0  0  0
  -19.6692   13.1385  -17.8227 C   0  0  0  0  0  0  0  0  0  0  0  0
  -19.8777    8.4728  -16.3670 H   0  0  0  0  0  0  0  0  0  0  0  0
  -15.5613   11.0279  -18.4857 C   0  0  0  0  0  0  0  0  0  0  0  0
  -16.6857   11.4227  -19.2772 N   0  0  0  0  0  0  0  0  0  0  0  0
  -17.6130   12.5391  -19.0451 C   0  0  0  0  0  0  0  0  0  0  0  0
  -18.1021   12.8219  -20.4777 C   0  0  0  0  0  0  0  0  0  0  0  0
  -17.9738   11.5777  -21.2857 C   0  0  0  0  0  0  0  0  0  0  0  0
  -17.0640   10.7386  -20.4967 C   0  0  0  0  0  0  0  0  0  0  0  0
  -16.6827    9.5854  -20.8321 O   0  0  0  0  0  0  0  0  0  0  0  0
  -22.0568    8.6505  -14.5143 C   0  0  0  0  0  0  0  0  0  0  0  0
  -22.9408    9.1466  -13.5332 C   0  0  0  0  0  0  0  0  0  0  0  0
  -23.5368    8.3533  -12.6326 C   0  0  0  0  0  0  0  0  0  0  0  0
  -23.3062    6.9904  -12.6242 C   0  0  0  0  0  0  0  0  0  0  0  0
  -23.8843    6.1857  -11.7291 F   0  0  0  0  0  0  0  0  0  0  0  0
  -22.4082    6.4817  -13.6208 C   0  0  0  0  0  0  0  0  0  0  0  0
  -21.8484    7.3381  -14.4917 N   0  0  0  0  0  0  0  0  0  0  0  0
  -19.5153   14.4102  -18.2916 O   0  0  0  0  0  0  0  0  0  0  0  0
  -20.4901   15.3198  -18.6276 C   0  0  0  0  0  0  0  0  0  0  0  0
  -20.9789   16.3262  -17.8412 C   0  0  0  0  0  0  0  0  0  0  0  0
  -21.9586   17.1435  -18.3649 C   0  0  0  0  0  0  0  0  0  0  0  0
  -22.4698   16.9998  -19.6139 C   0  0  0  0  0  0  0  0  0  0  0  0
  -21.9781   15.9782  -20.4061 C   0  0  0  0  0  0  0  0  0  0  0  0
  -21.0008   15.1441  -19.9351 C   0  0  0  0  0  0  0  0  0  0  0  0
  -23.7655   18.0370  -20.2190 S   0  0  0  0  0  0  0  0  0  0  0  0
  -23.0941   19.6809  -20.5063 C   0  0  0  0  0  0  0  0  0  0  0  0
  -24.2246   17.4522  -21.5478 O   0  0  0  0  0  0  0  0  0  0  0  0
  -24.8877   18.0244  -19.2451 O   0  0  0  0  0  0  0  0  0  0  0  0
 11 12  1  0  0  0
 12 13  1  0  0  0
 13 14  1  0  0  0
 14 15  1  0  0  0
 15 16  1  0  0  0
 16 17  2  0  0  0
 13  1  1  0  0  0
  1  2  2  0  0  0
  2  3  1  0  0  0
  3  4  1  0  0  0
  4  5  1  0  0  0
  5  6  2  0  0  0
  6  7  1  0  0  0
  7  8  1  0  0  0
  8  9  2  0  0  0
  9 25  1  0  0  0
 25 26  1  0  0  0
 26 27  2  0  0  0
 27 28  1  0  0  0
 28 29  2  0  0  0
 29 30  1  0  0  0
 30 31  2  0  0  0
 29 32  1  0  0  0
 32 33  1  0  0  0
 32 34  2  0  0  0
 32 35  2  0  0  0
  5 18  1  0  0  0
 18 19  2  0  0  0
 19 20  1  0  0  0
 20 21  2  0  0  0
 21 22  1  0  0  0
 21 23  1  0  0  0
 23 24  2  0  0  0
 16 12  1  0  0  0
  9  1  1  0  0  0
 31 26  1  0  0  0
 24 18  1  0  0  0
  7  3  2  0  0  0
  4 10  1  0  0  0
M  END
> <minimizedAffinity>
-7.46248

> <CNNscore>
0.2412856817

> <CNNaffinity>
6.4163446426

> <CNN_VS>
1.5481721163

> <CNNaffinity_variance>
0.1160586923

$$$$
[H]c1nc(-c2c([H])c3c([H])c(Oc4c([H])c([H])c(S(=O)(=O)C([H])([H])[H])c([H])c4[H])c(C4([H])N(C([H])([H])[H])C(=O)C([H])([H])C4([H])[H])c([H])c3n2[H])c([H])c([H])c1F


 35 39  0  0  0  0  0  0  0  0999 V2000
  -20.8847   10.7840  -15.3014 C   0  0  0  0  0  0  0  0  0  0  0  0
  -19.9177   10.4058  -16.2156 C   0  0  0  0  0  0  0  0  0  0  0  0
  -19.4879   11.2054  -17.2577 C   0  0  0  0  0  0  0  0  0  0  0  0
  -18.6223   11.0389  -18.2689 N   0  0  0  0  0  0  0  0  0  0  0  0
  -18.5755   12.1115  -19.0692 C   0  0  0  0  0  0  0  0  0  0  0  0
  -19.4771   13.0027  -18.5068 C   0  0  0  0  0  0  0  0  0  0  0  0
  -20.0625   12.4627  -17.3891 C   0  0  0  0  0  0  0  0  0  0  0  0
  -21.0440   12.8680  -16.4780 C   0  0  0  0  0  0  0  0  0  0  0  0
  -21.4571   12.0512  -15.4477 C   0  0  0  0  0  0  0  0  0  0  0  0
  -18.0415   10.1562  -18.3929 H   0  0  0  0  0  0  0  0  0  0  0  0
  -24.0200    9.6947  -14.5108 C   0  0  0  0  0  0  0  0  0  0  0  0
  -22.6734    9.2347  -14.6589 N   0  0  0  0  0  0  0  0  0  0  0  0
  -21.4338    9.9025  -14.2379 C   0  0  0  0  0  0  0  0  0  0  0  0
  -20.4926    8.6967  -14.0593 C   0  0  0  0  0  0  0  0  0  0  0  0
  -20.9655    7.5828  -14.9270 C   0  0  0  0  0  0  0  0  0  0  0  0
  -22.3430    7.9609  -15.2644 C   0  0  0  0  0  0  0  0  0  0  0  0
  -23.1156    7.2773  -15.9882 O   0  0  0  0  0  0  0  0  0  0  0  0
  -17.8881   12.2459  -20.3480 C   0  0  0  0  0  0  0  0  0  0  0  0
  -18.1632   13.3694  -21.1557 C   0  0  0  0  0  0  0  0  0  0  0  0
  -17.5610   13.5741  -22.3350 C   0  0  0  0  0  0  0  0  0  0  0  0
  -16.6286   12.6769  -22.8213 C   0  0  0  0  0  0  0  0  0  0  0  0
  -16.0248   12.8599  -23.9981 F   0  0  0  0  0  0  0  0  0  0  0  0
  -16.3454   11.5332  -22.0027 C   0  0  0  0  0  0  0  0  0  0  0  0
  -16.9885   11.3952  -20.8310 N   0  0  0  0  0  0  0  0  0  0  0  0
  -22.4051   12.4788  -14.5649 O   0  0  0  0  0  0  0  0  0  0  0  0
  -22.9449   13.7366  -14.4348 C   0  0  0  0  0  0  0  0  0  0  0  0
  -24.2514   14.0455  -14.1746 C   0  0  0  0  0  0  0  0  0  0  0  0
  -24.5974   15.3768  -14.0742 C   0  0  0  0  0  0  0  0  0  0  0  0
  -23.7153   16.3969  -14.2269 C   0  0  0  0  0  0  0  0  0  0  0  0
  -22.3953   16.0829  -14.4952 C   0  0  0  0  0  0  0  0  0  0  0  0
  -22.0001   14.7768  -14.5979 C   0  0  0  0  0  0  0  0  0  0  0  0
  -24.2187   18.0883  -14.1458 S   0  0  0  0  0  0  0  0  0  0  0  0
  -25.0437   18.3640  -12.5714 C   0  0  0  0  0  0  0  0  0  0  0  0
  -22.9544   18.9354  -14.1957 O   0  0  0  0  0  0  0  0  0  0  0  0
  -25.0787   18.3921  -15.3190 O   0  0  0  0  0  0  0  0  0  0  0  0
 11 12  1  0  0  0
 12 13  1  0  0  0
 13 14  1  0  0  0
 14 15  1  0  0  0
 15 16  1  0  0  0
 16 17  2  0  0  0
 13  1  1  0  0  0
  1  2  2  0  0  0
  2  3  1  0  0  0
  3  4  1  0  0  0
  4  5  1  0  0  0
  5  6  2  0  0  0
  6  7  1  0  0  0
  7  8  1  0  0  0
  8  9  2  0  0  0
  9 25  1  0  0  0
 25 26  1  0  0  0
 26 27  2  0  0  0
 27 28  1  0  0  0
 28 29  2  0  0  0
 29 30  1  0  0  0
 30 31  2  0  0  0
 29 32  1  0  0  0
 32 33  1  0  0  0
 32 34  2  0  0  0
 32 35  2  0  0  0
  5 18  1  0  0  0
 18 19  2  0  0  0
 19 20  1  0  0  0
 20 21  2  0  0  0
 21 22  1  0  0  0
 21 23  1  0  0  0
 23 24  2  0  0  0
 16 12  1  0  0  0
  9  1  1  0  0  0
 31 26  1  0  0  0
 24 18  1  0  0  0
  7  3  2  0  0  0
  4 10  1  0  0  0
M  END
> <minimizedAffinity>
-6.67074

> <CNNscore>
0.2121276110

> <CNNaffinity>
6.3703889847

> <CNN_VS>
1.3513354063

> <CNNaffinity_variance>
0.3718687892

$$$$
[H]c1nc(-c2c([H])c3c([H])c(Oc4c([H])c([H])c(S(=O)(=O)C([H])([H])[H])c([H])c4[H])c(C4([H])N(C([H])([H])[H])C(=O)C([H])([H])C4([H])[H])c([H])c3n2[H])c([H])c([H])c1F


 35 39  0  0  0  0  0  0  0  0999 V2000
  -19.3381   14.2409  -18.6552 C   0  0  0  0  0  0  0  0  0  0  0  0
  -19.4189   14.8501  -19.8947 C   0  0  0  0  0  0  0  0  0  0  0  0
  -18.7576   14.3969  -21.0204 C   0  0  0  0  0  0  0  0  0  0  0  0
  -18.6492   14.8380  -22.2826 N   0  0  0  0  0  0  0  0  0  0  0  0
  -17.8392   14.0636  -23.0156 C   0  0  0  0  0  0  0  0  0  0  0  0
  -17.4212   13.0731  -22.1394 C   0  0  0  0  0  0  0  0  0  0  0  0
  -17.9682   13.2614  -20.8950 C   0  0  0  0  0  0  0  0  0  0  0  0
  -17.8688   12.6279  -19.6513 C   0  0  0  0  0  0  0  0  0  0  0  0
  -18.5370   13.1005  -18.5426 C   0  0  0  0  0  0  0  0  0  0  0  0
  -19.1661   15.6960  -22.6412 H   0  0  0  0  0  0  0  0  0  0  0  0
  -18.9898   17.1330  -16.8785 C   0  0  0  0  0  0  0  0  0  0  0  0
  -19.9834   16.2386  -17.3881 N   0  0  0  0  0  0  0  0  0  0  0  0
  -19.9571   14.7694  -17.4114 C   0  0  0  0  0  0  0  0  0  0  0  0
  -21.4625   14.4455  -17.4311 C   0  0  0  0  0  0  0  0  0  0  0  0
  -22.1957   15.5958  -18.0283 C   0  0  0  0  0  0  0  0  0  0  0  0
  -21.2299   16.6991  -17.9648 C   0  0  0  0  0  0  0  0  0  0  0  0
  -21.4554   17.8714  -18.3684 O   0  0  0  0  0  0  0  0  0  0  0  0
  -17.3474   14.3072  -24.3664 C   0  0  0  0  0  0  0  0  0  0  0  0
  -17.5487   13.3202  -25.3541 C   0  0  0  0  0  0  0  0  0  0  0  0
  -17.1425   13.4754  -26.6215 C   0  0  0  0  0  0  0  0  0  0  0  0
  -16.4956   14.6290  -27.0235 C   0  0  0  0  0  0  0  0  0  0  0  0
  -16.0760   14.7976  -28.2799 F   0  0  0  0  0  0  0  0  0  0  0  0
  -16.2894   15.6356  -26.0222 C   0  0  0  0  0  0  0  0  0  0  0  0
  -16.7252   15.4095  -24.7715 N   0  0  0  0  0  0  0  0  0  0  0  0
  -18.4338   12.4535  -17.3460 O   0  0  0  0  0  0  0  0  0  0  0  0
  -18.9877   11.2510  -16.9754 C   0  0  0  0  0  0  0  0  0  0  0  0
  -18.6608   10.0140  -17.4581 C   0  0  0  0  0  0  0  0  0  0  0  0
  -19.3311    8.9202  -16.9517 C   0  0  0  0  0  0  0  0  0  0  0  0
  -20.3019    9.0039  -16.0070 C   0  0  0  0  0  0  0  0  0  0  0  0
  -20.6350   10.2563  -15.5236 C   0  0  0  0  0  0  0  0  0  0  0  0
  -19.9945   11.3723  -15.9890 C   0  0  0  0  0  0  0  0  0  0  0  0
  -21.1719    7.5782  -15.4313 S   0  0  0  0  0  0  0  0  0  0  0  0
  -20.7792    7.3326  -13.6932 C   0  0  0  0  0  0  0  0  0  0  0  0
  -22.6592    7.8765  -15.5640 O   0  0  0  0  0  0  0  0  0  0  0  0
  -20.8101    6.4159  -16.2837 O   0  0  0  0  0  0  0  0  0  0  0  0
 11 12  1  0  0  0
 12 13  1  0  0  0
 13 14  1  0  0  0
 14 15  1  0  0  0
 15 16  1  0  0  0
 16 17  2  0  0  0
 13  1  1  0  0  0
  1  2  2  0  0  0
  2  3  1  0  0  0
  3  4  1  0  0  0
  4  5  1  0  0  0
  5  6  2  0  0  0
  6  7  1  0  0  0
  7  8  1  0  0  0
  8  9  2  0  0  0
  9 25  1  0  0  0
 25 26  1  0  0  0
 26 27  2  0  0  0
 27 28  1  0  0  0
 28 29  2  0  0  0
 29 30  1  0  0  0
 30 31  2  0  0  0
 29 32  1  0  0  0
 32 33  1  0  0  0
 32 34  2  0  0  0
 32 35  2  0  0  0
  5 18  1  0  0  0
 18 19  2  0  0  0
 19 20  1  0  0  0
 20 21  2  0  0  0
 21 22  1  0  0  0
 21 23  1  0  0  0
 23 24  2  0  0  0
 16 12  1  0  0  0
  9  1  1  0  0  0
 31 26  1  0  0  0
 24 18  1  0  0  0
  7  3  2  0  0  0
  4 10  1  0  0  0
M  END
> <minimizedAffinity>
-8.78765

> <CNNscore>
0.2080369741

> <CNNaffinity>
6.9059615135

> <CNN_VS>
1.4366953373

> <CNNaffinity_variance>
0.0429140106

$$$$
[H]c1nc(-c2c([H])c3c([H])c(Oc4c([H])c([H])c(S(=O)(=O)C([H])([H])[H])c([H])c4[H])c(C4([H])N(C([H])([H])[H])C(=O)C([H])([H])C4([H])[H])c([H])c3n2[H])c([H])c([H])c1F


 35 39  0  0  0  0  0  0  0  0999 V2000
  -17.3566   13.9468  -22.7236 C   0  0  0  0  0  0  0  0  0  0  0  0
  -17.9901   15.0797  -23.2020 C   0  0  0  0  0  0  0  0  0  0  0  0
  -18.8229   15.8767  -22.4398 C   0  0  0  0  0  0  0  0  0  0  0  0
  -19.5646   16.9655  -22.6926 N   0  0  0  0  0  0  0  0  0  0  0  0
  -20.2546   17.3623  -21.6157 C   0  0  0  0  0  0  0  0  0  0  0  0
  -19.9095   16.4512  -20.6286 C   0  0  0  0  0  0  0  0  0  0  0  0
  -19.0313   15.5155  -21.1152 C   0  0  0  0  0  0  0  0  0  0  0  0
  -18.4031   14.3728  -20.6079 C   0  0  0  0  0  0  0  0  0  0  0  0
  -17.5780   13.5930  -21.3892 C   0  0  0  0  0  0  0  0  0  0  0  0
  -19.5770   17.4488  -23.6403 H   0  0  0  0  0  0  0  0  0  0  0  0
  -17.8193   12.4454  -25.7524 C   0  0  0  0  0  0  0  0  0  0  0  0
  -16.8400   13.1517  -24.9850 N   0  0  0  0  0  0  0  0  0  0  0  0
  -16.5410   13.0205  -23.5521 C   0  0  0  0  0  0  0  0  0  0  0  0
  -15.0724   13.4824  -23.5114 C   0  0  0  0  0  0  0  0  0  0  0  0
  -14.8204   14.3909  -24.6640 C   0  0  0  0  0  0  0  0  0  0  0  0
  -15.9492   14.1349  -25.5665 C   0  0  0  0  0  0  0  0  0  0  0  0
  -16.1189   14.7026  -26.6786 O   0  0  0  0  0  0  0  0  0  0  0  0
  -21.2838   18.3922  -21.5405 C   0  0  0  0  0  0  0  0  0  0  0  0
  -22.6029   18.0675  -21.9211 C   0  0  0  0  0  0  0  0  0  0  0  0
  -23.6078   18.9520  -21.8642 C   0  0  0  0  0  0  0  0  0  0  0  0
  -23.3921   20.2445  -21.4242 C   0  0  0  0  0  0  0  0  0  0  0  0
  -24.3794   21.1418  -21.3690 F   0  0  0  0  0  0  0  0  0  0  0  0
  -22.0520   20.5786  -21.0356 C   0  0  0  0  0  0  0  0  0  0  0  0
  -21.0957   19.6385  -21.1190 N   0  0  0  0  0  0  0  0  0  0  0  0
  -16.9664   12.4927  -20.8635 O   0  0  0  0  0  0  0  0  0  0  0  0
  -17.4230   11.6528  -19.8754 C   0  0  0  0  0  0  0  0  0  0  0  0
  -16.9726   10.3918  -19.5980 C   0  0  0  0  0  0  0  0  0  0  0  0
  -17.5590    9.7064  -18.5546 C   0  0  0  0  0  0  0  0  0  0  0  0
  -18.5629   10.2108  -17.7932 C   0  0  0  0  0  0  0  0  0  0  0  0
  -19.0209   11.4844  -18.0784 C   0  0  0  0  0  0  0  0  0  0  0  0
  -18.4674   12.2081  -19.0993 C   0  0  0  0  0  0  0  0  0  0  0  0
  -19.3210    9.2711  -16.5036 S   0  0  0  0  0  0  0  0  0  0  0  0
  -20.7864   10.1502  -15.9419 C   0  0  0  0  0  0  0  0  0  0  0  0
  -19.7455    7.9399  -17.1087 O   0  0  0  0  0  0  0  0  0  0  0  0
  -18.3252    9.0425  -15.4244 O   0  0  0  0  0  0  0  0  0  0  0  0
 11 12  1  0  0  0
 12 13  1  0  0  0
 13 14  1  0  0  0
 14 15  1  0  0  0
 15 16  1  0  0  0
 16 17  2  0  0  0
 13  1  1  0  0  0
  1  2  2  0  0  0
  2  3  1  0  0  0
  3  4  1  0  0  0
  4  5  1  0  0  0
  5  6  2  0  0  0
  6  7  1  0  0  0
  7  8  1  0  0  0
  8  9  2  0  0  0
  9 25  1  0  0  0
 25 26  1  0  0  0
 26 27  2  0  0  0
 27 28  1  0  0  0
 28 29  2  0  0  0
 29 30  1  0  0  0
 30 31  2  0  0  0
 29 32  1  0  0  0
 32 33  1  0  0  0
 32 34  2  0  0  0
 32 35  2  0  0  0
  5 18  1  0  0  0
 18 19  2  0  0  0
 19 20  1  0  0  0
 20 21  2  0  0  0
 21 22  1  0  0  0
 21 23  1  0  0  0
 23 24  2  0  0  0
 16 12  1  0  0  0
  9  1  1  0  0  0
 31 26  1  0  0  0
 24 18  1  0  0  0
  7  3  2  0  0  0
  4 10  1  0  0  0
M  END
> <minimizedAffinity>
-9.68972

> <CNNscore>
0.1671053618

> <CNNaffinity>
6.7907538414

> <CNN_VS>
1.1347713470

> <CNNaffinity_variance>
0.1944078505

$$$$
[H]c1nc(-c2c([H])c3c([H])c(Oc4c([H])c([H])c(S(=O)(=O)C([H])([H])[H])c([H])c4[H])c(C4([H])N(C([H])([H])[H])C(=O)C([H])([H])C4([H])[H])c([H])c3n2[H])c([H])c([H])c1F


 35 39  0  0  0  0  0  0  0  0999 V2000
  -20.0394    8.1049  -13.2752 C   0  0  0  0  0  0  0  0  0  0  0  0
  -19.1450    8.0716  -14.3301 C   0  0  0  0  0  0  0  0  0  0  0  0
  -19.0493    9.0607  -15.2905 C   0  0  0  0  0  0  0  0  0  0  0  0
  -18.3131    9.2182  -16.4008 N   0  0  0  0  0  0  0  0  0  0  0  0
  -18.6153   10.3527  -17.0448 C   0  0  0  0  0  0  0  0  0  0  0  0
  -19.6086   10.9355  -16.2719 C   0  0  0  0  0  0  0  0  0  0  0  0
  -19.9023   10.1513  -15.1846 C   0  0  0  0  0  0  0  0  0  0  0  0
  -20.8171   10.2076  -14.1274 C   0  0  0  0  0  0  0  0  0  0  0  0
  -20.8945    9.2072  -13.1828 C   0  0  0  0  0  0  0  0  0  0  0  0
  -17.5722    8.5188  -16.7069 H   0  0  0  0  0  0  0  0  0  0  0  0
  -18.2257    6.9589  -10.6220 C   0  0  0  0  0  0  0  0  0  0  0  0
  -19.5621    7.2868  -11.0133 N   0  0  0  0  0  0  0  0  0  0  0  0
  -20.2291    7.0059  -12.2924 C   0  0  0  0  0  0  0  0  0  0  0  0
  -21.7063    6.9796  -11.8579 C   0  0  0  0  0  0  0  0  0  0  0  0
  -21.8638    7.8118  -10.6332 C   0  0  0  0  0  0  0  0  0  0  0  0
  -20.4923    7.9638  -10.1330 C   0  0  0  0  0  0  0  0  0  0  0  0
  -20.1764    8.6039   -9.0946 O   0  0  0  0  0  0  0  0  0  0  0  0
  -18.1544   10.7876  -18.3580 C   0  0  0  0  0  0  0  0  0  0  0  0
  -17.3696    9.9069  -19.1317 C   0  0  0  0  0  0  0  0  0  0  0  0
  -16.9224   10.2248  -20.3541 C   0  0  0  0  0  0  0  0  0  0  0  0
  -17.2140   11.4519  -20.9199 C   0  0  0  0  0  0  0  0  0  0  0  0
  -16.7698   11.7894  -22.1331 F   0  0  0  0  0  0  0  0  0  0  0  0
  -18.0125   12.3503  -20.1366 C   0  0  0  0  0  0  0  0  0  0  0  0
  -18.4257   11.9617  -18.9186 N   0  0  0  0  0  0  0  0  0  0  0  0
  -21.7859    9.2961  -12.1540 O   0  0  0  0  0  0  0  0  0  0  0  0
  -22.4778   10.4010  -11.7172 C   0  0  0  0  0  0  0  0  0  0  0  0
  -23.8126   10.6498  -11.8795 C   0  0  0  0  0  0  0  0  0  0  0  0
  -24.3239   11.8207  -11.3602 C   0  0  0  0  0  0  0  0  0  0  0  0
  -23.5749   12.7429  -10.7041 C   0  0  0  0  0  0  0  0  0  0  0  0
  -22.2239   12.4922  -10.5453 C   0  0  0  0  0  0  0  0  0  0  0  0
  -21.6696   11.3416  -11.0366 C   0  0  0  0  0  0  0  0  0  0  0  0
  -24.2655   14.2552  -10.1070 S   0  0  0  0  0  0  0  0  0  0  0  0
  -22.9392   15.4567   -9.9259 C   0  0  0  0  0  0  0  0  0  0  0  0
  -25.2405   14.7520  -11.1659 O   0  0  0  0  0  0  0  0  0  0  0  0
  -24.9899   13.9864   -8.8376 O   0  0  0  0  0  0  0  0  0  0  0  0
 11 12  1  0  0  0
 12 13  1  0  0  0
 13 14  1  0  0  0
 14 15  1  0  0  0
 15 16  1  0  0  0
 16 17  2  0  0  0
 13  1  1  0  0  0
  1  2  2  0  0  0
  2  3  1  0  0  0
  3  4  1  0  0  0
  4  5  1  0  0  0
  5  6  2  0  0  0
  6  7  1  0  0  0
  7  8  1  0  0  0
  8  9  2  0  0  0
  9 25  1  0  0  0
 25 26  1  0  0  0
 26 27  2  0  0  0
 27 28  1  0  0  0
 28 29  2  0  0  0
 29 30  1  0  0  0
 30 31  2  0  0  0
 29 32  1  0  0  0
 32 33  1  0  0  0
 32 34  2  0  0  0
 32 35  2  0  0  0
  5 18  1  0  0  0
 18 19  2  0  0  0
 19 20  1  0  0  0
 20 21  2  0  0  0
 21 22  1  0  0  0
 21 23  1  0  0  0
 23 24  2  0  0  0
 16 12  1  0  0  0
  9  1  1  0  0  0
 31 26  1  0  0  0
 24 18  1  0  0  0
  7  3  2  0  0  0
  4 10  1  0  0  0
M  END
> <minimizedAffinity>
-5.18681

> <CNNscore>
0.1583071202

> <CNNaffinity>
5.6684484482

> <CNN_VS>
0.8973557353

> <CNNaffinity_variance>
0.3212637305

$$$$
[H]c1nc(-c2c([H])c3c([H])c(Oc4c([H])c([H])c(S(=O)(=O)C([H])([H])[H])c([H])c4[H])c(C4([H])N(C([H])([H])[H])C(=O)C([H])([H])C4([H])[H])c([H])c3n2[H])c([H])c([H])c1F


 35 39  0  0  0  0  0  0  0  0999 V2000
  -18.7951   11.9575  -18.1864 C   0  0  0  0  0  0  0  0  0  0  0  0
  -18.8975   10.6913  -17.6387 C   0  0  0  0  0  0  0  0  0  0  0  0
  -19.9196   10.2966  -16.7964 C   0  0  0  0  0  0  0  0  0  0  0  0
  -20.1949    9.1688  -16.1242 N   0  0  0  0  0  0  0  0  0  0  0  0
  -21.3056    9.2850  -15.3853 C   0  0  0  0  0  0  0  0  0  0  0  0
  -21.7455   10.5787  -15.6229 C   0  0  0  0  0  0  0  0  0  0  0  0
  -20.9002   11.2295  -16.4861 C   0  0  0  0  0  0  0  0  0  0  0  0
  -20.8181   12.5177  -17.0261 C   0  0  0  0  0  0  0  0  0  0  0  0
  -19.7874   12.8878  -17.8628 C   0  0  0  0  0  0  0  0  0  0  0  0
  -19.5957    8.2926  -16.1958 H   0  0  0  0  0  0  0  0  0  0  0  0
  -15.4992   11.0978  -18.3867 C   0  0  0  0  0  0  0  0  0  0  0  0
  -16.6378   11.3871  -19.2031 N   0  0  0  0  0  0  0  0  0  0  0  0
  -17.6523   12.4327  -19.0098 C   0  0  0  0  0  0  0  0  0  0  0  0
  -18.1385   12.6461  -20.4553 C   0  0  0  0  0  0  0  0  0  0  0  0
  -17.9012   11.3988  -21.2332 C   0  0  0  0  0  0  0  0  0  0  0  0
  -16.9421   10.6499  -20.4124 C   0  0  0  0  0  0  0  0  0  0  0  0
  -16.4674    9.5229  -20.7162 O   0  0  0  0  0  0  0  0  0  0  0  0
  -21.8303    8.3445  -14.4025 C   0  0  0  0  0  0  0  0  0  0  0  0
  -21.9155    6.9782  -14.7433 C   0  0  0  0  0  0  0  0  0  0  0  0
  -22.3697    6.0496  -13.8908 C   0  0  0  0  0  0  0  0  0  0  0  0
  -22.7836    6.3960  -12.6182 C   0  0  0  0  0  0  0  0  0  0  0  0
  -23.2472    5.4858  -11.7582 F   0  0  0  0  0  0  0  0  0  0  0  0
  -22.6981    7.7845  -12.2673 C   0  0  0  0  0  0  0  0  0  0  0  0
  -22.2313    8.6584  -13.1749 N   0  0  0  0  0  0  0  0  0  0  0  0
  -19.7412   14.1463  -18.3870 O   0  0  0  0  0  0  0  0  0  0  0  0
  -19.8685   15.3488  -17.7326 C   0  0  0  0  0  0  0  0  0  0  0  0
  -18.9312   15.9566  -16.9439 C   0  0  0  0  0  0  0  0  0  0  0  0
  -19.2486   17.1727  -16.3761 C   0  0  0  0  0  0  0  0  0  0  0  0
  -20.4417   17.7958  -16.5502 C   0  0  0  0  0  0  0  0  0  0  0  0
  -21.3906   17.1772  -17.3439 C   0  0  0  0  0  0  0  0  0  0  0  0
  -21.1219   15.9728  -17.9352 C   0  0  0  0  0  0  0  0  0  0  0  0
  -20.8220   19.3265  -15.7546 S   0  0  0  0  0  0  0  0  0  0  0  0
  -20.4208   20.6707  -16.8807 C   0  0  0  0  0  0  0  0  0  0  0  0
  -22.3217   19.3345  -15.4909 O   0  0  0  0  0  0  0  0  0  0  0  0
  -20.0810   19.3986  -14.4686 O   0  0  0  0  0  0  0  0  0  0  0  0
 11 12  1  0  0  0
 12 13  1  0  0  0
 13 14  1  0  0  0
 14 15  1  0  0  0
 15 16  1  0  0  0
 16 17  2  0  0  0
 13  1  1  0  0  0
  1  2  2  0  0  0
  2  3  1  0  0  0
  3  4  1  0  0  0
  4  5  1  0  0  0
  5  6  2  0  0  0
  6  7  1  0  0  0
  7  8  1  0  0  0
  8  9  2  0  0  0
  9 25  1  0  0  0
 25 26  1  0  0  0
 26 27  2  0  0  0
 27 28  1  0  0  0
 28 29  2  0  0  0
 29 30  1  0  0  0
 30 31  2  0  0  0
 29 32  1  0  0  0
 32 33  1  0  0  0
 32 34  2  0  0  0
 32 35  2  0  0  0
  5 18  1  0  0  0
 18 19  2  0  0  0
 19 20  1  0  0  0
 20 21  2  0  0  0
 21 22  1  0  0  0
 21 23  1  0  0  0
 23 24  2  0  0  0
 16 12  1  0  0  0
  9  1  1  0  0  0
 31 26  1  0  0  0
 24 18  1  0  0  0
  7  3  2  0  0  0
  4 10  1  0  0  0
M  END
> <minimizedAffinity>
-6.95784

> <CNNscore>
0.1518913358

> <CNNaffinity>
6.3003768921

> <CNN_VS>
0.9569726586

> <CNNaffinity_variance>
0.1498019695

$$$$
[H]OC(=O)c1c([H])c(N([H])S(=O)(=O)c2c([H])c([H])c(C(C([H])([H])[H])(C([H])([H])[H])C([H])([H])[H])c([H])c2[H])c([H])c([H])c1F


 26 27  0  0  0  0  0  0  0  0999 V2000
  -16.5318   10.5948  -20.7004 S   0  0  0  0  0  0  0  0  0  0  0  0
  -17.4449    9.4849  -21.2025 O   0  0  0  0  0  0  0  0  0  0  0  0
  -15.1310   10.0633  -20.9824 O   0  0  0  0  0  0  0  0  0  0  0  0
  -16.9606   14.3083  -23.3676 C   0  0  0  0  0  0  0  0  0  0  0  0
  -16.0077   13.3119  -23.5674 C   0  0  0  0  0  0  0  0  0  0  0  0
  -15.9002   12.2175  -22.7547 C   0  0  0  0  0  0  0  0  0  0  0  0
  -16.7599   12.0333  -21.6513 C   0  0  0  0  0  0  0  0  0  0  0  0
  -17.6947   13.0121  -21.4542 C   0  0  0  0  0  0  0  0  0  0  0  0
  -17.8031   14.1307  -22.2880 C   0  0  0  0  0  0  0  0  0  0  0  0
  -16.9523   14.9208  -25.7288 C   0  0  0  0  0  0  0  0  0  0  0  0
  -17.0408   15.4528  -24.3035 C   0  0  0  0  0  0  0  0  0  0  0  0
  -18.3482   16.2211  -24.1424 C   0  0  0  0  0  0  0  0  0  0  0  0
  -15.9127   16.4178  -24.0907 C   0  0  0  0  0  0  0  0  0  0  0  0
  -16.7079   10.8668  -19.0578 N   0  0  0  0  0  0  0  0  0  0  0  0
  -15.8186   11.1833  -18.5296 H   0  0  0  0  0  0  0  0  0  0  0  0
  -17.8507   10.7351  -18.2548 C   0  0  0  0  0  0  0  0  0  0  0  0
  -18.3170    9.6137  -17.6364 C   0  0  0  0  0  0  0  0  0  0  0  0
  -19.4768    9.5867  -16.8748 C   0  0  0  0  0  0  0  0  0  0  0  0
  -20.1929   10.7495  -16.7328 C   0  0  0  0  0  0  0  0  0  0  0  0
  -21.3414   10.8364  -16.0081 F   0  0  0  0  0  0  0  0  0  0  0  0
  -19.7694   11.9325  -17.3348 C   0  0  0  0  0  0  0  0  0  0  0  0
  -18.6263   11.9186  -18.0766 C   0  0  0  0  0  0  0  0  0  0  0  0
  -20.5195   13.1880  -17.1978 C   0  0  0  0  0  0  0  0  0  0  0  0
  -20.4659   13.8058  -15.9299 O   0  0  0  0  0  0  0  0  0  0  0  0
  -21.1663   13.7005  -18.1045 O   0  0  0  0  0  0  0  0  0  0  0  0
  -20.9426   13.3527  -15.1306 H   0  0  0  0  0  0  0  0  0  0  0  0
 10 11  1  0  0  0
 11 12  1  0  0  0
 11 13  1  0  0  0
 11  4  1  0  0  0
  4  5  2  0  0  0
  5  6  1  0  0  0
  6  7  2  0  0  0
  7  8  1  0  0  0
  8  9  2  0  0  0
  7  1  1  0  0  0
  1  2  2  0  0  0
  1  3  2  0  0  0
  1 14  1  0  0  0
 14 16  1  0  0  0
 16 17  2  0  0  0
 17 18  1  0  0  0
 18 19  2  0  0  0
 19 20  1  0  0  0
 19 21  1  0  0  0
 21 22  2  0  0  0
 21 23  1  0  0  0
 23 24  1  0  0  0
 23 25  2  0  0  0
  9  4  1  0  0  0
 22 16  1  0  0  0
 14 15  1  0  0  0
 24 26  1  0  0  0
M  END
> <minimizedAffinity>
-7.92851

> <CNNscore>
0.6461015940

> <CNNaffinity>
6.0419197083

> <CNN_VS>
3.9036939144

> <CNNaffinity_variance>
0.1135757342

$$$$
[H]OC(=O)c1c([H])c(N([H])S(=O)(=O)c2c([H])c([H])c(C(C([H])([H])[H])(C([H])([H])[H])C([H])([H])[H])c([H])c2[H])c([H])c([H])c1F


 26 27  0  0  0  0  0  0  0  0999 V2000
  -16.4383   10.6707  -20.9217 S   0  0  0  0  0  0  0  0  0  0  0  0
  -17.5243    9.6834  -21.3258 O   0  0  0  0  0  0  0  0  0  0  0  0
  -15.1586    9.8447  -20.9872 O   0  0  0  0  0  0  0  0  0  0  0  0
  -16.3441   14.0991  -23.9755 C   0  0  0  0  0  0  0  0  0  0  0  0
  -17.4621   13.7646  -23.2144 C   0  0  0  0  0  0  0  0  0  0  0  0
  -17.4630   12.7354  -22.3141 C   0  0  0  0  0  0  0  0  0  0  0  0
  -16.3158   11.9420  -22.1025 C   0  0  0  0  0  0  0  0  0  0  0  0
  -15.2185   12.2694  -22.8506 C   0  0  0  0  0  0  0  0  0  0  0  0
  -15.2200   13.3237  -23.7706 C   0  0  0  0  0  0  0  0  0  0  0  0
  -17.4345   16.2405  -24.3950 C   0  0  0  0  0  0  0  0  0  0  0  0
  -16.4030   15.2448  -24.9115 C   0  0  0  0  0  0  0  0  0  0  0  0
  -15.0537   15.9459  -25.0285 C   0  0  0  0  0  0  0  0  0  0  0  0
  -16.8151   14.8113  -26.2867 C   0  0  0  0  0  0  0  0  0  0  0  0
  -16.6534   11.2482  -19.3649 N   0  0  0  0  0  0  0  0  0  0  0  0
  -15.7762   11.6604  -18.8846 H   0  0  0  0  0  0  0  0  0  0  0  0
  -17.8157   11.2690  -18.5797 C   0  0  0  0  0  0  0  0  0  0  0  0
  -18.3342   10.2621  -17.8216 C   0  0  0  0  0  0  0  0  0  0  0  0
  -19.5090   10.3811  -17.0924 C   0  0  0  0  0  0  0  0  0  0  0  0
  -20.1853   11.5753  -17.1326 C   0  0  0  0  0  0  0  0  0  0  0  0
  -21.3439   11.8014  -16.4557 F   0  0  0  0  0  0  0  0  0  0  0  0
  -19.7077   12.6468  -17.8841 C   0  0  0  0  0  0  0  0  0  0  0  0
  -18.5515   12.4907  -18.5884 C   0  0  0  0  0  0  0  0  0  0  0  0
  -20.4144   13.9331  -17.9432 C   0  0  0  0  0  0  0  0  0  0  0  0
  -21.4338   14.0351  -18.9141 O   0  0  0  0  0  0  0  0  0  0  0  0
  -20.1637   14.8854  -17.2128 O   0  0  0  0  0  0  0  0  0  0  0  0
  -21.1727   14.0534  -19.9156 H   0  0  0  0  0  0  0  0  0  0  0  0
 10 11  1  0  0  0
 11 12  1  0  0  0
 11 13  1  0  0  0
 11  4  1  0  0  0
  4  5  2  0  0  0
  5  6  1  0  0  0
  6  7  2  0  0  0
  7  8  1  0  0  0
  8  9  2  0  0  0
  7  1  1  0  0  0
  1  2  2  0  0  0
  1  3  2  0  0  0
  1 14  1  0  0  0
 14 16  1  0  0  0
 16 17  2  0  0  0
 17 18  1  0  0  0
 18 19  2  0  0  0
 19 20  1  0  0  0
 19 21  1  0  0  0
 21 22  2  0  0  0
 21 23  1  0  0  0
 23 24  1  0  0  0
 23 25  2  0  0  0
  9  4  1  0  0  0
 22 16  1  0  0  0
 14 15  1  0  0  0
 24 26  1  0  0  0
M  END
> <minimizedAffinity>
-7.38170

> <CNNscore>
0.5893364549

> <CNNaffinity>
6.1199760437

> <CNN_VS>
3.6067249775

> <CNNaffinity_variance>
0.1575046182

$$$$
[H]OC(=O)c1c([H])c(N([H])S(=O)(=O)c2c([H])c([H])c(C(C([H])([H])[H])(C([H])([H])[H])C([H])([H])[H])c([H])c2[H])c([H])c([H])c1F


 26 27  0  0  0  0  0  0  0  0999 V2000
  -16.6226   10.6648  -20.7293 S   0  0  0  0  0  0  0  0  0  0  0  0
  -17.6310    9.6168  -21.1795 O   0  0  0  0  0  0  0  0  0  0  0  0
  -15.2777    9.9685  -20.9042 O   0  0  0  0  0  0  0  0  0  0  0  0
  -16.8847   14.3840  -23.4101 C   0  0  0  0  0  0  0  0  0  0  0  0
  -17.6622   14.1891  -22.2706 C   0  0  0  0  0  0  0  0  0  0  0  0
  -17.5657   13.0692  -21.4920 C   0  0  0  0  0  0  0  0  0  0  0  0
  -16.6610   12.0323  -21.8035 C   0  0  0  0  0  0  0  0  0  0  0  0
  -15.8986   12.2229  -22.9230 C   0  0  0  0  0  0  0  0  0  0  0  0
  -15.9988   13.3704  -23.7176 C   0  0  0  0  0  0  0  0  0  0  0  0
  -18.4668   16.1040  -24.1097 C   0  0  0  0  0  0  0  0  0  0  0  0
  -17.0195   15.6342  -24.1918 C   0  0  0  0  0  0  0  0  0  0  0  0
  -16.1108   16.7347  -23.6544 C   0  0  0  0  0  0  0  0  0  0  0  0
  -16.6757   15.4202  -25.6358 C   0  0  0  0  0  0  0  0  0  0  0  0
  -16.8272   11.0935  -19.1238 N   0  0  0  0  0  0  0  0  0  0  0  0
  -15.9494   11.4700  -18.6161 H   0  0  0  0  0  0  0  0  0  0  0  0
  -17.9811   11.0280  -18.3288 C   0  0  0  0  0  0  0  0  0  0  0  0
  -18.9693   11.9584  -18.2059 C   0  0  0  0  0  0  0  0  0  0  0  0
  -20.0667   11.8026  -17.3708 C   0  0  0  0  0  0  0  0  0  0  0  0
  -20.1664   10.6507  -16.6302 C   0  0  0  0  0  0  0  0  0  0  0  0
  -21.1993   10.3942  -15.7824 F   0  0  0  0  0  0  0  0  0  0  0  0
  -19.1932    9.6571  -16.7122 C   0  0  0  0  0  0  0  0  0  0  0  0
  -18.1292    9.8476  -17.5422 C   0  0  0  0  0  0  0  0  0  0  0  0
  -19.2780    8.4174  -15.9289 C   0  0  0  0  0  0  0  0  0  0  0  0
  -18.5576    8.4017  -14.7153 O   0  0  0  0  0  0  0  0  0  0  0  0
  -19.9227    7.4333  -16.2738 O   0  0  0  0  0  0  0  0  0  0  0  0
  -17.5229    8.3937  -14.7462 H   0  0  0  0  0  0  0  0  0  0  0  0
 10 11  1  0  0  0
 11 12  1  0  0  0
 11 13  1  0  0  0
 11  4  1  0  0  0
  4  5  2  0  0  0
  5  6  1  0  0  0
  6  7  2  0  0  0
  7  8  1  0  0  0
  8  9  2  0  0  0
  7  1  1  0  0  0
  1  2  2  0  0  0
  1  3  2  0  0  0
  1 14  1  0  0  0
 14 16  1  0  0  0
 16 17  2  0  0  0
 17 18  1  0  0  0
 18 19  2  0  0  0
 19 20  1  0  0  0
 19 21  1  0  0  0
 21 22  2  0  0  0
 21 23  1  0  0  0
 23 24  1  0  0  0
 23 25  2  0  0  0
  9  4  1  0  0  0
 22 16  1  0  0  0
 14 15  1  0  0  0
 24 26  1  0  0  0
M  END
> <minimizedAffinity>
-8.13623

> <CNNscore>
0.5582872629

> <CNNaffinity>
6.0002741814

> <CNN_VS>
3.3498766422

> <CNNaffinity_variance>
0.1311713308

$$$$
[H]OC(=O)c1c([H])c(N([H])S(=O)(=O)c2c([H])c([H])c(C(C([H])([H])[H])(C([H])([H])[H])C([H])([H])[H])c([H])c2[H])c([H])c([H])c1F


 26 27  0  0  0  0  0  0  0  0999 V2000
  -16.6240   10.6100  -19.7001 S   0  0  0  0  0  0  0  0  0  0  0  0
  -15.7101    9.6512  -20.4505 O   0  0  0  0  0  0  0  0  0  0  0  0
  -15.7624   11.0937  -18.5391 O   0  0  0  0  0  0  0  0  0  0  0  0
  -17.5016   14.1226  -22.5249 C   0  0  0  0  0  0  0  0  0  0  0  0
  -16.7463   13.0073  -22.8805 C   0  0  0  0  0  0  0  0  0  0  0  0
  -16.4975   11.9765  -22.0171 C   0  0  0  0  0  0  0  0  0  0  0  0
  -16.9981   11.9846  -20.6981 C   0  0  0  0  0  0  0  0  0  0  0  0
  -17.7385   13.0802  -20.3484 C   0  0  0  0  0  0  0  0  0  0  0  0
  -17.9923   14.1333  -21.2343 C   0  0  0  0  0  0  0  0  0  0  0  0
  -18.7501   16.1801  -22.9231 C   0  0  0  0  0  0  0  0  0  0  0  0
  -17.7570   15.1898  -23.5190 C   0  0  0  0  0  0  0  0  0  0  0  0
  -16.4775   15.9332  -23.8878 C   0  0  0  0  0  0  0  0  0  0  0  0
  -18.3455   14.6358  -24.7822 C   0  0  0  0  0  0  0  0  0  0  0  0
  -17.9908    9.8482  -19.1043 N   0  0  0  0  0  0  0  0  0  0  0  0
  -18.4062    9.0639  -19.7226 H   0  0  0  0  0  0  0  0  0  0  0  0
  -18.6892   10.0859  -17.9112 C   0  0  0  0  0  0  0  0  0  0  0  0
  -19.3219   11.2288  -17.5227 C   0  0  0  0  0  0  0  0  0  0  0  0
  -19.9719   11.3667  -16.3043 C   0  0  0  0  0  0  0  0  0  0  0  0
  -19.9823   10.2966  -15.4441 C   0  0  0  0  0  0  0  0  0  0  0  0
  -20.5903   10.3217  -14.2270 F   0  0  0  0  0  0  0  0  0  0  0  0
  -19.3585    9.0973  -15.7813 C   0  0  0  0  0  0  0  0  0  0  0  0
  -18.7289    9.0012  -16.9860 C   0  0  0  0  0  0  0  0  0  0  0  0
  -19.3555    7.9398  -14.8770 C   0  0  0  0  0  0  0  0  0  0  0  0
  -18.7166    8.1282  -13.6326 O   0  0  0  0  0  0  0  0  0  0  0  0
  -19.8644    6.8580  -15.1491 O   0  0  0  0  0  0  0  0  0  0  0  0
  -17.6876    8.2377  -13.6086 H   0  0  0  0  0  0  0  0  0  0  0  0
 10 11  1  0  0  0
 11 12  1  0  0  0
 11 13  1  0  0  0
 11  4  1  0  0  0
  4  5  2  0  0  0
  5  6  1  0  0  0
  6  7  2  0  0  0
  7  8  1  0  0  0
  8  9  2  0  0  0
  7  1  1  0  0  0
  1  2  2  0  0  0
  1  3  2  0  0  0
  1 14  1  0  0  0
 14 16  1  0  0  0
 16 17  2  0  0  0
 17 18  1  0  0  0
 18 19  2  0  0  0
 19 20  1  0  0  0
 19 21  1  0  0  0
 21 22  2  0  0  0
 21 23  1  0  0  0
 23 24  1  0  0  0
 23 25  2  0  0  0
  9  4  1  0  0  0
 22 16  1  0  0  0
 14 15  1  0  0  0
 24 26  1  0  0  0
M  END
> <minimizedAffinity>
-7.99108

> <CNNscore>
0.4114784896

> <CNNaffinity>
5.8350157738

> <CNN_VS>
2.4009835720

> <CNNaffinity_variance>
0.1923554391

$$$$
[H]OC(=O)c1c([H])c(N([H])S(=O)(=O)c2c([H])c([H])c(C(C([H])([H])[H])(C([H])([H])[H])C([H])([H])[H])c([H])c2[H])c([H])c([H])c1F


 26 27  0  0  0  0  0  0  0  0999 V2000
  -17.3883   11.2353  -19.3883 S   0  0  0  0  0  0  0  0  0  0  0  0
  -17.2192    9.8520  -20.0013 O   0  0  0  0  0  0  0  0  0  0  0  0
  -16.1223   11.4185  -18.5590 O   0  0  0  0  0  0  0  0  0  0  0  0
  -17.3540   14.2529  -22.8497 C   0  0  0  0  0  0  0  0  0  0  0  0
  -17.0710   12.8966  -22.9961 C   0  0  0  0  0  0  0  0  0  0  0  0
  -17.0851   12.0205  -21.9463 C   0  0  0  0  0  0  0  0  0  0  0  0
  -17.3905   12.4467  -20.6365 C   0  0  0  0  0  0  0  0  0  0  0  0
  -17.6671   13.7784  -20.4924 C   0  0  0  0  0  0  0  0  0  0  0  0
  -17.6528   14.6727  -21.5686 C   0  0  0  0  0  0  0  0  0  0  0  0
  -18.5684   16.0526  -23.9619 C   0  0  0  0  0  0  0  0  0  0  0  0
  -17.3494   15.1409  -24.0344 C   0  0  0  0  0  0  0  0  0  0  0  0
  -16.0910   16.0006  -24.0885 C   0  0  0  0  0  0  0  0  0  0  0  0
  -17.4239   14.3565  -25.3104 C   0  0  0  0  0  0  0  0  0  0  0  0
  -18.7299   11.3274  -18.3908 N   0  0  0  0  0  0  0  0  0  0  0  0
  -19.3464   12.2092  -18.5025 H   0  0  0  0  0  0  0  0  0  0  0  0
  -19.1726   10.4226  -17.4146 C   0  0  0  0  0  0  0  0  0  0  0  0
  -18.6501    9.2032  -17.1022 C   0  0  0  0  0  0  0  0  0  0  0  0
  -19.1795    8.3721  -16.1249 C   0  0  0  0  0  0  0  0  0  0  0  0
  -20.2858    8.7989  -15.4328 C   0  0  0  0  0  0  0  0  0  0  0  0
  -20.8842    8.0663  -14.4546 F   0  0  0  0  0  0  0  0  0  0  0  0
  -20.8668   10.0368  -15.6992 C   0  0  0  0  0  0  0  0  0  0  0  0
  -20.3194   10.8239  -16.6677 C   0  0  0  0  0  0  0  0  0  0  0  0
  -22.0510   10.5139  -14.9727 C   0  0  0  0  0  0  0  0  0  0  0  0
  -23.2838   10.3888  -15.6486 O   0  0  0  0  0  0  0  0  0  0  0  0
  -22.0135   10.9989  -13.8473 O   0  0  0  0  0  0  0  0  0  0  0  0
  -23.4651   10.9844  -16.4756 H   0  0  0  0  0  0  0  0  0  0  0  0
 10 11  1  0  0  0
 11 12  1  0  0  0
 11 13  1  0  0  0
 11  4  1  0  0  0
  4  5  2  0  0  0
  5  6  1  0  0  0
  6  7  2  0  0  0
  7  8  1  0  0  0
  8  9  2  0  0  0
  7  1  1  0  0  0
  1  2  2  0  0  0
  1  3  2  0  0  0
  1 14  1  0  0  0
 14 16  1  0  0  0
 16 17  2  0  0  0
 17 18  1  0  0  0
 18 19  2  0  0  0
 19 20  1  0  0  0
 19 21  1  0  0  0
 21 22  2  0  0  0
 21 23  1  0  0  0
 23 24  1  0  0  0
 23 25  2  0  0  0
  9  4  1  0  0  0
 22 16  1  0  0  0
 14 15  1  0  0  0
 24 26  1  0  0  0
M  END
> <minimizedAffinity>
-7.82284

> <CNNscore>
0.3449839950

> <CNNaffinity>
5.5230550766

> <CNN_VS>
1.9053655863

> <CNNaffinity_variance>
0.1131395549

$$$$
[H]OC(=O)c1c([H])c(N([H])S(=O)(=O)c2c([H])c([H])c(C(C([H])([H])[H])(C([H])([H])[H])C([H])([H])[H])c([H])c2[H])c([H])c([H])c1F


 26 27  0  0  0  0  0  0  0  0999 V2000
  -16.6857   11.0900  -20.8775 S   0  0  0  0  0  0  0  0  0  0  0  0
  -17.7436   10.0694  -21.2734 O   0  0  0  0  0  0  0  0  0  0  0  0
  -15.4388   10.2441  -20.6454 O   0  0  0  0  0  0  0  0  0  0  0  0
  -16.0710   14.0057  -24.3716 C   0  0  0  0  0  0  0  0  0  0  0  0
  -17.2980   13.7815  -23.7511 C   0  0  0  0  0  0  0  0  0  0  0  0
  -17.4530   12.9040  -22.7139 C   0  0  0  0  0  0  0  0  0  0  0  0
  -16.3637   12.1645  -22.2068 C   0  0  0  0  0  0  0  0  0  0  0  0
  -15.1593   12.3835  -22.8168 C   0  0  0  0  0  0  0  0  0  0  0  0
  -15.0032   13.2828  -23.8775 C   0  0  0  0  0  0  0  0  0  0  0  0
  -16.7274   16.2500  -25.0666 C   0  0  0  0  0  0  0  0  0  0  0  0
  -15.9679   14.9922  -25.4709 C   0  0  0  0  0  0  0  0  0  0  0  0
  -14.5172   15.3619  -25.7611 C   0  0  0  0  0  0  0  0  0  0  0  0
  -16.5698   14.4668  -26.7400 C   0  0  0  0  0  0  0  0  0  0  0  0
  -17.0830   11.9011  -19.4677 N   0  0  0  0  0  0  0  0  0  0  0  0
  -16.3223   11.9203  -18.6990 H   0  0  0  0  0  0  0  0  0  0  0  0
  -18.2744   12.5602  -19.1297 C   0  0  0  0  0  0  0  0  0  0  0  0
  -18.8541   13.6209  -19.7591 C   0  0  0  0  0  0  0  0  0  0  0  0
  -20.0324   14.2147  -19.3289 C   0  0  0  0  0  0  0  0  0  0  0  0
  -20.6504   13.7076  -18.2126 C   0  0  0  0  0  0  0  0  0  0  0  0
  -21.8085   14.2111  -17.7056 F   0  0  0  0  0  0  0  0  0  0  0  0
  -20.1134   12.6216  -17.5247 C   0  0  0  0  0  0  0  0  0  0  0  0
  -18.9537   12.0668  -17.9768 C   0  0  0  0  0  0  0  0  0  0  0  0
  -20.7560   12.0629  -16.3278 C   0  0  0  0  0  0  0  0  0  0  0  0
  -20.6705   12.8461  -15.1568 O   0  0  0  0  0  0  0  0  0  0  0  0
  -21.3396   10.9849  -16.3050 O   0  0  0  0  0  0  0  0  0  0  0  0
  -19.7509   12.9597  -14.6952 H   0  0  0  0  0  0  0  0  0  0  0  0
 10 11  1  0  0  0
 11 12  1  0  0  0
 11 13  1  0  0  0
 11  4  1  0  0  0
  4  5  2  0  0  0
  5  6  1  0  0  0
  6  7  2  0  0  0
  7  8  1  0  0  0
  8  9  2  0  0  0
  7  1  1  0  0  0
  1  2  2  0  0  0
  1  3  2  0  0  0
  1 14  1  0  0  0
 14 16  1  0  0  0
 16 17  2  0  0  0
 17 18  1  0  0  0
 18 19  2  0  0  0
 19 20  1  0  0  0
 19 21  1  0  0  0
 21 22  2  0  0  0
 21 23  1  0  0  0
 23 24  1  0  0  0
 23 25  2  0  0  0
  9  4  1  0  0  0
 22 16  1  0  0  0
 14 15  1  0  0  0
 24 26  1  0  0  0
M  END
> <minimizedAffinity>
-7.33932

> <CNNscore>
0.3403449059

> <CNNaffinity>
5.8910074234

> <CNN_VS>
2.0049743652

> <CNNaffinity_variance>
0.1541277319

$$$$
[H]OC(=O)c1c([H])c(N([H])S(=O)(=O)c2c([H])c([H])c(C(C([H])([H])[H])(C([H])([H])[H])C([H])([H])[H])c([H])c2[H])c([H])c([H])c1F


 26 27  0  0  0  0  0  0  0  0999 V2000
  -19.4589   14.4330  -19.7688 S   0  0  0  0  0  0  0  0  0  0  0  0
  -19.7873   15.8869  -19.4592 O   0  0  0  0  0  0  0  0  0  0  0  0
  -20.8239   13.8005  -20.0151 O   0  0  0  0  0  0  0  0  0  0  0  0
  -17.1319   14.3796  -23.7274 C   0  0  0  0  0  0  0  0  0  0  0  0
  -18.0144   15.3918  -23.3564 C   0  0  0  0  0  0  0  0  0  0  0  0
  -18.6973   15.3803  -22.1718 C   0  0  0  0  0  0  0  0  0  0  0  0
  -18.5456   14.3272  -21.2453 C   0  0  0  0  0  0  0  0  0  0  0  0
  -17.6802   13.3327  -21.6100 C   0  0  0  0  0  0  0  0  0  0  0  0
  -16.9819   13.3474  -22.8225 C   0  0  0  0  0  0  0  0  0  0  0  0
  -17.0318   13.4910  -25.9970 C   0  0  0  0  0  0  0  0  0  0  0  0
  -16.4024   14.4694  -25.0127 C   0  0  0  0  0  0  0  0  0  0  0  0
  -16.4693   15.8748  -25.6008 C   0  0  0  0  0  0  0  0  0  0  0  0
  -14.9558   14.1086  -24.8508 C   0  0  0  0  0  0  0  0  0  0  0  0
  -18.7088   13.6646  -18.4842 N   0  0  0  0  0  0  0  0  0  0  0  0
  -18.1247   14.2953  -17.8276 H   0  0  0  0  0  0  0  0  0  0  0  0
  -18.7199   12.3061  -18.1347 C   0  0  0  0  0  0  0  0  0  0  0  0
  -17.9134   11.3125  -18.6036 C   0  0  0  0  0  0  0  0  0  0  0  0
  -18.0208    9.9878  -18.2039 C   0  0  0  0  0  0  0  0  0  0  0  0
  -18.9873    9.6582  -17.2861 C   0  0  0  0  0  0  0  0  0  0  0  0
  -19.1791    8.3926  -16.8242 F   0  0  0  0  0  0  0  0  0  0  0  0
  -19.8419   10.6263  -16.7632 C   0  0  0  0  0  0  0  0  0  0  0  0
  -19.7067   11.9161  -17.1818 C   0  0  0  0  0  0  0  0  0  0  0  0
  -20.8838   10.2971  -15.7815 C   0  0  0  0  0  0  0  0  0  0  0  0
  -20.4408   10.0740  -14.4601 O   0  0  0  0  0  0  0  0  0  0  0  0
  -22.0762   10.2103  -16.0529 O   0  0  0  0  0  0  0  0  0  0  0  0
  -19.8819    9.2272  -14.2546 H   0  0  0  0  0  0  0  0  0  0  0  0
 10 11  1  0  0  0
 11 12  1  0  0  0
 11 13  1  0  0  0
 11  4  1  0  0  0
  4  5  2  0  0  0
  5  6  1  0  0  0
  6  7  2  0  0  0
  7  8  1  0  0  0
  8  9  2  0  0  0
  7  1  1  0  0  0
  1  2  2  0  0  0
  1  3  2  0  0  0
  1 14  1  0  0  0
 14 16  1  0  0  0
 16 17  2  0  0  0
 17 18  1  0  0  0
 18 19  2  0  0  0
 19 20  1  0  0  0
 19 21  1  0  0  0
 21 22  2  0  0  0
 21 23  1  0  0  0
 23 24  1  0  0  0
 23 25  2  0  0  0
  9  4  1  0  0  0
 22 16  1  0  0  0
 14 15  1  0  0  0
 24 26  1  0  0  0
M  END
> <minimizedAffinity>
-7.77186

> <CNNscore>
0.2909629941

> <CNNaffinity>
5.7086601257

> <CNN_VS>
1.6610088348

> <CNNaffinity_variance>
0.0771643519

$$$$
[H]OC(=O)c1c([H])c(N([H])S(=O)(=O)c2c([H])c([H])c(C(C([H])([H])[H])(C([H])([H])[H])C([H])([H])[H])c([H])c2[H])c([H])c([H])c1F


 26 27  0  0  0  0  0  0  0  0999 V2000
  -17.1802   10.9731  -19.9190 S   0  0  0  0  0  0  0  0  0  0  0  0
  -15.7938   11.3481  -19.4141 O   0  0  0  0  0  0  0  0  0  0  0  0
  -16.9791    9.5904  -20.5288 O   0  0  0  0  0  0  0  0  0  0  0  0
  -19.9922   10.3255  -16.3466 C   0  0  0  0  0  0  0  0  0  0  0  0
  -19.1307    9.3512  -16.8462 C   0  0  0  0  0  0  0  0  0  0  0  0
  -18.3060    9.5705  -17.9146 C   0  0  0  0  0  0  0  0  0  0  0  0
  -18.2810   10.8134  -18.5818 C   0  0  0  0  0  0  0  0  0  0  0  0
  -19.1277   11.7696  -18.0923 C   0  0  0  0  0  0  0  0  0  0  0  0
  -19.9701   11.5427  -16.9982 C   0  0  0  0  0  0  0  0  0  0  0  0
  -20.3920   10.9225  -14.0155 C   0  0  0  0  0  0  0  0  0  0  0  0
  -20.8376   10.0302  -15.1676 C   0  0  0  0  0  0  0  0  0  0  0  0
  -22.3128   10.2908  -15.4534 C   0  0  0  0  0  0  0  0  0  0  0  0
  -20.7000    8.6006  -14.7359 C   0  0  0  0  0  0  0  0  0  0  0  0
  -17.7343   12.0288  -21.0945 N   0  0  0  0  0  0  0  0  0  0  0  0
  -18.7942   11.9911  -21.3067 H   0  0  0  0  0  0  0  0  0  0  0  0
  -17.0162   12.9602  -21.8592 C   0  0  0  0  0  0  0  0  0  0  0  0
  -16.2088   12.7216  -22.9309 C   0  0  0  0  0  0  0  0  0  0  0  0
  -15.5241   13.7198  -23.6098 C   0  0  0  0  0  0  0  0  0  0  0  0
  -15.6677   15.0170  -23.1836 C   0  0  0  0  0  0  0  0  0  0  0  0
  -15.0450   16.0718  -23.7763 F   0  0  0  0  0  0  0  0  0  0  0  0
  -16.4816   15.3307  -22.0972 C   0  0  0  0  0  0  0  0  0  0  0  0
  -17.1361   14.3226  -21.4550 C   0  0  0  0  0  0  0  0  0  0  0  0
  -16.6495   16.7106  -21.6227 C   0  0  0  0  0  0  0  0  0  0  0  0
  -17.5207   17.5236  -22.3793 O   0  0  0  0  0  0  0  0  0  0  0  0
  -16.0846   17.1678  -20.6353 O   0  0  0  0  0  0  0  0  0  0  0  0
  -17.2368   17.8119  -23.3320 H   0  0  0  0  0  0  0  0  0  0  0  0
 10 11  1  0  0  0
 11 12  1  0  0  0
 11 13  1  0  0  0
 11  4  1  0  0  0
  4  5  2  0  0  0
  5  6  1  0  0  0
  6  7  2  0  0  0
  7  8  1  0  0  0
  8  9  2  0  0  0
  7  1  1  0  0  0
  1  2  2  0  0  0
  1  3  2  0  0  0
  1 14  1  0  0  0
 14 16  1  0  0  0
 16 17  2  0  0  0
 17 18  1  0  0  0
 18 19  2  0  0  0
 19 20  1  0  0  0
 19 21  1  0  0  0
 21 22  2  0  0  0
 21 23  1  0  0  0
 23 24  1  0  0  0
 23 25  2  0  0  0
  9  4  1  0  0  0
 22 16  1  0  0  0
 14 15  1  0  0  0
 24 26  1  0  0  0
M  END
> <minimizedAffinity>
-7.40293

> <CNNscore>
0.2659689784

> <CNNaffinity>
5.3392810822

> <CNN_VS>
1.4200831652

> <CNNaffinity_variance>
0.2437989712

$$$$
[H]OC(=O)c1c([H])c(N([H])S(=O)(=O)c2c([H])c([H])c(C(C([H])([H])[H])(C([H])([H])[H])C([H])([H])[H])c([H])c2[H])c([H])c([H])c1F


 26 27  0  0  0  0  0  0  0  0999 V2000
  -17.5921   11.8201  -20.2077 S   0  0  0  0  0  0  0  0  0  0  0  0
  -17.5548   10.3880  -20.7228 O   0  0  0  0  0  0  0  0  0  0  0  0
  -16.5568   11.8269  -19.0887 O   0  0  0  0  0  0  0  0  0  0  0  0
  -16.0876   14.5150  -23.6080 C   0  0  0  0  0  0  0  0  0  0  0  0
  -15.9209   13.1321  -23.5785 C   0  0  0  0  0  0  0  0  0  0  0  0
  -16.3765   12.3539  -22.5506 C   0  0  0  0  0  0  0  0  0  0  0  0
  -17.0499   12.9154  -21.4452 C   0  0  0  0  0  0  0  0  0  0  0  0
  -17.2124   14.2732  -21.4734 C   0  0  0  0  0  0  0  0  0  0  0  0
  -16.7460   15.0672  -22.5270 C   0  0  0  0  0  0  0  0  0  0  0  0
  -14.1389   14.9220  -25.0178 C   0  0  0  0  0  0  0  0  0  0  0  0
  -15.5951   15.2943  -24.7665 C   0  0  0  0  0  0  0  0  0  0  0  0
  -16.4046   15.0031  -26.0257 C   0  0  0  0  0  0  0  0  0  0  0  0
  -15.6655   16.7697  -24.5073 C   0  0  0  0  0  0  0  0  0  0  0  0
  -19.0914   12.2320  -19.5865 N   0  0  0  0  0  0  0  0  0  0  0  0
  -19.8097   12.6210  -20.2954 H   0  0  0  0  0  0  0  0  0  0  0  0
  -19.5556   12.1533  -18.2651 C   0  0  0  0  0  0  0  0  0  0  0  0
  -19.4552   11.1037  -17.4016 C   0  0  0  0  0  0  0  0  0  0  0  0
  -19.9691   11.1221  -16.1125 C   0  0  0  0  0  0  0  0  0  0  0  0
  -20.6104   12.2567  -15.6806 C   0  0  0  0  0  0  0  0  0  0  0  0
  -21.1493   12.3835  -14.4375 F   0  0  0  0  0  0  0  0  0  0  0  0
  -20.7438   13.3673  -16.5111 C   0  0  0  0  0  0  0  0  0  0  0  0
  -20.2276   13.3102  -17.7711 C   0  0  0  0  0  0  0  0  0  0  0  0
  -21.4267   14.5912  -16.0714 C   0  0  0  0  0  0  0  0  0  0  0  0
  -20.5965   15.7006  -15.8026 O   0  0  0  0  0  0  0  0  0  0  0  0
  -22.6412   14.6843  -15.9324 O   0  0  0  0  0  0  0  0  0  0  0  0
  -19.9705   15.6707  -14.9788 H   0  0  0  0  0  0  0  0  0  0  0  0
 10 11  1  0  0  0
 11 12  1  0  0  0
 11 13  1  0  0  0
 11  4  1  0  0  0
  4  5  2  0  0  0
  5  6  1  0  0  0
  6  7  2  0  0  0
  7  8  1  0  0  0
  8  9  2  0  0  0
  7  1  1  0  0  0
  1  2  2  0  0  0
  1  3  2  0  0  0
  1 14  1  0  0  0
 14 16  1  0  0  0
 16 17  2  0  0  0
 17 18  1  0  0  0
 18 19  2  0  0  0
 19 20  1  0  0  0
 19 21  1  0  0  0
 21 22  2  0  0  0
 21 23  1  0  0  0
 23 24  1  0  0  0
 23 25  2  0  0  0
  9  4  1  0  0  0
 22 16  1  0  0  0
 14 15  1  0  0  0
 24 26  1  0  0  0
M  END
> <minimizedAffinity>
-6.99747

> <CNNscore>
0.2630523145

> <CNNaffinity>
5.6606492996

> <CNN_VS>
1.4890469313

> <CNNaffinity_variance>
0.1661212295

$$$$
[H]c1c([H])c([H])c2c(c1[H])c1c3c(c4c5c([H])c([H])c([H])c([H])c5n5c4c1n2[C@@]1([H])O[C@]5(C([H])([H])[H])[C@@]([H])(OC([H])([H])[H])[C@@]([H])(N([H])C([H])([H])[H])C1([H])[H])C([H])([H])N([H])C3=O


 37 44  0  0  0  0  0  0  0  0999 V2000
  -18.4885   17.6628  -20.0214 C   0  0  0  0  0  0  0  0  0  0  0  0
  -18.1780   17.2273  -21.3938 C   0  0  0  0  0  0  0  0  0  0  0  0
  -19.0877   16.1821  -21.9513 C   0  0  0  0  0  0  0  0  0  0  0  0
  -20.2116   15.9130  -21.3432 O   0  0  0  0  0  0  0  0  0  0  0  0
  -20.3989   15.9881  -19.9822 C   0  0  0  0  0  0  0  0  0  0  0  0
  -21.9380   16.0626  -19.9064 C   0  0  0  0  0  0  0  0  0  0  0  0
  -19.8389   17.2429  -19.4855 C   0  0  0  0  0  0  0  0  0  0  0  0
  -19.9124   14.7568  -19.3827 N   0  0  0  0  0  0  0  0  0  0  0  0
  -20.2858   14.1845  -18.2337 C   0  0  0  0  0  0  0  0  0  0  0  0
  -21.1738   14.5599  -17.2704 C   0  0  0  0  0  0  0  0  0  0  0  0
  -21.3743   13.7648  -16.1519 C   0  0  0  0  0  0  0  0  0  0  0  0
  -20.7063   12.5812  -15.9535 C   0  0  0  0  0  0  0  0  0  0  0  0
  -19.7932   12.1846  -16.9324 C   0  0  0  0  0  0  0  0  0  0  0  0
  -19.6154   12.9934  -18.0307 C   0  0  0  0  0  0  0  0  0  0  0  0
  -18.7806   12.8283  -19.1215 C   0  0  0  0  0  0  0  0  0  0  0  0
  -17.8791   11.8397  -19.4908 C   0  0  0  0  0  0  0  0  0  0  0  0
  -17.5090   10.5862  -18.7661 C   0  0  0  0  0  0  0  0  0  0  0  0
  -16.5505    9.9260  -19.6051 N   0  0  0  0  0  0  0  0  0  0  0  0
  -16.3082   10.7157  -20.7665 C   0  0  0  0  0  0  0  0  0  0  0  0
  -15.5061   10.3595  -21.6333 O   0  0  0  0  0  0  0  0  0  0  0  0
  -17.1499   11.8936  -20.6607 C   0  0  0  0  0  0  0  0  0  0  0  0
  -17.3640   12.9991  -21.4574 C   0  0  0  0  0  0  0  0  0  0  0  0
  -16.8391   13.4196  -22.6610 C   0  0  0  0  0  0  0  0  0  0  0  0
  -15.9206   12.9005  -23.5286 C   0  0  0  0  0  0  0  0  0  0  0  0
  -15.6183   13.6119  -24.6892 C   0  0  0  0  0  0  0  0  0  0  0  0
  -16.2075   14.8183  -24.9987 C   0  0  0  0  0  0  0  0  0  0  0  0
  -17.1346   15.3407  -24.1209 C   0  0  0  0  0  0  0  0  0  0  0  0
  -17.4297   14.6484  -22.9901 C   0  0  0  0  0  0  0  0  0  0  0  0
  -18.2824   14.9494  -22.0088 N   0  0  0  0  0  0  0  0  0  0  0  0
  -18.2629   13.9832  -21.0864 C   0  0  0  0  0  0  0  0  0  0  0  0
  -18.9816   13.8998  -19.9092 C   0  0  0  0  0  0  0  0  0  0  0  0
  -16.0993    8.9910  -19.3800 H   0  0  0  0  0  0  0  0  0  0  0  0
  -16.2466   17.0286  -19.8199 C   0  0  0  0  0  0  0  0  0  0  0  0
  -17.4624   17.2362  -19.0609 N   0  0  0  0  0  0  0  0  0  0  0  0
  -17.2656   17.9423  -18.3458 H   0  0  0  0  0  0  0  0  0  0  0  0
  -19.7267   17.4096  -18.1140 O   0  0  0  0  0  0  0  0  0  0  0  0
  -20.4321   18.4536  -17.5843 C   0  0  0  0  0  0  0  0  0  0  0  0
 33 34  1  0  0  0
 34  1  1  0  0  0
  1  2  1  0  0  0
  2  3  1  0  0  0
  3  4  1  0  0  0
  4  5  1  0  0  0
  5  6  1  0  0  0
  5  7  1  0  0  0
  7 36  1  0  0  0
 36 37  1  0  0  0
  5  8  1  0  0  0
  8  9  1  0  0  0
  9 10  2  0  0  0
 10 11  1  0  0  0
 11 12  2  0  0  0
 12 13  1  0  0  0
 13 14  2  0  0  0
 14 15  1  0  0  0
 15 16  2  0  0  0
 16 17  1  0  0  0
 17 18  1  0  0  0
 18 19  1  0  0  0
 19 20  2  0  0  0
 19 21  1  0  0  0
 21 22  2  0  0  0
 22 23  1  0  0  0
 23 24  2  0  0  0
 24 25  1  0  0  0
 25 26  2  0  0  0
 26 27  1  0  0  0
 27 28  2  0  0  0
 28 29  1  0  0  0
 29 30  1  0  0  0
 30 31  2  0  0  0
  7  1  1  0  0  0
 31  8  1  0  0  0
 29  3  1  0  0  0
 14  9  1  0  0  0
 31 15  1  0  0  0
 21 16  1  0  0  0
 30 22  1  0  0  0
 28 23  1  0  0  0
 34 35  1  0  0  0
 18 32  1  0  0  0
M  END
> <minimizedAffinity>
-10.84376

> <CNNscore>
0.7799381614

> <CNNaffinity>
7.3111748695

> <CNN_VS>
5.7022643089

> <CNNaffinity_variance>
0.1290091127

$$$$
[H]c1c([H])c([H])c2c(c1[H])c1c3c(c4c5c([H])c([H])c([H])c([H])c5n5c4c1n2[C@@]1([H])O[C@]5(C([H])([H])[H])[C@@]([H])(OC([H])([H])[H])[C@@]([H])(N([H])C([H])([H])[H])C1([H])[H])C([H])([H])N([H])C3=O


 37 44  0  0  0  0  0  0  0  0999 V2000
  -18.4503   17.7394  -20.0108 C   0  0  0  0  0  0  0  0  0  0  0  0
  -18.1675   17.6138  -21.4508 C   0  0  0  0  0  0  0  0  0  0  0  0
  -18.9999   16.6092  -22.1779 C   0  0  0  0  0  0  0  0  0  0  0  0
  -20.0619   16.1127  -21.6027 O   0  0  0  0  0  0  0  0  0  0  0  0
  -20.1885   15.9016  -20.2490 C   0  0  0  0  0  0  0  0  0  0  0  0
  -21.7221   15.8011  -20.1148 C   0  0  0  0  0  0  0  0  0  0  0  0
  -19.7266   17.0865  -19.5296 C   0  0  0  0  0  0  0  0  0  0  0  0
  -19.5583   14.6338  -19.9206 N   0  0  0  0  0  0  0  0  0  0  0  0
  -19.8188   13.8135  -18.8977 C   0  0  0  0  0  0  0  0  0  0  0  0
  -20.6901   13.9007  -17.8534 C   0  0  0  0  0  0  0  0  0  0  0  0
  -20.7590   12.8868  -16.9097 C   0  0  0  0  0  0  0  0  0  0  0  0
  -19.9725   11.7623  -16.9701 C   0  0  0  0  0  0  0  0  0  0  0  0
  -19.0749   11.6600  -18.0346 C   0  0  0  0  0  0  0  0  0  0  0  0
  -19.0289   12.6811  -18.9551 C   0  0  0  0  0  0  0  0  0  0  0  0
  -18.2368   12.8183  -20.0810 C   0  0  0  0  0  0  0  0  0  0  0  0
  -17.2645   12.0187  -20.6656 C   0  0  0  0  0  0  0  0  0  0  0  0
  -16.7418   10.6929  -20.2154 C   0  0  0  0  0  0  0  0  0  0  0  0
  -15.7672   10.3109  -21.1966 N   0  0  0  0  0  0  0  0  0  0  0  0
  -15.6583   11.3323  -22.1846 C   0  0  0  0  0  0  0  0  0  0  0  0
  -14.8696   11.2362  -23.1281 O   0  0  0  0  0  0  0  0  0  0  0  0
  -16.6021   12.3741  -21.8224 C   0  0  0  0  0  0  0  0  0  0  0  0
  -16.9591   13.5855  -22.3769 C   0  0  0  0  0  0  0  0  0  0  0  0
  -16.5363   14.2841  -23.4879 C   0  0  0  0  0  0  0  0  0  0  0  0
  -15.6163   14.0412  -24.4679 C   0  0  0  0  0  0  0  0  0  0  0  0
  -15.4403   14.9922  -25.4724 C   0  0  0  0  0  0  0  0  0  0  0  0
  -16.1560   16.1686  -25.5186 C   0  0  0  0  0  0  0  0  0  0  0  0
  -17.0844   16.4119  -24.5277 C   0  0  0  0  0  0  0  0  0  0  0  0
  -17.2565   15.4860  -23.5489 C   0  0  0  0  0  0  0  0  0  0  0  0
  -18.0848   15.5008  -22.5028 N   0  0  0  0  0  0  0  0  0  0  0  0
  -17.9283   14.3807  -21.7916 C   0  0  0  0  0  0  0  0  0  0  0  0
  -18.5771   13.9962  -20.6339 C   0  0  0  0  0  0  0  0  0  0  0  0
  -15.2186    9.4014  -21.1750 H   0  0  0  0  0  0  0  0  0  0  0  0
  -16.1605   17.2643  -20.0214 C   0  0  0  0  0  0  0  0  0  0  0  0
  -17.3423   17.2419  -19.1846 N   0  0  0  0  0  0  0  0  0  0  0  0
  -17.1563   17.8310  -18.3680 H   0  0  0  0  0  0  0  0  0  0  0  0
  -19.5638   16.9937  -18.1562 O   0  0  0  0  0  0  0  0  0  0  0  0
  -20.3298   17.8445  -17.4097 C   0  0  0  0  0  0  0  0  0  0  0  0
 33 34  1  0  0  0
 34  1  1  0  0  0
  1  2  1  0  0  0
  2  3  1  0  0  0
  3  4  1  0  0  0
  4  5  1  0  0  0
  5  6  1  0  0  0
  5  7  1  0  0  0
  7 36  1  0  0  0
 36 37  1  0  0  0
  5  8  1  0  0  0
  8  9  1  0  0  0
  9 10  2  0  0  0
 10 11  1  0  0  0
 11 12  2  0  0  0
 12 13  1  0  0  0
 13 14  2  0  0  0
 14 15  1  0  0  0
 15 16  2  0  0  0
 16 17  1  0  0  0
 17 18  1  0  0  0
 18 19  1  0  0  0
 19 20  2  0  0  0
 19 21  1  0  0  0
 21 22  2  0  0  0
 22 23  1  0  0  0
 23 24  2  0  0  0
 24 25  1  0  0  0
 25 26  2  0  0  0
 26 27  1  0  0  0
 27 28  2  0  0  0
 28 29  1  0  0  0
 29 30  1  0  0  0
 30 31  2  0  0  0
  7  1  1  0  0  0
 31  8  1  0  0  0
 29  3  1  0  0  0
 14  9  1  0  0  0
 31 15  1  0  0  0
 21 16  1  0  0  0
 30 22  1  0  0  0
 28 23  1  0  0  0
 34 35  1  0  0  0
 18 32  1  0  0  0
M  END
> <minimizedAffinity>
-10.84579

> <CNNscore>
0.6823404431

> <CNNaffinity>
7.2208418846

> <CNN_VS>
4.9270725250

> <CNNaffinity_variance>
0.1495412290

$$$$
[H]c1c([H])c([H])c2c(c1[H])c1c3c(c4c5c([H])c([H])c([H])c([H])c5n5c4c1n2[C@@]1([H])O[C@]5(C([H])([H])[H])[C@@]([H])(OC([H])([H])[H])[C@@]([H])(N([H])C([H])([H])[H])C1([H])[H])C([H])([H])N([H])C3=O


 37 44  0  0  0  0  0  0  0  0999 V2000
  -18.2873   18.5909  -20.7620 C   0  0  0  0  0  0  0  0  0  0  0  0
  -17.9092   18.2882  -22.1530 C   0  0  0  0  0  0  0  0  0  0  0  0
  -18.8004   17.3195  -22.8588 C   0  0  0  0  0  0  0  0  0  0  0  0
  -19.9583   17.0112  -22.3399 O   0  0  0  0  0  0  0  0  0  0  0  0
  -20.2173   16.9542  -20.9899 C   0  0  0  0  0  0  0  0  0  0  0  0
  -21.7573   17.0477  -20.9873 C   0  0  0  0  0  0  0  0  0  0  0  0
  -19.6695   18.1436  -20.3419 C   0  0  0  0  0  0  0  0  0  0  0  0
  -19.7788   15.6612  -20.4919 N   0  0  0  0  0  0  0  0  0  0  0  0
  -20.2201   14.9845  -19.4268 C   0  0  0  0  0  0  0  0  0  0  0  0
  -21.1537   15.2780  -18.4784 C   0  0  0  0  0  0  0  0  0  0  0  0
  -21.4236   14.3796  -17.4568 C   0  0  0  0  0  0  0  0  0  0  0  0
  -20.7816   13.1707  -17.3432 C   0  0  0  0  0  0  0  0  0  0  0  0
  -19.8223   12.8572  -18.3080 C   0  0  0  0  0  0  0  0  0  0  0  0
  -19.5761   13.7676  -19.3092 C   0  0  0  0  0  0  0  0  0  0  0  0
  -18.6862   13.6968  -20.3661 C   0  0  0  0  0  0  0  0  0  0  0  0
  -17.7783   12.7341  -20.7849 C   0  0  0  0  0  0  0  0  0  0  0  0
  -17.4629   11.4087  -20.1707 C   0  0  0  0  0  0  0  0  0  0  0  0
  -16.4689   10.8183  -21.0203 N   0  0  0  0  0  0  0  0  0  0  0  0
  -16.1551   11.7148  -22.0829 C   0  0  0  0  0  0  0  0  0  0  0  0
  -15.3122   11.4324  -22.9380 O   0  0  0  0  0  0  0  0  0  0  0  0
  -16.9869   12.8910  -21.9040 C   0  0  0  0  0  0  0  0  0  0  0  0
  -17.1445   14.0736  -22.5962 C   0  0  0  0  0  0  0  0  0  0  0  0
  -16.5508   14.6021  -23.7228 C   0  0  0  0  0  0  0  0  0  0  0  0
  -15.5936   14.1556  -24.5890 C   0  0  0  0  0  0  0  0  0  0  0  0
  -15.2209   14.9731  -25.6553 C   0  0  0  0  0  0  0  0  0  0  0  0
  -15.7779   16.2143  -25.8730 C   0  0  0  0  0  0  0  0  0  0  0  0
  -16.7442   16.6633  -24.9969 C   0  0  0  0  0  0  0  0  0  0  0  0
  -17.1079   15.8676  -23.9579 C   0  0  0  0  0  0  0  0  0  0  0  0
  -18.0082   16.0847  -22.9971 N   0  0  0  0  0  0  0  0  0  0  0  0
  -18.0499   15.0316  -22.1761 C   0  0  0  0  0  0  0  0  0  0  0  0
  -18.8316   14.8445  -21.0521 C   0  0  0  0  0  0  0  0  0  0  0  0
  -16.0419    9.8578  -20.8666 H   0  0  0  0  0  0  0  0  0  0  0  0
  -16.0754   17.8727  -20.5160 C   0  0  0  0  0  0  0  0  0  0  0  0
  -17.3194   18.0534  -19.7968 N   0  0  0  0  0  0  0  0  0  0  0  0
  -17.1373   18.6903  -19.0159 H   0  0  0  0  0  0  0  0  0  0  0  0
  -19.6290   18.1716  -18.9565 O   0  0  0  0  0  0  0  0  0  0  0  0
  -20.3939   19.1348  -18.3607 C   0  0  0  0  0  0  0  0  0  0  0  0
 33 34  1  0  0  0
 34  1  1  0  0  0
  1  2  1  0  0  0
  2  3  1  0  0  0
  3  4  1  0  0  0
  4  5  1  0  0  0
  5  6  1  0  0  0
  5  7  1  0  0  0
  7 36  1  0  0  0
 36 37  1  0  0  0
  5  8  1  0  0  0
  8  9  1  0  0  0
  9 10  2  0  0  0
 10 11  1  0  0  0
 11 12  2  0  0  0
 12 13  1  0  0  0
 13 14  2  0  0  0
 14 15  1  0  0  0
 15 16  2  0  0  0
 16 17  1  0  0  0
 17 18  1  0  0  0
 18 19  1  0  0  0
 19 20  2  0  0  0
 19 21  1  0  0  0
 21 22  2  0  0  0
 22 23  1  0  0  0
 23 24  2  0  0  0
 24 25  1  0  0  0
 25 26  2  0  0  0
 26 27  1  0  0  0
 27 28  2  0  0  0
 28 29  1  0  0  0
 29 30  1  0  0  0
 30 31  2  0  0  0
  7  1  1  0  0  0
 31  8  1  0  0  0
 29  3  1  0  0  0
 14  9  1  0  0  0
 31 15  1  0  0  0
 21 16  1  0  0  0
 30 22  1  0  0  0
 28 23  1  0  0  0
 34 35  1  0  0  0
 18 32  1  0  0  0
M  END
> <minimizedAffinity>
-10.66349

> <CNNscore>
0.5659241080

> <CNNaffinity>
6.9780435562

> <CNN_VS>
3.9490430355

> <CNNaffinity_variance>
0.1541037560

$$$$
[H]c1c([H])c([H])c2c(c1[H])c1c3c(c4c5c([H])c([H])c([H])c([H])c5n5c4c1n2[C@@]1([H])O[C@]5(C([H])([H])[H])[C@@]([H])(OC([H])([H])[H])[C@@]([H])(N([H])C([H])([H])[H])C1([H])[H])C([H])([H])N([H])C3=O


 37 44  0  0  0  0  0  0  0  0999 V2000
  -21.5674   15.5230  -18.7314 C   0  0  0  0  0  0  0  0  0  0  0  0
  -21.2110   14.4715  -17.7637 C   0  0  0  0  0  0  0  0  0  0  0  0
  -19.8057   14.5194  -17.2599 C   0  0  0  0  0  0  0  0  0  0  0  0
  -19.0792   15.5833  -17.4732 O   0  0  0  0  0  0  0  0  0  0  0  0
  -19.1830   16.3882  -18.5843 C   0  0  0  0  0  0  0  0  0  0  0  0
  -18.4987   17.6735  -18.0744 C   0  0  0  0  0  0  0  0  0  0  0  0
  -20.5921   16.6731  -18.8450 C   0  0  0  0  0  0  0  0  0  0  0  0
  -18.4135   15.7871  -19.6608 N   0  0  0  0  0  0  0  0  0  0  0  0
  -17.8450   16.3838  -20.7134 C   0  0  0  0  0  0  0  0  0  0  0  0
  -17.8265   17.6812  -21.1303 C   0  0  0  0  0  0  0  0  0  0  0  0
  -17.1471   18.0379  -22.2856 C   0  0  0  0  0  0  0  0  0  0  0  0
  -16.4696   17.1272  -23.0590 C   0  0  0  0  0  0  0  0  0  0  0  0
  -16.4807   15.7942  -22.6437 C   0  0  0  0  0  0  0  0  0  0  0  0
  -17.1627   15.4704  -21.4940 C   0  0  0  0  0  0  0  0  0  0  0  0
  -17.3249   14.2404  -20.8818 C   0  0  0  0  0  0  0  0  0  0  0  0
  -16.8764   12.9610  -21.1793 C   0  0  0  0  0  0  0  0  0  0  0  0
  -16.0426   12.5010  -22.3312 C   0  0  0  0  0  0  0  0  0  0  0  0
  -15.8612   11.0913  -22.1354 N   0  0  0  0  0  0  0  0  0  0  0  0
  -16.5523   10.6796  -20.9589 C   0  0  0  0  0  0  0  0  0  0  0  0
  -16.5546    9.5025  -20.5904 O   0  0  0  0  0  0  0  0  0  0  0  0
  -17.1688   11.8658  -20.3931 C   0  0  0  0  0  0  0  0  0  0  0  0
  -17.9442   12.1099  -19.2788 C   0  0  0  0  0  0  0  0  0  0  0  0
  -18.4504   11.3074  -18.2784 C   0  0  0  0  0  0  0  0  0  0  0  0
  -18.3688    9.9725  -18.0003 C   0  0  0  0  0  0  0  0  0  0  0  0
  -19.0216    9.4824  -16.8698 C   0  0  0  0  0  0  0  0  0  0  0  0
  -19.7469   10.2885  -16.0198 C   0  0  0  0  0  0  0  0  0  0  0  0
  -19.8282   11.6362  -16.3028 C   0  0  0  0  0  0  0  0  0  0  0  0
  -19.1925   12.1145  -17.4038 C   0  0  0  0  0  0  0  0  0  0  0  0
  -19.1285   13.3625  -17.8718 N   0  0  0  0  0  0  0  0  0  0  0  0
  -18.3903   13.3861  -18.9850 C   0  0  0  0  0  0  0  0  0  0  0  0
  -18.0782   14.4647  -19.7904 C   0  0  0  0  0  0  0  0  0  0  0  0
  -15.2949   10.4641  -22.7792 H   0  0  0  0  0  0  0  0  0  0  0  0
  -21.3193   13.6131  -20.0580 C   0  0  0  0  0  0  0  0  0  0  0  0
  -21.7944   14.9811  -20.0777 N   0  0  0  0  0  0  0  0  0  0  0  0
  -22.7841   14.9627  -20.3399 H   0  0  0  0  0  0  0  0  0  0  0  0
  -20.9233   17.2820  -20.0455 O   0  0  0  0  0  0  0  0  0  0  0  0
  -21.4927   18.5204  -19.9446 C   0  0  0  0  0  0  0  0  0  0  0  0
 33 34  1  0  0  0
 34  1  1  0  0  0
  1  2  1  0  0  0
  2  3  1  0  0  0
  3  4  1  0  0  0
  4  5  1  0  0  0
  5  6  1  0  0  0
  5  7  1  0  0  0
  7 36  1  0  0  0
 36 37  1  0  0  0
  5  8  1  0  0  0
  8  9  1  0  0  0
  9 10  2  0  0  0
 10 11  1  0  0  0
 11 12  2  0  0  0
 12 13  1  0  0  0
 13 14  2  0  0  0
 14 15  1  0  0  0
 15 16  2  0  0  0
 16 17  1  0  0  0
 17 18  1  0  0  0
 18 19  1  0  0  0
 19 20  2  0  0  0
 19 21  1  0  0  0
 21 22  2  0  0  0
 22 23  1  0  0  0
 23 24  2  0  0  0
 24 25  1  0  0  0
 25 26  2  0  0  0
 26 27  1  0  0  0
 27 28  2  0  0  0
 28 29  1  0  0  0
 29 30  1  0  0  0
 30 31  2  0  0  0
  7  1  1  0  0  0
 31  8  1  0  0  0
 29  3  1  0  0  0
 14  9  1  0  0  0
 31 15  1  0  0  0
 21 16  1  0  0  0
 30 22  1  0  0  0
 28 23  1  0  0  0
 34 35  1  0  0  0
 18 32  1  0  0  0
M  END
> <minimizedAffinity>
-9.14351

> <CNNscore>
0.5162002444

> <CNNaffinity>
6.9085526466

> <CNN_VS>
3.5661966801

> <CNNaffinity_variance>
0.0680173188

$$$$
[H]c1c([H])c([H])c2c(c1[H])c1c3c(c4c5c([H])c([H])c([H])c([H])c5n5c4c1n2[C@@]1([H])O[C@]5(C([H])([H])[H])[C@@]([H])(OC([H])([H])[H])[C@@]([H])(N([H])C([H])([H])[H])C1([H])[H])C([H])([H])N([H])C3=O


 37 44  0  0  0  0  0  0  0  0999 V2000
  -18.0142   19.0405  -21.1220 C   0  0  0  0  0  0  0  0  0  0  0  0
  -17.9368   18.2055  -22.3329 C   0  0  0  0  0  0  0  0  0  0  0  0
  -19.1364   17.3561  -22.5984 C   0  0  0  0  0  0  0  0  0  0  0  0
  -20.2429   17.5780  -21.9415 O   0  0  0  0  0  0  0  0  0  0  0  0
  -20.3016   18.0416  -20.6475 C   0  0  0  0  0  0  0  0  0  0  0  0
  -21.7517   18.5658  -20.5943 C   0  0  0  0  0  0  0  0  0  0  0  0
  -19.3846   19.1688  -20.4955 C   0  0  0  0  0  0  0  0  0  0  0  0
  -20.1280   16.9141  -19.7470 N   0  0  0  0  0  0  0  0  0  0  0  0
  -20.5580   16.7781  -18.4885 C   0  0  0  0  0  0  0  0  0  0  0  0
  -21.2358   17.6187  -17.6570 C   0  0  0  0  0  0  0  0  0  0  0  0
  -21.5633   17.2199  -16.3697 C   0  0  0  0  0  0  0  0  0  0  0  0
  -21.2320   15.9846  -15.8689 C   0  0  0  0  0  0  0  0  0  0  0  0
  -20.5371   15.1133  -16.7099 C   0  0  0  0  0  0  0  0  0  0  0  0
  -20.2262   15.5364  -17.9812 C   0  0  0  0  0  0  0  0  0  0  0  0
  -19.5513   14.8736  -18.9908 C   0  0  0  0  0  0  0  0  0  0  0  0
  -18.9845   13.6104  -19.0887 C   0  0  0  0  0  0  0  0  0  0  0  0
  -18.9193   12.5267  -18.0616 C   0  0  0  0  0  0  0  0  0  0  0  0
  -18.2427   11.4337  -18.6987 N   0  0  0  0  0  0  0  0  0  0  0  0
  -17.8798   11.8050  -20.0260 C   0  0  0  0  0  0  0  0  0  0  0  0
  -17.2721   11.0307  -20.7694 O   0  0  0  0  0  0  0  0  0  0  0  0
  -18.3568   13.1604  -20.2319 C   0  0  0  0  0  0  0  0  0  0  0  0
  -18.3182   14.0448  -21.2896 C   0  0  0  0  0  0  0  0  0  0  0  0
  -17.7884   13.9837  -22.5611 C   0  0  0  0  0  0  0  0  0  0  0  0
  -17.1137   13.0255  -23.2628 C   0  0  0  0  0  0  0  0  0  0  0  0
  -16.7146   13.3074  -24.5688 C   0  0  0  0  0  0  0  0  0  0  0  0
  -16.9723   14.5136  -25.1828 C   0  0  0  0  0  0  0  0  0  0  0  0
  -17.6536   15.4800  -24.4722 C   0  0  0  0  0  0  0  0  0  0  0  0
  -18.0427   15.2061  -23.2000 C   0  0  0  0  0  0  0  0  0  0  0  0
  -18.7058   15.9724  -22.3317 N   0  0  0  0  0  0  0  0  0  0  0  0
  -18.8835   15.3036  -21.1889 C   0  0  0  0  0  0  0  0  0  0  0  0
  -19.5087   15.7251  -20.0310 C   0  0  0  0  0  0  0  0  0  0  0  0
  -18.0494   10.4967  -18.2370 H   0  0  0  0  0  0  0  0  0  0  0  0
  -16.0746   17.7883  -20.7488 C   0  0  0  0  0  0  0  0  0  0  0  0
  -17.0761   18.5954  -20.0830 N   0  0  0  0  0  0  0  0  0  0  0  0
  -16.5932   19.3713  -19.6211 H   0  0  0  0  0  0  0  0  0  0  0  0
  -19.1303   19.6351  -19.2151 O   0  0  0  0  0  0  0  0  0  0  0  0
  -19.5539   20.9077  -18.9529 C   0  0  0  0  0  0  0  0  0  0  0  0
 33 34  1  0  0  0
 34  1  1  0  0  0
  1  2  1  0  0  0
  2  3  1  0  0  0
  3  4  1  0  0  0
  4  5  1  0  0  0
  5  6  1  0  0  0
  5  7  1  0  0  0
  7 36  1  0  0  0
 36 37  1  0  0  0
  5  8  1  0  0  0
  8  9  1  0  0  0
  9 10  2  0  0  0
 10 11  1  0  0  0
 11 12  2  0  0  0
 12 13  1  0  0  0
 13 14  2  0  0  0
 14 15  1  0  0  0
 15 16  2  0  0  0
 16 17  1  0  0  0
 17 18  1  0  0  0
 18 19  1  0  0  0
 19 20  2  0  0  0
 19 21  1  0  0  0
 21 22  2  0  0  0
 22 23  1  0  0  0
 23 24  2  0  0  0
 24 25  1  0  0  0
 25 26  2  0  0  0
 26 27  1  0  0  0
 27 28  2  0  0  0
 28 29  1  0  0  0
 29 30  1  0  0  0
 30 31  2  0  0  0
  7  1  1  0  0  0
 31  8  1  0  0  0
 29  3  1  0  0  0
 14  9  1  0  0  0
 31 15  1  0  0  0
 21 16  1  0  0  0
 30 22  1  0  0  0
 28 23  1  0  0  0
 34 35  1  0  0  0
 18 32  1  0  0  0
M  END
> <minimizedAffinity>
-9.94783

> <CNNscore>
0.3144780993

> <CNNaffinity>
6.3648033142

> <CNN_VS>
2.0015912056

> <CNNaffinity_variance>
0.3398123682

$$$$
[H]c1c([H])c([H])c2c(c1[H])c1c3c(c4c5c([H])c([H])c([H])c([H])c5n5c4c1n2[C@@]1([H])O[C@]5(C([H])([H])[H])[C@@]([H])(OC([H])([H])[H])[C@@]([H])(N([H])C([H])([H])[H])C1([H])[H])C([H])([H])N([H])C3=O


 37 44  0  0  0  0  0  0  0  0999 V2000
  -19.9770   17.6842  -17.5204 C   0  0  0  0  0  0  0  0  0  0  0  0
  -19.9812   17.7352  -18.9924 C   0  0  0  0  0  0  0  0  0  0  0  0
  -20.8972   16.7629  -19.6606 C   0  0  0  0  0  0  0  0  0  0  0  0
  -21.8009   16.1375  -18.9553 O   0  0  0  0  0  0  0  0  0  0  0  0
  -21.6463   15.7724  -17.6378 C   0  0  0  0  0  0  0  0  0  0  0  0
  -23.1167   15.5566  -17.2238 C   0  0  0  0  0  0  0  0  0  0  0  0
  -21.1025   16.8997  -16.8842 C   0  0  0  0  0  0  0  0  0  0  0  0
  -20.9090   14.5208  -17.5912 N   0  0  0  0  0  0  0  0  0  0  0  0
  -20.9248   13.5784  -16.6432 C   0  0  0  0  0  0  0  0  0  0  0  0
  -21.5738   13.4936  -15.4479 C   0  0  0  0  0  0  0  0  0  0  0  0
  -21.4095   12.3805  -14.6370 C   0  0  0  0  0  0  0  0  0  0  0  0
  -20.6027   11.3238  -14.9821 C   0  0  0  0  0  0  0  0  0  0  0  0
  -19.9313   11.3977  -16.2040 C   0  0  0  0  0  0  0  0  0  0  0  0
  -20.1138   12.5138  -16.9869 C   0  0  0  0  0  0  0  0  0  0  0  0
  -19.5683   12.8250  -18.2196 C   0  0  0  0  0  0  0  0  0  0  0  0
  -18.6979   12.1599  -19.0721 C   0  0  0  0  0  0  0  0  0  0  0  0
  -18.0390   10.8304  -18.8933 C   0  0  0  0  0  0  0  0  0  0  0  0
  -17.2635   10.6229  -20.0823 N   0  0  0  0  0  0  0  0  0  0  0  0
  -17.3979   11.7509  -20.9432 C   0  0  0  0  0  0  0  0  0  0  0  0
  -16.8092   11.8105  -22.0255 O   0  0  0  0  0  0  0  0  0  0  0  0
  -18.2950   12.6822  -20.2837 C   0  0  0  0  0  0  0  0  0  0  0  0
  -18.8075   13.9206  -20.6098 C   0  0  0  0  0  0  0  0  0  0  0  0
  -18.6449   14.7625  -21.6896 C   0  0  0  0  0  0  0  0  0  0  0  0
  -17.9287   14.6892  -22.8504 C   0  0  0  0  0  0  0  0  0  0  0  0
  -17.9975   15.7535  -23.7486 C   0  0  0  0  0  0  0  0  0  0  0  0
  -18.7586   16.8780  -23.5148 C   0  0  0  0  0  0  0  0  0  0  0  0
  -19.4809   16.9500  -22.3418 C   0  0  0  0  0  0  0  0  0  0  0  0
  -19.4144   15.9136  -21.4663 C   0  0  0  0  0  0  0  0  0  0  0  0
  -20.0178   15.7595  -20.2861 N   0  0  0  0  0  0  0  0  0  0  0  0
  -19.6744   14.5814  -19.7579 C   0  0  0  0  0  0  0  0  0  0  0  0
  -20.0626   14.0310  -18.5514 C   0  0  0  0  0  0  0  0  0  0  0  0
  -16.6826    9.7548  -20.2760 H   0  0  0  0  0  0  0  0  0  0  0  0
  -17.8261   16.9931  -18.1246 C   0  0  0  0  0  0  0  0  0  0  0  0
  -18.7063   17.1739  -16.9888 N   0  0  0  0  0  0  0  0  0  0  0  0
  -18.2515   17.8266  -16.3440 H   0  0  0  0  0  0  0  0  0  0  0  0
  -20.6657   16.6688  -15.5890 O   0  0  0  0  0  0  0  0  0  0  0  0
  -21.3064   17.3781  -14.6122 C   0  0  0  0  0  0  0  0  0  0  0  0
 33 34  1  0  0  0
 34  1  1  0  0  0
  1  2  1  0  0  0
  2  3  1  0  0  0
  3  4  1  0  0  0
  4  5  1  0  0  0
  5  6  1  0  0  0
  5  7  1  0  0  0
  7 36  1  0  0  0
 36 37  1  0  0  0
  5  8  1  0  0  0
  8  9  1  0  0  0
  9 10  2  0  0  0
 10 11  1  0  0  0
 11 12  2  0  0  0
 12 13  1  0  0  0
 13 14  2  0  0  0
 14 15  1  0  0  0
 15 16  2  0  0  0
 16 17  1  0  0  0
 17 18  1  0  0  0
 18 19  1  0  0  0
 19 20  2  0  0  0
 19 21  1  0  0  0
 21 22  2  0  0  0
 22 23  1  0  0  0
 23 24  2  0  0  0
 24 25  1  0  0  0
 25 26  2  0  0  0
 26 27  1  0  0  0
 27 28  2  0  0  0
 28 29  1  0  0  0
 29 30  1  0  0  0
 30 31  2  0  0  0
  7  1  1  0  0  0
 31  8  1  0  0  0
 29  3  1  0  0  0
 14  9  1  0  0  0
 31 15  1  0  0  0
 21 16  1  0  0  0
 30 22  1  0  0  0
 28 23  1  0  0  0
 34 35  1  0  0  0
 18 32  1  0  0  0
M  END
> <minimizedAffinity>
-8.91967

> <CNNscore>
0.2950108647

> <CNNaffinity>
6.3248510361

> <CNN_VS>
1.8658998013

> <CNNaffinity_variance>
0.1483257115

$$$$
[H]c1c([H])c([H])c2c(c1[H])c1c3c(c4c5c([H])c([H])c([H])c([H])c5n5c4c1n2[C@@]1([H])O[C@]5(C([H])([H])[H])[C@@]([H])(OC([H])([H])[H])[C@@]([H])(N([H])C([H])([H])[H])C1([H])[H])C([H])([H])N([H])C3=O


 37 44  0  0  0  0  0  0  0  0999 V2000
  -18.1224   17.9814  -20.7421 C   0  0  0  0  0  0  0  0  0  0  0  0
  -17.7000   16.9171  -21.6686 C   0  0  0  0  0  0  0  0  0  0  0  0
  -18.7887   16.0036  -22.1280 C   0  0  0  0  0  0  0  0  0  0  0  0
  -20.0359   16.3300  -21.9208 O   0  0  0  0  0  0  0  0  0  0  0  0
  -20.4839   17.0484  -20.8363 C   0  0  0  0  0  0  0  0  0  0  0  0
  -21.8502   17.5384  -21.3591 C   0  0  0  0  0  0  0  0  0  0  0  0
  -19.6140   18.2038  -20.6289 C   0  0  0  0  0  0  0  0  0  0  0  0
  -20.6571   16.1347  -19.7194 N   0  0  0  0  0  0  0  0  0  0  0  0
  -21.4718   16.2506  -18.6659 C   0  0  0  0  0  0  0  0  0  0  0  0
  -22.3414   17.2282  -18.2845 C   0  0  0  0  0  0  0  0  0  0  0  0
  -23.0800   17.0952  -17.1182 C   0  0  0  0  0  0  0  0  0  0  0  0
  -22.9813   15.9975  -16.2986 C   0  0  0  0  0  0  0  0  0  0  0  0
  -22.0938   14.9883  -16.6771 C   0  0  0  0  0  0  0  0  0  0  0  0
  -21.3749   15.1478  -17.8388 C   0  0  0  0  0  0  0  0  0  0  0  0
  -20.4434   14.3074  -18.4219 C   0  0  0  0  0  0  0  0  0  0  0  0
  -19.9318   13.0647  -18.0749 C   0  0  0  0  0  0  0  0  0  0  0  0
  -20.2462   12.2174  -16.8846 C   0  0  0  0  0  0  0  0  0  0  0  0
  -19.4510   11.0327  -17.0355 N   0  0  0  0  0  0  0  0  0  0  0  0
  -18.6673   11.1313  -18.2218 C   0  0  0  0  0  0  0  0  0  0  0  0
  -17.8892   10.2351  -18.5576 O   0  0  0  0  0  0  0  0  0  0  0  0
  -18.9928   12.4039  -18.8396 C   0  0  0  0  0  0  0  0  0  0  0  0
  -18.5793   13.0524  -19.9846 C   0  0  0  0  0  0  0  0  0  0  0  0
  -17.6747   12.7434  -20.9783 C   0  0  0  0  0  0  0  0  0  0  0  0
  -16.8548   11.6773  -21.2167 C   0  0  0  0  0  0  0  0  0  0  0  0
  -16.0476   11.6937  -22.3537 C   0  0  0  0  0  0  0  0  0  0  0  0
  -16.0418   12.7414  -23.2484 C   0  0  0  0  0  0  0  0  0  0  0  0
  -16.8705   13.8171  -23.0055 C   0  0  0  0  0  0  0  0  0  0  0  0
  -17.6571   13.8019  -21.8982 C   0  0  0  0  0  0  0  0  0  0  0  0
  -18.5278   14.7147  -21.4630 N   0  0  0  0  0  0  0  0  0  0  0  0
  -19.0905   14.2914  -20.3277 C   0  0  0  0  0  0  0  0  0  0  0  0
  -20.0331   14.9274  -19.5427 C   0  0  0  0  0  0  0  0  0  0  0  0
  -19.4571   10.2155  -16.3568 H   0  0  0  0  0  0  0  0  0  0  0  0
  -16.4368   16.9105  -19.5252 C   0  0  0  0  0  0  0  0  0  0  0  0
  -17.5858   17.7816  -19.3894 N   0  0  0  0  0  0  0  0  0  0  0  0
  -17.2667   18.6513  -18.9532 H   0  0  0  0  0  0  0  0  0  0  0  0
  -19.7611   18.9294  -19.4570 O   0  0  0  0  0  0  0  0  0  0  0  0
  -20.1533   20.2296  -19.6102 C   0  0  0  0  0  0  0  0  0  0  0  0
 33 34  1  0  0  0
 34  1  1  0  0  0
  1  2  1  0  0  0
  2  3  1  0  0  0
  3  4  1  0  0  0
  4  5  1  0  0  0
  5  6  1  0  0  0
  5  7  1  0  0  0
  7 36  1  0  0  0
 36 37  1  0  0  0
  5  8  1  0  0  0
  8  9  1  0  0  0
  9 10  2  0  0  0
 10 11  1  0  0  0
 11 12  2  0  0  0
 12 13  1  0  0  0
 13 14  2  0  0  0
 14 15  1  0  0  0
 15 16  2  0  0  0
 16 17  1  0  0  0
 17 18  1  0  0  0
 18 19  1  0  0  0
 19 20  2  0  0  0
 19 21  1  0  0  0
 21 22  2  0  0  0
 22 23  1  0  0  0
 23 24  2  0  0  0
 24 25  1  0  0  0
 25 26  2  0  0  0
 26 27  1  0  0  0
 27 28  2  0  0  0
 28 29  1  0  0  0
 29 30  1  0  0  0
 30 31  2  0  0  0
  7  1  1  0  0  0
 31  8  1  0  0  0
 29  3  1  0  0  0
 14  9  1  0  0  0
 31 15  1  0  0  0
 21 16  1  0  0  0
 30 22  1  0  0  0
 28 23  1  0  0  0
 34 35  1  0  0  0
 18 32  1  0  0  0
M  END
> <minimizedAffinity>
-9.06581

> <CNNscore>
0.2765382826

> <CNNaffinity>
6.4150490761

> <CNN_VS>
1.7740066051

> <CNNaffinity_variance>
0.1430190504

$$$$
[H]c1c([H])c([H])c2c(c1[H])c1c3c(c4c5c([H])c([H])c([H])c([H])c5n5c4c1n2[C@@]1([H])O[C@]5(C([H])([H])[H])[C@@]([H])(OC([H])([H])[H])[C@@]([H])(N([H])C([H])([H])[H])C1([H])[H])C([H])([H])N([H])C3=O


 37 44  0  0  0  0  0  0  0  0999 V2000
  -18.7494   16.9603  -19.5196 C   0  0  0  0  0  0  0  0  0  0  0  0
  -18.3538   15.6679  -20.1048 C   0  0  0  0  0  0  0  0  0  0  0  0
  -19.4824   14.7498  -20.4428 C   0  0  0  0  0  0  0  0  0  0  0  0
  -20.7049   15.2084  -20.4601 O   0  0  0  0  0  0  0  0  0  0  0  0
  -21.1736   16.2093  -19.6407 C   0  0  0  0  0  0  0  0  0  0  0  0
  -22.4339   16.6491  -20.4143 C   0  0  0  0  0  0  0  0  0  0  0  0
  -20.2160   17.3127  -19.6288 C   0  0  0  0  0  0  0  0  0  0  0  0
  -21.5333   15.6241  -18.3599 N   0  0  0  0  0  0  0  0  0  0  0  0
  -22.4221   16.0628  -17.4628 C   0  0  0  0  0  0  0  0  0  0  0  0
  -23.2215   17.1661  -17.4305 C   0  0  0  0  0  0  0  0  0  0  0  0
  -24.0693   17.3878  -16.3555 C   0  0  0  0  0  0  0  0  0  0  0  0
  -24.1513   16.5298  -15.2860 C   0  0  0  0  0  0  0  0  0  0  0  0
  -23.3375   15.3955  -15.3059 C   0  0  0  0  0  0  0  0  0  0  0  0
  -22.5071   15.2020  -16.3852 C   0  0  0  0  0  0  0  0  0  0  0  0
  -21.6150   14.1754  -16.6386 C   0  0  0  0  0  0  0  0  0  0  0  0
  -21.2606   13.0274  -15.9436 C   0  0  0  0  0  0  0  0  0  0  0  0
  -21.7600   12.5352  -14.6238 C   0  0  0  0  0  0  0  0  0  0  0  0
  -21.0750   11.2962  -14.3915 N   0  0  0  0  0  0  0  0  0  0  0  0
  -20.1842   11.0330  -15.4725 C   0  0  0  0  0  0  0  0  0  0  0  0
  -19.4714   10.0264  -15.4909 O   0  0  0  0  0  0  0  0  0  0  0  0
  -20.3275   12.1274  -16.4153 C   0  0  0  0  0  0  0  0  0  0  0  0
  -19.7532   12.4320  -17.6318 C   0  0  0  0  0  0  0  0  0  0  0  0
  -18.7996   11.8156  -18.4140 C   0  0  0  0  0  0  0  0  0  0  0  0
  -18.0706   10.6669  -18.2924 C   0  0  0  0  0  0  0  0  0  0  0  0
  -17.1689   10.3353  -19.3030 C   0  0  0  0  0  0  0  0  0  0  0  0
  -16.9816   11.1183  -20.4211 C   0  0  0  0  0  0  0  0  0  0  0  0
  -17.7188   12.2780  -20.5417 C   0  0  0  0  0  0  0  0  0  0  0  0
  -18.5973   12.6018  -19.5577 C   0  0  0  0  0  0  0  0  0  0  0  0
  -19.4089   13.6564  -19.4577 N   0  0  0  0  0  0  0  0  0  0  0  0
  -20.1081   13.5773  -18.3221 C   0  0  0  0  0  0  0  0  0  0  0  0
  -21.0490   14.4589  -17.8253 C   0  0  0  0  0  0  0  0  0  0  0  0
  -21.2209   10.6807  -13.5381 H   0  0  0  0  0  0  0  0  0  0  0  0
  -17.5588   15.9005  -17.8085 C   0  0  0  0  0  0  0  0  0  0  0  0
  -18.3560   17.0717  -18.1088 N   0  0  0  0  0  0  0  0  0  0  0  0
  -17.7804   17.8968  -17.9180 H   0  0  0  0  0  0  0  0  0  0  0  0
  -20.3936   18.3206  -18.6939 O   0  0  0  0  0  0  0  0  0  0  0  0
  -20.6526   19.5622  -19.2030 C   0  0  0  0  0  0  0  0  0  0  0  0
 33 34  1  0  0  0
 34  1  1  0  0  0
  1  2  1  0  0  0
  2  3  1  0  0  0
  3  4  1  0  0  0
  4  5  1  0  0  0
  5  6  1  0  0  0
  5  7  1  0  0  0
  7 36  1  0  0  0
 36 37  1  0  0  0
  5  8  1  0  0  0
  8  9  1  0  0  0
  9 10  2  0  0  0
 10 11  1  0  0  0
 11 12  2  0  0  0
 12 13  1  0  0  0
 13 14  2  0  0  0
 14 15  1  0  0  0
 15 16  2  0  0  0
 16 17  1  0  0  0
 17 18  1  0  0  0
 18 19  1  0  0  0
 19 20  2  0  0  0
 19 21  1  0  0  0
 21 22  2  0  0  0
 22 23  1  0  0  0
 23 24  2  0  0  0
 24 25  1  0  0  0
 25 26  2  0  0  0
 26 27  1  0  0  0
 27 28  2  0  0  0
 28 29  1  0  0  0
 29 30  1  0  0  0
 30 31  2  0  0  0
  7  1  1  0  0  0
 31  8  1  0  0  0
 29  3  1  0  0  0
 14  9  1  0  0  0
 31 15  1  0  0  0
 21 16  1  0  0  0
 30 22  1  0  0  0
 28 23  1  0  0  0
 34 35  1  0  0  0
 18 32  1  0  0  0
M  END
> <minimizedAffinity>
-8.73610

> <CNNscore>
0.2139101177

> <CNNaffinity>
5.5164809227

> <CNN_VS>
1.1800310612

> <CNNaffinity_variance>
1.2625894547

$$$$
[H]c1c([H])c([H])c2c(c1[H])c1c3c(c4c5c([H])c([H])c([H])c([H])c5n5c4c1n2[C@@]1([H])O[C@]5(C([H])([H])[H])[C@@]([H])(OC([H])([H])[H])[C@@]([H])(N([H])C([H])([H])[H])C1([H])[H])C([H])([H])N([H])C3=O


 37 44  0  0  0  0  0  0  0  0999 V2000
  -17.4204   18.3876  -22.1498 C   0  0  0  0  0  0  0  0  0  0  0  0
  -17.0552   17.0804  -22.7217 C   0  0  0  0  0  0  0  0  0  0  0  0
  -18.2026   16.2488  -23.1936 C   0  0  0  0  0  0  0  0  0  0  0  0
  -19.3831   16.7917  -23.3240 O   0  0  0  0  0  0  0  0  0  0  0  0
  -19.8646   17.8095  -22.5333 C   0  0  0  0  0  0  0  0  0  0  0  0
  -21.0061   18.3485  -23.4201 C   0  0  0  0  0  0  0  0  0  0  0  0
  -18.8408   18.8431  -22.3988 C   0  0  0  0  0  0  0  0  0  0  0  0
  -20.3927   17.2301  -21.3094 N   0  0  0  0  0  0  0  0  0  0  0  0
  -21.3372   17.7151  -20.4971 C   0  0  0  0  0  0  0  0  0  0  0  0
  -22.0592   18.8708  -20.5204 C   0  0  0  0  0  0  0  0  0  0  0  0
  -22.9958   19.1336  -19.5319 C   0  0  0  0  0  0  0  0  0  0  0  0
  -23.2452   18.2662  -18.4965 C   0  0  0  0  0  0  0  0  0  0  0  0
  -22.5123   17.0784  -18.4601 C   0  0  0  0  0  0  0  0  0  0  0  0
  -21.5904   16.8450  -19.4539 C   0  0  0  0  0  0  0  0  0  0  0  0
  -20.7486   15.7629  -19.6394 C   0  0  0  0  0  0  0  0  0  0  0  0
  -20.5459   14.5820  -18.9389 C   0  0  0  0  0  0  0  0  0  0  0  0
  -21.2104   14.1045  -17.6883 C   0  0  0  0  0  0  0  0  0  0  0  0
  -20.6383   12.8171  -17.4166 N   0  0  0  0  0  0  0  0  0  0  0  0
  -19.6610   12.5099  -18.4076 C   0  0  0  0  0  0  0  0  0  0  0  0
  -19.0200   11.4566  -18.3771 O   0  0  0  0  0  0  0  0  0  0  0  0
  -19.6324   13.6268  -19.3344 C   0  0  0  0  0  0  0  0  0  0  0  0
  -18.9169   13.9103  -20.4791 C   0  0  0  0  0  0  0  0  0  0  0  0
  -17.9320   13.2417  -21.1747 C   0  0  0  0  0  0  0  0  0  0  0  0
  -17.2987   12.0432  -21.0065 C   0  0  0  0  0  0  0  0  0  0  0  0
  -16.3226   11.6659  -21.9281 C   0  0  0  0  0  0  0  0  0  0  0  0
  -15.9689   12.4519  -23.0029 C   0  0  0  0  0  0  0  0  0  0  0  0
  -16.6095   13.6620  -23.1706 C   0  0  0  0  0  0  0  0  0  0  0  0
  -17.5605   14.0303  -22.2734 C   0  0  0  0  0  0  0  0  0  0  0  0
  -18.3049   15.1371  -22.2318 N   0  0  0  0  0  0  0  0  0  0  0  0
  -19.1207   15.0886  -21.1750 C   0  0  0  0  0  0  0  0  0  0  0  0
  -20.0458   16.0255  -20.7557 C   0  0  0  0  0  0  0  0  0  0  0  0
  -20.9124   12.1996  -16.5969 H   0  0  0  0  0  0  0  0  0  0  0  0
  -16.0630   17.5495  -20.4398 C   0  0  0  0  0  0  0  0  0  0  0  0
  -17.1673   18.4484  -20.7042 N   0  0  0  0  0  0  0  0  0  0  0  0
  -16.8916   19.3816  -20.3852 H   0  0  0  0  0  0  0  0  0  0  0  0
  -19.0448   19.8457  -21.4635 O   0  0  0  0  0  0  0  0  0  0  0  0
  -19.0821   21.1191  -21.9584 C   0  0  0  0  0  0  0  0  0  0  0  0
 33 34  1  0  0  0
 34  1  1  0  0  0
  1  2  1  0  0  0
  2  3  1  0  0  0
  3  4  1  0  0  0
  4  5  1  0  0  0
  5  6  1  0  0  0
  5  7  1  0  0  0
  7 36  1  0  0  0
 36 37  1  0  0  0
  5  8  1  0  0  0
  8  9  1  0  0  0
  9 10  2  0  0  0
 10 11  1  0  0  0
 11 12  2  0  0  0
 12 13  1  0  0  0
 13 14  2  0  0  0
 14 15  1  0  0  0
 15 16  2  0  0  0
 16 17  1  0  0  0
 17 18  1  0  0  0
 18 19  1  0  0  0
 19 20  2  0  0  0
 19 21  1  0  0  0
 21 22  2  0  0  0
 22 23  1  0  0  0
 23 24  2  0  0  0
 24 25  1  0  0  0
 25 26  2  0  0  0
 26 27  1  0  0  0
 27 28  2  0  0  0
 28 29  1  0  0  0
 29 30  1  0  0  0
 30 31  2  0  0  0
  7  1  1  0  0  0
 31  8  1  0  0  0
 29  3  1  0  0  0
 14  9  1  0  0  0
 31 15  1  0  0  0
 21 16  1  0  0  0
 30 22  1  0  0  0
 28 23  1  0  0  0
 34 35  1  0  0  0
 18 32  1  0  0  0
M  END
> <minimizedAffinity>
-9.30859

> <CNNscore>
0.1605347991

> <CNNaffinity>
5.9636340141

> <CNN_VS>
0.9573708177

> <CNNaffinity_variance>
0.5189958811

$$$$
[H]c1nc([H])c2sc(C(=O)N([H])C([H])([H])[H])c([H])c2c1Oc1c([H])c([H])c(N([H])C(=O)c2c([H])c([H])c(C(F)(F)F)c([H])c2[H])c([H])c1[H]


 35 38  0  0  0  0  0  0  0  0999 V2000
  -18.9263   13.2047  -19.4007 C   0  0  0  0  0  0  0  0  0  0  0  0
  -19.0448   14.4966  -19.8586 C   0  0  0  0  0  0  0  0  0  0  0  0
  -19.0820   15.5754  -18.9764 C   0  0  0  0  0  0  0  0  0  0  0  0
  -19.0069   15.3937  -17.6139 C   0  0  0  0  0  0  0  0  0  0  0  0
  -18.8789   14.1045  -17.1611 C   0  0  0  0  0  0  0  0  0  0  0  0
  -18.8412   13.0348  -18.0478 C   0  0  0  0  0  0  0  0  0  0  0  0
  -19.1202   16.4735  -16.6891 N   0  0  0  0  0  0  0  0  0  0  0  0
  -20.3420   17.0395  -16.3170 C   0  0  0  0  0  0  0  0  0  0  0  0
  -21.4140   16.5336  -16.8303 O   0  0  0  0  0  0  0  0  0  0  0  0
  -18.2196   16.8405  -16.2727 H   0  0  0  0  0  0  0  0  0  0  0  0
  -20.5806   18.1303  -15.4078 C   0  0  0  0  0  0  0  0  0  0  0  0
  -20.1043   18.1737  -14.1196 C   0  0  0  0  0  0  0  0  0  0  0  0
  -20.3259   19.2777  -13.2984 C   0  0  0  0  0  0  0  0  0  0  0  0
  -21.0412   20.3811  -13.7361 C   0  0  0  0  0  0  0  0  0  0  0  0
  -21.5224   20.3290  -15.0262 C   0  0  0  0  0  0  0  0  0  0  0  0
  -21.3082   19.2591  -15.8333 C   0  0  0  0  0  0  0  0  0  0  0  0
  -21.2875   21.5728  -12.8777 C   0  0  0  0  0  0  0  0  0  0  0  0
  -22.5507   22.0713  -13.0504 F   0  0  0  0  0  0  0  0  0  0  0  0
  -20.3287   22.5124  -13.0129 F   0  0  0  0  0  0  0  0  0  0  0  0
  -21.2915   21.1046  -11.5555 F   0  0  0  0  0  0  0  0  0  0  0  0
  -18.8997   12.1769  -20.3342 O   0  0  0  0  0  0  0  0  0  0  0  0
  -16.4544   13.3728  -23.7078 C   0  0  0  0  0  0  0  0  0  0  0  0
  -17.3193   13.0851  -22.6867 C   0  0  0  0  0  0  0  0  0  0  0  0
  -16.9578   12.0965  -21.8252 C   0  0  0  0  0  0  0  0  0  0  0  0
  -17.6391   11.6347  -20.7082 C   0  0  0  0  0  0  0  0  0  0  0  0
  -17.0914   10.6231  -19.9358 C   0  0  0  0  0  0  0  0  0  0  0  0
  -15.9180   10.0361  -20.1894 N   0  0  0  0  0  0  0  0  0  0  0  0
  -15.2417   10.4671  -21.2696 C   0  0  0  0  0  0  0  0  0  0  0  0
  -15.7488   11.4882  -22.0814 C   0  0  0  0  0  0  0  0  0  0  0  0
  -15.1847   12.2987  -23.4636 S   0  0  0  0  0  0  0  0  0  0  0  0
  -15.9990   15.6922  -26.7561 C   0  0  0  0  0  0  0  0  0  0  0  0
  -15.6940   14.6931  -25.7600 N   0  0  0  0  0  0  0  0  0  0  0  0
  -16.6280   14.3817  -24.7785 C   0  0  0  0  0  0  0  0  0  0  0  0
  -17.7270   14.9856  -24.7848 O   0  0  0  0  0  0  0  0  0  0  0  0
  -14.7654   14.2340  -25.7880 H   0  0  0  0  0  0  0  0  0  0  0  0
 31 32  1  0  0  0
 32 33  1  0  0  0
 33 34  2  0  0  0
 33 22  1  0  0  0
 22 23  2  0  0  0
 23 24  1  0  0  0
 24 25  2  0  0  0
 25 21  1  0  0  0
 21  1  1  0  0  0
  1  2  2  0  0  0
  2  3  1  0  0  0
  3  4  2  0  0  0
  4  7  1  0  0  0
  7  8  1  0  0  0
  8  9  2  0  0  0
  8 11  1  0  0  0
 11 12  2  0  0  0
 12 13  1  0  0  0
 13 14  2  0  0  0
 14 15  1  0  0  0
 15 16  2  0  0  0
 14 17  1  0  0  0
 17 18  1  0  0  0
 17 19  1  0  0  0
 17 20  1  0  0  0
  4  5  1  0  0  0
  5  6  2  0  0  0
 25 26  1  0  0  0
 26 27  2  0  0  0
 27 28  1  0  0  0
 28 29  2  0  0  0
 29 30  1  0  0  0
 30 22  1  0  0  0
 29 24  1  0  0  0
  6  1  1  0  0  0
 16 11  1  0  0  0
 32 35  1  0  0  0
  7 10  1  0  0  0
M  END
> <minimizedAffinity>
-7.38885

> <CNNscore>
0.7399686575

> <CNNaffinity>
6.8810806274

> <CNN_VS>
5.0917840004

> <CNNaffinity_variance>
0.2049512565

$$$$
[H]c1nc([H])c2sc(C(=O)N([H])C([H])([H])[H])c([H])c2c1Oc1c([H])c([H])c(N([H])C(=O)c2c([H])c([H])c(C(F)(F)F)c([H])c2[H])c([H])c1[H]


 35 38  0  0  0  0  0  0  0  0999 V2000
  -18.4870   10.8116  -17.7465 C   0  0  0  0  0  0  0  0  0  0  0  0
  -17.5210   10.1630  -18.4804 C   0  0  0  0  0  0  0  0  0  0  0  0
  -17.1991   10.5728  -19.7735 C   0  0  0  0  0  0  0  0  0  0  0  0
  -17.8357   11.6375  -20.3703 C   0  0  0  0  0  0  0  0  0  0  0  0
  -18.7918   12.2884  -19.6317 C   0  0  0  0  0  0  0  0  0  0  0  0
  -19.1056   11.8739  -18.3425 C   0  0  0  0  0  0  0  0  0  0  0  0
  -17.5786   12.0269  -21.7180 N   0  0  0  0  0  0  0  0  0  0  0  0
  -17.0617   13.2760  -22.0700 C   0  0  0  0  0  0  0  0  0  0  0  0
  -16.7898   14.0996  -21.1127 O   0  0  0  0  0  0  0  0  0  0  0  0
  -17.7911   11.3127  -22.4690 H   0  0  0  0  0  0  0  0  0  0  0  0
  -16.7712   13.7835  -23.3859 C   0  0  0  0  0  0  0  0  0  0  0  0
  -15.5461   14.2771  -23.7648 C   0  0  0  0  0  0  0  0  0  0  0  0
  -15.3075   14.7114  -25.0673 C   0  0  0  0  0  0  0  0  0  0  0  0
  -16.2928   14.6738  -26.0413 C   0  0  0  0  0  0  0  0  0  0  0  0
  -17.5212   14.1845  -25.6538 C   0  0  0  0  0  0  0  0  0  0  0  0
  -17.7607   13.7565  -24.3884 C   0  0  0  0  0  0  0  0  0  0  0  0
  -16.0598   15.1294  -27.4398 C   0  0  0  0  0  0  0  0  0  0  0  0
  -14.7281   15.1371  -27.7568 F   0  0  0  0  0  0  0  0  0  0  0  0
  -16.6707   16.3021  -27.7084 F   0  0  0  0  0  0  0  0  0  0  0  0
  -16.5940   14.1307  -28.2674 F   0  0  0  0  0  0  0  0  0  0  0  0
  -18.7607   10.3483  -16.4662 O   0  0  0  0  0  0  0  0  0  0  0  0
  -21.6443    7.3465  -15.2557 C   0  0  0  0  0  0  0  0  0  0  0  0
  -20.6541    8.1914  -15.6790 C   0  0  0  0  0  0  0  0  0  0  0  0
  -20.8952    9.5271  -15.5886 C   0  0  0  0  0  0  0  0  0  0  0  0
  -20.0557   10.5792  -15.9254 C   0  0  0  0  0  0  0  0  0  0  0  0
  -20.4783   11.8855  -15.7383 C   0  0  0  0  0  0  0  0  0  0  0  0
  -21.6716   12.2251  -15.2417 N   0  0  0  0  0  0  0  0  0  0  0  0
  -22.5024   11.2200  -14.9108 C   0  0  0  0  0  0  0  0  0  0  0  0
  -22.1235    9.8829  -15.0768 C   0  0  0  0  0  0  0  0  0  0  0  0
  -22.8621    8.3887  -14.7494 S   0  0  0  0  0  0  0  0  0  0  0  0
  -20.6322    3.6255  -15.3485 C   0  0  0  0  0  0  0  0  0  0  0  0
  -20.5008    5.0629  -15.3573 N   0  0  0  0  0  0  0  0  0  0  0  0
  -21.6327    5.8653  -15.2712 C   0  0  0  0  0  0  0  0  0  0  0  0
  -22.7544    5.3110  -15.1865 O   0  0  0  0  0  0  0  0  0  0  0  0
  -19.5530    5.4725  -15.4455 H   0  0  0  0  0  0  0  0  0  0  0  0
 31 32  1  0  0  0
 32 33  1  0  0  0
 33 34  2  0  0  0
 33 22  1  0  0  0
 22 23  2  0  0  0
 23 24  1  0  0  0
 24 25  2  0  0  0
 25 21  1  0  0  0
 21  1  1  0  0  0
  1  2  2  0  0  0
  2  3  1  0  0  0
  3  4  2  0  0  0
  4  7  1  0  0  0
  7  8  1  0  0  0
  8  9  2  0  0  0
  8 11  1  0  0  0
 11 12  2  0  0  0
 12 13  1  0  0  0
 13 14  2  0  0  0
 14 15  1  0  0  0
 15 16  2  0  0  0
 14 17  1  0  0  0
 17 18  1  0  0  0
 17 19  1  0  0  0
 17 20  1  0  0  0
  4  5  1  0  0  0
  5  6  2  0  0  0
 25 26  1  0  0  0
 26 27  2  0  0  0
 27 28  1  0  0  0
 28 29  2  0  0  0
 29 30  1  0  0  0
 30 22  1  0  0  0
 29 24  1  0  0  0
  6  1  1  0  0  0
 16 11  1  0  0  0
 32 35  1  0  0  0
  7 10  1  0  0  0
M  END
> <minimizedAffinity>
-9.00153

> <CNNscore>
0.2162118405

> <CNNaffinity>
6.3154745102

> <CNN_VS>
1.3654804230

> <CNNaffinity_variance>
0.0853639171

$$$$
[H]c1nc([H])c2sc(C(=O)N([H])C([H])([H])[H])c([H])c2c1Oc1c([H])c([H])c(N([H])C(=O)c2c([H])c([H])c(C(F)(F)F)c([H])c2[H])c([H])c1[H]


 35 38  0  0  0  0  0  0  0  0999 V2000
  -19.4822   10.5365  -16.4659 C   0  0  0  0  0  0  0  0  0  0  0  0
  -18.6736    9.9845  -17.4323 C   0  0  0  0  0  0  0  0  0  0  0  0
  -18.3521   10.6864  -18.5931 C   0  0  0  0  0  0  0  0  0  0  0  0
  -18.8328   11.9558  -18.8228 C   0  0  0  0  0  0  0  0  0  0  0  0
  -19.6311   12.5072  -17.8522 C   0  0  0  0  0  0  0  0  0  0  0  0
  -19.9455   11.8007  -16.6971 C   0  0  0  0  0  0  0  0  0  0  0  0
  -18.5812   12.6629  -20.0354 N   0  0  0  0  0  0  0  0  0  0  0  0
  -17.5162   12.3662  -20.8894 C   0  0  0  0  0  0  0  0  0  0  0  0
  -16.7427   11.3859  -20.5588 O   0  0  0  0  0  0  0  0  0  0  0  0
  -19.2542   13.4413  -20.2814 H   0  0  0  0  0  0  0  0  0  0  0  0
  -17.1571   13.0106  -22.1260 C   0  0  0  0  0  0  0  0  0  0  0  0
  -16.0945   12.6297  -22.9095 C   0  0  0  0  0  0  0  0  0  0  0  0
  -15.8216   13.2595  -24.1224 C   0  0  0  0  0  0  0  0  0  0  0  0
  -16.6019   14.3030  -24.5947 C   0  0  0  0  0  0  0  0  0  0  0  0
  -17.6617   14.6854  -23.8016 C   0  0  0  0  0  0  0  0  0  0  0  0
  -17.9362   14.0750  -22.6208 C   0  0  0  0  0  0  0  0  0  0  0  0
  -16.3313   14.9885  -25.8887 C   0  0  0  0  0  0  0  0  0  0  0  0
  -17.0418   14.4311  -26.9176 F   0  0  0  0  0  0  0  0  0  0  0  0
  -15.0121   15.0869  -26.1539 F   0  0  0  0  0  0  0  0  0  0  0  0
  -16.8748   16.2759  -25.7670 F   0  0  0  0  0  0  0  0  0  0  0  0
  -19.7657    9.7803  -15.3361 O   0  0  0  0  0  0  0  0  0  0  0  0
  -23.9644   10.5757  -14.6086 C   0  0  0  0  0  0  0  0  0  0  0  0
  -22.6152   10.4549  -14.8054 C   0  0  0  0  0  0  0  0  0  0  0  0
  -22.1417    9.2216  -15.1290 C   0  0  0  0  0  0  0  0  0  0  0  0
  -20.8342    8.8438  -15.3991 C   0  0  0  0  0  0  0  0  0  0  0  0
  -20.5516    7.5295  -15.7348 C   0  0  0  0  0  0  0  0  0  0  0  0
  -21.4699    6.5626  -15.8228 N   0  0  0  0  0  0  0  0  0  0  0  0
  -22.7441    6.9069  -15.5623 C   0  0  0  0  0  0  0  0  0  0  0  0
  -23.0840    8.2211  -15.2217 C   0  0  0  0  0  0  0  0  0  0  0  0
  -24.5419    9.0190  -14.8708 S   0  0  0  0  0  0  0  0  0  0  0  0
  -26.4542   13.5162  -14.4262 C   0  0  0  0  0  0  0  0  0  0  0  0
  -25.8050   12.3226  -14.9135 N   0  0  0  0  0  0  0  0  0  0  0  0
  -24.7144   11.7961  -14.2311 C   0  0  0  0  0  0  0  0  0  0  0  0
  -24.3177   12.3803  -13.1948 O   0  0  0  0  0  0  0  0  0  0  0  0
  -26.1606   11.8862  -15.7836 H   0  0  0  0  0  0  0  0  0  0  0  0
 31 32  1  0  0  0
 32 33  1  0  0  0
 33 34  2  0  0  0
 33 22  1  0  0  0
 22 23  2  0  0  0
 23 24  1  0  0  0
 24 25  2  0  0  0
 25 21  1  0  0  0
 21  1  1  0  0  0
  1  2  2  0  0  0
  2  3  1  0  0  0
  3  4  2  0  0  0
  4  7  1  0  0  0
  7  8  1  0  0  0
  8  9  2  0  0  0
  8 11  1  0  0  0
 11 12  2  0  0  0
 12 13  1  0  0  0
 13 14  2  0  0  0
 14 15  1  0  0  0
 15 16  2  0  0  0
 14 17  1  0  0  0
 17 18  1  0  0  0
 17 19  1  0  0  0
 17 20  1  0  0  0
  4  5  1  0  0  0
  5  6  2  0  0  0
 25 26  1  0  0  0
 26 27  2  0  0  0
 27 28  1  0  0  0
 28 29  2  0  0  0
 29 30  1  0  0  0
 30 22  1  0  0  0
 29 24  1  0  0  0
  6  1  1  0  0  0
 16 11  1  0  0  0
 32 35  1  0  0  0
  7 10  1  0  0  0
M  END
> <minimizedAffinity>
-8.07883

> <CNNscore>
0.2102023810

> <CNNaffinity>
6.1648473740

> <CNN_VS>
1.2958656549

> <CNNaffinity_variance>
0.1442233175

$$$$
[H]c1nc([H])c2sc(C(=O)N([H])C([H])([H])[H])c([H])c2c1Oc1c([H])c([H])c(N([H])C(=O)c2c([H])c([H])c(C(F)(F)F)c([H])c2[H])c([H])c1[H]


 35 38  0  0  0  0  0  0  0  0999 V2000
  -19.1961   11.7182  -17.6179 C   0  0  0  0  0  0  0  0  0  0  0  0
  -18.0312   11.2203  -18.1540 C   0  0  0  0  0  0  0  0  0  0  0  0
  -17.6432   11.5334  -19.4560 C   0  0  0  0  0  0  0  0  0  0  0  0
  -18.4096   12.3474  -20.2591 C   0  0  0  0  0  0  0  0  0  0  0  0
  -19.5660   12.8503  -19.7177 C   0  0  0  0  0  0  0  0  0  0  0  0
  -19.9446   12.5342  -18.4181 C   0  0  0  0  0  0  0  0  0  0  0  0
  -18.0733   12.6195  -21.6181 N   0  0  0  0  0  0  0  0  0  0  0  0
  -17.4781   13.8120  -22.0368 C   0  0  0  0  0  0  0  0  0  0  0  0
  -17.2072   14.6927  -21.1315 O   0  0  0  0  0  0  0  0  0  0  0  0
  -18.2884   11.8607  -22.3232 H   0  0  0  0  0  0  0  0  0  0  0  0
  -17.1039   14.2025  -23.3713 C   0  0  0  0  0  0  0  0  0  0  0  0
  -16.1083   15.1059  -23.6558 C   0  0  0  0  0  0  0  0  0  0  0  0
  -15.7557   15.4110  -24.9691 C   0  0  0  0  0  0  0  0  0  0  0  0
  -16.3940   14.8255  -26.0510 C   0  0  0  0  0  0  0  0  0  0  0  0
  -17.3962   13.9259  -25.7598 C   0  0  0  0  0  0  0  0  0  0  0  0
  -17.7433   13.6208  -24.4837 C   0  0  0  0  0  0  0  0  0  0  0  0
  -16.0321   15.1337  -27.4623 C   0  0  0  0  0  0  0  0  0  0  0  0
  -14.6760   15.1414  -27.6492 F   0  0  0  0  0  0  0  0  0  0  0  0
  -16.6312   16.2547  -27.9150 F   0  0  0  0  0  0  0  0  0  0  0  0
  -16.4675   14.0384  -28.2227 F   0  0  0  0  0  0  0  0  0  0  0  0
  -19.5246   11.3628  -16.3161 O   0  0  0  0  0  0  0  0  0  0  0  0
  -23.4474    9.9006  -15.1916 C   0  0  0  0  0  0  0  0  0  0  0  0
  -22.2619   10.4880  -15.5427 C   0  0  0  0  0  0  0  0  0  0  0  0
  -21.1825    9.6730  -15.6867 C   0  0  0  0  0  0  0  0  0  0  0  0
  -19.8885   10.0130  -16.0545 C   0  0  0  0  0  0  0  0  0  0  0  0
  -18.9224    9.0264  -16.1690 C   0  0  0  0  0  0  0  0  0  0  0  0
  -19.1450    7.7277  -15.9462 N   0  0  0  0  0  0  0  0  0  0  0  0
  -20.3927    7.3763  -15.5859 C   0  0  0  0  0  0  0  0  0  0  0  0
  -21.4062    8.3330  -15.4589 C   0  0  0  0  0  0  0  0  0  0  0  0
  -23.0590    8.2695  -15.0721 S   0  0  0  0  0  0  0  0  0  0  0  0
  -27.0782   11.1822  -15.4239 C   0  0  0  0  0  0  0  0  0  0  0  0
  -25.8634   10.4897  -15.7821 N   0  0  0  0  0  0  0  0  0  0  0  0
  -24.7486   10.5680  -14.9553 C   0  0  0  0  0  0  0  0  0  0  0  0
  -24.8291   11.2477  -13.9045 O   0  0  0  0  0  0  0  0  0  0  0  0
  -25.8423    9.9545  -16.6692 H   0  0  0  0  0  0  0  0  0  0  0  0
 31 32  1  0  0  0
 32 33  1  0  0  0
 33 34  2  0  0  0
 33 22  1  0  0  0
 22 23  2  0  0  0
 23 24  1  0  0  0
 24 25  2  0  0  0
 25 21  1  0  0  0
 21  1  1  0  0  0
  1  2  2  0  0  0
  2  3  1  0  0  0
  3  4  2  0  0  0
  4  7  1  0  0  0
  7  8  1  0  0  0
  8  9  2  0  0  0
  8 11  1  0  0  0
 11 12  2  0  0  0
 12 13  1  0  0  0
 13 14  2  0  0  0
 14 15  1  0  0  0
 15 16  2  0  0  0
 14 17  1  0  0  0
 17 18  1  0  0  0
 17 19  1  0  0  0
 17 20  1  0  0  0
  4  5  1  0  0  0
  5  6  2  0  0  0
 25 26  1  0  0  0
 26 27  2  0  0  0
 27 28  1  0  0  0
 28 29  2  0  0  0
 29 30  1  0  0  0
 30 22  1  0  0  0
 29 24  1  0  0  0
  6  1  1  0  0  0
 16 11  1  0  0  0
 32 35  1  0  0  0
  7 10  1  0  0  0
M  END
> <minimizedAffinity>
-9.05993

> <CNNscore>
0.2077240348

> <CNNaffinity>
6.1659731865

> <CNN_VS>
1.2808208466

> <CNNaffinity_variance>
0.1488838941

$$$$
[H]c1nc([H])c2sc(C(=O)N([H])C([H])([H])[H])c([H])c2c1Oc1c([H])c([H])c(N([H])C(=O)c2c([H])c([H])c(C(F)(F)F)c([H])c2[H])c([H])c1[H]


 35 38  0  0  0  0  0  0  0  0999 V2000
  -18.2046   12.3808  -20.8878 C   0  0  0  0  0  0  0  0  0  0  0  0
  -19.3690   12.9766  -20.4614 C   0  0  0  0  0  0  0  0  0  0  0  0
  -19.6708   13.0843  -19.1046 C   0  0  0  0  0  0  0  0  0  0  0  0
  -18.8215   12.5961  -18.1375 C   0  0  0  0  0  0  0  0  0  0  0  0
  -17.6563   12.0112  -18.5661 C   0  0  0  0  0  0  0  0  0  0  0  0
  -17.3626   11.9092  -19.9209 C   0  0  0  0  0  0  0  0  0  0  0  0
  -19.1437   12.6254  -16.7486 N   0  0  0  0  0  0  0  0  0  0  0  0
  -19.8829   11.6257  -16.1116 C   0  0  0  0  0  0  0  0  0  0  0  0
  -20.2683   10.6219  -16.8274 O   0  0  0  0  0  0  0  0  0  0  0  0
  -18.7864   13.4525  -16.1940 H   0  0  0  0  0  0  0  0  0  0  0  0
  -20.2764   11.5503  -14.7285 C   0  0  0  0  0  0  0  0  0  0  0  0
  -19.5504   10.9024  -13.7583 C   0  0  0  0  0  0  0  0  0  0  0  0
  -19.9549   10.9021  -12.4247 C   0  0  0  0  0  0  0  0  0  0  0  0
  -21.1098   11.5477  -12.0122 C   0  0  0  0  0  0  0  0  0  0  0  0
  -21.8375   12.1897  -12.9903 C   0  0  0  0  0  0  0  0  0  0  0  0
  -21.4487   12.1975  -14.2906 C   0  0  0  0  0  0  0  0  0  0  0  0
  -21.5597   11.5635  -10.5927 C   0  0  0  0  0  0  0  0  0  0  0  0
  -22.0225   10.3389  -10.1925 F   0  0  0  0  0  0  0  0  0  0  0  0
  -22.4301   12.5627  -10.3390 F   0  0  0  0  0  0  0  0  0  0  0  0
  -20.4035   11.7517   -9.8211 F   0  0  0  0  0  0  0  0  0  0  0  0
  -17.9687   12.3032  -22.2542 O   0  0  0  0  0  0  0  0  0  0  0  0
  -17.6911   16.5026  -23.2929 C   0  0  0  0  0  0  0  0  0  0  0  0
  -17.9097   15.1998  -22.9344 C   0  0  0  0  0  0  0  0  0  0  0  0
  -16.8761   14.3297  -23.0909 C   0  0  0  0  0  0  0  0  0  0  0  0
  -16.8340   12.9771  -22.7843 C   0  0  0  0  0  0  0  0  0  0  0  0
  -15.6692   12.2576  -22.9979 C   0  0  0  0  0  0  0  0  0  0  0  0
  -14.5433   12.7806  -23.4927 N   0  0  0  0  0  0  0  0  0  0  0  0
  -14.5632   14.0904  -23.7993 C   0  0  0  0  0  0  0  0  0  0  0  0
  -15.7127   14.8634  -23.6000 C   0  0  0  0  0  0  0  0  0  0  0  0
  -16.0967   16.5027  -23.8253 S   0  0  0  0  0  0  0  0  0  0  0  0
  -20.6613   18.8333  -22.5027 C   0  0  0  0  0  0  0  0  0  0  0  0
  -19.8147   17.6646  -22.4728 N   0  0  0  0  0  0  0  0  0  0  0  0
  -18.6548   17.6263  -23.2380 C   0  0  0  0  0  0  0  0  0  0  0  0
  -18.3701   18.6228  -23.9441 O   0  0  0  0  0  0  0  0  0  0  0  0
  -20.1021   16.8605  -21.8857 H   0  0  0  0  0  0  0  0  0  0  0  0
 31 32  1  0  0  0
 32 33  1  0  0  0
 33 34  2  0  0  0
 33 22  1  0  0  0
 22 23  2  0  0  0
 23 24  1  0  0  0
 24 25  2  0  0  0
 25 21  1  0  0  0
 21  1  1  0  0  0
  1  2  2  0  0  0
  2  3  1  0  0  0
  3  4  2  0  0  0
  4  7  1  0  0  0
  7  8  1  0  0  0
  8  9  2  0  0  0
  8 11  1  0  0  0
 11 12  2  0  0  0
 12 13  1  0  0  0
 13 14  2  0  0  0
 14 15  1  0  0  0
 15 16  2  0  0  0
 14 17  1  0  0  0
 17 18  1  0  0  0
 17 19  1  0  0  0
 17 20  1  0  0  0
  4  5  1  0  0  0
  5  6  2  0  0  0
 25 26  1  0  0  0
 26 27  2  0  0  0
 27 28  1  0  0  0
 28 29  2  0  0  0
 29 30  1  0  0  0
 30 22  1  0  0  0
 29 24  1  0  0  0
  6  1  1  0  0  0
 16 11  1  0  0  0
 32 35  1  0  0  0
  7 10  1  0  0  0
M  END
> <minimizedAffinity>
-8.00189

> <CNNscore>
0.1608941257

> <CNNaffinity>
6.2237253189

> <CNN_VS>
1.0013608932

> <CNNaffinity_variance>
0.1696746051

$$$$
[H]c1nc([H])c2sc(C(=O)N([H])C([H])([H])[H])c([H])c2c1Oc1c([H])c([H])c(N([H])C(=O)c2c([H])c([H])c(C(F)(F)F)c([H])c2[H])c([H])c1[H]


 35 38  0  0  0  0  0  0  0  0999 V2000
  -18.8075   16.6708  -20.2058 C   0  0  0  0  0  0  0  0  0  0  0  0
  -18.3738   16.4933  -18.9124 C   0  0  0  0  0  0  0  0  0  0  0  0
  -18.7137   15.3527  -18.1864 C   0  0  0  0  0  0  0  0  0  0  0  0
  -19.4991   14.3613  -18.7299 C   0  0  0  0  0  0  0  0  0  0  0  0
  -19.9218   14.5371  -20.0236 C   0  0  0  0  0  0  0  0  0  0  0  0
  -19.5770   15.6769  -20.7407 C   0  0  0  0  0  0  0  0  0  0  0  0
  -19.9234   13.2233  -17.9823 N   0  0  0  0  0  0  0  0  0  0  0  0
  -19.2105   12.0226  -17.9425 C   0  0  0  0  0  0  0  0  0  0  0  0
  -18.1034   11.9648  -18.6055 O   0  0  0  0  0  0  0  0  0  0  0  0
  -20.8221   13.3222  -17.4329 H   0  0  0  0  0  0  0  0  0  0  0  0
  -19.5406   10.8112  -17.2376 C   0  0  0  0  0  0  0  0  0  0  0  0
  -18.7957    9.6583  -17.3024 C   0  0  0  0  0  0  0  0  0  0  0  0
  -19.1361    8.5290  -16.5603 C   0  0  0  0  0  0  0  0  0  0  0  0
  -20.2436    8.5096  -15.7272 C   0  0  0  0  0  0  0  0  0  0  0  0
  -20.9907    9.6659  -15.6716 C   0  0  0  0  0  0  0  0  0  0  0  0
  -20.6641   10.7710  -16.3885 C   0  0  0  0  0  0  0  0  0  0  0  0
  -20.6246    7.3158  -14.9227 C   0  0  0  0  0  0  0  0  0  0  0  0
  -21.2332    6.3590  -15.6897 F   0  0  0  0  0  0  0  0  0  0  0  0
  -21.3377    7.6407  -13.8243 F   0  0  0  0  0  0  0  0  0  0  0  0
  -19.4209    6.7124  -14.5295 F   0  0  0  0  0  0  0  0  0  0  0  0
  -18.4354   17.8325  -20.8697 O   0  0  0  0  0  0  0  0  0  0  0  0
  -20.5217   21.0044  -18.7774 C   0  0  0  0  0  0  0  0  0  0  0  0
  -19.7979   19.9775  -19.3207 C   0  0  0  0  0  0  0  0  0  0  0  0
  -20.0620   19.6461  -20.6133 C   0  0  0  0  0  0  0  0  0  0  0  0
  -19.4586   18.6701  -21.3934 C   0  0  0  0  0  0  0  0  0  0  0  0
  -19.8552   18.4968  -22.7097 C   0  0  0  0  0  0  0  0  0  0  0  0
  -20.8056   19.2202  -23.3092 N   0  0  0  0  0  0  0  0  0  0  0  0
  -21.4056   20.1706  -22.5698 C   0  0  0  0  0  0  0  0  0  0  0  0
  -21.0403   20.3888  -21.2365 C   0  0  0  0  0  0  0  0  0  0  0  0
  -21.5293   21.4847  -20.0342 S   0  0  0  0  0  0  0  0  0  0  0  0
  -20.8314   21.5745  -14.9751 C   0  0  0  0  0  0  0  0  0  0  0  0
  -21.0040   20.9562  -16.2679 N   0  0  0  0  0  0  0  0  0  0  0  0
  -20.4365   21.5353  -17.3971 C   0  0  0  0  0  0  0  0  0  0  0  0
  -19.7796   22.5948  -17.2607 O   0  0  0  0  0  0  0  0  0  0  0  0
  -21.5694   20.0900  -16.3305 H   0  0  0  0  0  0  0  0  0  0  0  0
 31 32  1  0  0  0
 32 33  1  0  0  0
 33 34  2  0  0  0
 33 22  1  0  0  0
 22 23  2  0  0  0
 23 24  1  0  0  0
 24 25  2  0  0  0
 25 21  1  0  0  0
 21  1  1  0  0  0
  1  2  2  0  0  0
  2  3  1  0  0  0
  3  4  2  0  0  0
  4  7  1  0  0  0
  7  8  1  0  0  0
  8  9  2  0  0  0
  8 11  1  0  0  0
 11 12  2  0  0  0
 12 13  1  0  0  0
 13 14  2  0  0  0
 14 15  1  0  0  0
 15 16  2  0  0  0
 14 17  1  0  0  0
 17 18  1  0  0  0
 17 19  1  0  0  0
 17 20  1  0  0  0
  4  5  1  0  0  0
  5  6  2  0  0  0
 25 26  1  0  0  0
 26 27  2  0  0  0
 27 28  1  0  0  0
 28 29  2  0  0  0
 29 30  1  0  0  0
 30 22  1  0  0  0
 29 24  1  0  0  0
  6  1  1  0  0  0
 16 11  1  0  0  0
 32 35  1  0  0  0
  7 10  1  0  0  0
M  END
> <minimizedAffinity>
-6.93314

> <CNNscore>
0.1458310038

> <CNNaffinity>
5.8637404442

> <CNN_VS>
0.8551151752

> <CNNaffinity_variance>
0.7932349443

$$$$
[H]c1nc([H])c2sc(C(=O)N([H])C([H])([H])[H])c([H])c2c1Oc1c([H])c([H])c(N([H])C(=O)c2c([H])c([H])c(C(F)(F)F)c([H])c2[H])c([H])c1[H]


 35 38  0  0  0  0  0  0  0  0999 V2000
  -17.9962   12.7185  -20.5026 C   0  0  0  0  0  0  0  0  0  0  0  0
  -17.1750   11.9267  -19.7336 C   0  0  0  0  0  0  0  0  0  0  0  0
  -17.6239   11.3659  -18.5388 C   0  0  0  0  0  0  0  0  0  0  0  0
  -18.9022   11.5842  -18.0770 C   0  0  0  0  0  0  0  0  0  0  0  0
  -19.7218   12.3664  -18.8515 C   0  0  0  0  0  0  0  0  0  0  0  0
  -19.2665   12.9204  -20.0422 C   0  0  0  0  0  0  0  0  0  0  0  0
  -19.3593   11.0854  -16.8216 N   0  0  0  0  0  0  0  0  0  0  0  0
  -19.4517    9.7234  -16.5251 C   0  0  0  0  0  0  0  0  0  0  0  0
  -19.0812    8.8884  -17.4384 O   0  0  0  0  0  0  0  0  0  0  0  0
  -19.6281   11.8038  -16.0929 H   0  0  0  0  0  0  0  0  0  0  0  0
  -19.9040    9.1035  -15.3067 C   0  0  0  0  0  0  0  0  0  0  0  0
  -19.0990    8.8765  -14.2164 C   0  0  0  0  0  0  0  0  0  0  0  0
  -19.6023    8.3157  -13.0441 C   0  0  0  0  0  0  0  0  0  0  0  0
  -20.9345    7.9537  -12.9215 C   0  0  0  0  0  0  0  0  0  0  0  0
  -21.7354    8.1771  -14.0202 C   0  0  0  0  0  0  0  0  0  0  0  0
  -21.2538    8.7258  -15.1644 C   0  0  0  0  0  0  0  0  0  0  0  0
  -21.4949    7.3561  -11.6780 C   0  0  0  0  0  0  0  0  0  0  0  0
  -20.6231    6.4724  -11.1009 F   0  0  0  0  0  0  0  0  0  0  0  0
  -22.7248    6.8341  -11.8659 F   0  0  0  0  0  0  0  0  0  0  0  0
  -21.5751    8.4021  -10.7467 F   0  0  0  0  0  0  0  0  0  0  0  0
  -17.4834   13.2487  -21.6793 O   0  0  0  0  0  0  0  0  0  0  0  0
  -16.3468   15.5824  -25.1510 C   0  0  0  0  0  0  0  0  0  0  0  0
  -16.7134   14.7377  -24.1382 C   0  0  0  0  0  0  0  0  0  0  0  0
  -16.7619   15.2570  -22.8820 C   0  0  0  0  0  0  0  0  0  0  0  0
  -17.1220   14.6240  -21.7009 C   0  0  0  0  0  0  0  0  0  0  0  0
  -17.1302   15.3356  -20.5120 C   0  0  0  0  0  0  0  0  0  0  0  0
  -16.8079   16.6284  -20.4082 N   0  0  0  0  0  0  0  0  0  0  0  0
  -16.4531   17.2609  -21.5413 C   0  0  0  0  0  0  0  0  0  0  0  0
  -16.4313   16.5894  -22.7690 C   0  0  0  0  0  0  0  0  0  0  0  0
  -16.0842   17.0463  -24.3678 S   0  0  0  0  0  0  0  0  0  0  0  0
  -15.3435   15.5056  -28.8747 C   0  0  0  0  0  0  0  0  0  0  0  0
  -15.4055   15.9411  -27.5000 N   0  0  0  0  0  0  0  0  0  0  0  0
  -16.2001   15.2556  -26.5884 C   0  0  0  0  0  0  0  0  0  0  0  0
  -16.8513   14.2621  -26.9902 O   0  0  0  0  0  0  0  0  0  0  0  0
  -14.8612   16.7778  -27.2211 H   0  0  0  0  0  0  0  0  0  0  0  0
 31 32  1  0  0  0
 32 33  1  0  0  0
 33 34  2  0  0  0
 33 22  1  0  0  0
 22 23  2  0  0  0
 23 24  1  0  0  0
 24 25  2  0  0  0
 25 21  1  0  0  0
 21  1  1  0  0  0
  1  2  2  0  0  0
  2  3  1  0  0  0
  3  4  2  0  0  0
  4  7  1  0  0  0
  7  8  1  0  0  0
  8  9  2  0  0  0
  8 11  1  0  0  0
 11 12  2  0  0  0
 12 13  1  0  0  0
 13 14  2  0  0  0
 14 15  1  0  0  0
 15 16  2  0  0  0
 14 17  1  0  0  0
 17 18  1  0  0  0
 17 19  1  0  0  0
 17 20  1  0  0  0
  4  5  1  0  0  0
  5  6  2  0  0  0
 25 26  1  0  0  0
 26 27  2  0  0  0
 27 28  1  0  0  0
 28 29  2  0  0  0
 29 30  1  0  0  0
 30 22  1  0  0  0
 29 24  1  0  0  0
  6  1  1  0  0  0
 16 11  1  0  0  0
 32 35  1  0  0  0
  7 10  1  0  0  0
M  END
> <minimizedAffinity>
-7.72727

> <CNNscore>
0.1434941441

> <CNNaffinity>
6.1850905418

> <CNN_VS>
0.8875242472

> <CNNaffinity_variance>
0.1991993189

$$$$
[H]c1nc([H])c2sc(C(=O)N([H])C([H])([H])[H])c([H])c2c1Oc1c([H])c([H])c(N([H])C(=O)c2c([H])c([H])c(C(F)(F)F)c([H])c2[H])c([H])c1[H]


 35 38  0  0  0  0  0  0  0  0999 V2000
  -18.0904   10.9900  -18.3983 C   0  0  0  0  0  0  0  0  0  0  0  0
  -16.9245   10.5780  -19.0013 C   0  0  0  0  0  0  0  0  0  0  0  0
  -16.5791   11.0136  -20.2797 C   0  0  0  0  0  0  0  0  0  0  0  0
  -17.3898   11.8679  -20.9924 C   0  0  0  0  0  0  0  0  0  0  0  0
  -18.5471   12.2847  -20.3839 C   0  0  0  0  0  0  0  0  0  0  0  0
  -18.8832   11.8465  -19.1083 C   0  0  0  0  0  0  0  0  0  0  0  0
  -17.0961   12.2660  -22.3300 N   0  0  0  0  0  0  0  0  0  0  0  0
  -16.8136   13.5851  -22.6931 C   0  0  0  0  0  0  0  0  0  0  0  0
  -16.8021   14.4721  -21.7541 O   0  0  0  0  0  0  0  0  0  0  0  0
  -17.0905   11.5037  -23.0636 H   0  0  0  0  0  0  0  0  0  0  0  0
  -16.5143   14.1064  -24.0015 C   0  0  0  0  0  0  0  0  0  0  0  0
  -15.5530   15.0570  -24.2474 C   0  0  0  0  0  0  0  0  0  0  0  0
  -15.2724   15.4908  -25.5417 C   0  0  0  0  0  0  0  0  0  0  0  0
  -15.9512   14.9916  -26.6420 C   0  0  0  0  0  0  0  0  0  0  0  0
  -16.9187   14.0438  -26.3889 C   0  0  0  0  0  0  0  0  0  0  0  0
  -17.1958   13.6136  -25.1318 C   0  0  0  0  0  0  0  0  0  0  0  0
  -15.6661   15.4376  -28.0339 C   0  0  0  0  0  0  0  0  0  0  0  0
  -15.5693   14.3795  -28.8971 F   0  0  0  0  0  0  0  0  0  0  0  0
  -14.6062   16.2697  -28.1016 F   0  0  0  0  0  0  0  0  0  0  0  0
  -16.8145   16.1171  -28.4666 F   0  0  0  0  0  0  0  0  0  0  0  0
  -18.3751   10.5141  -17.1251 O   0  0  0  0  0  0  0  0  0  0  0  0
  -20.0647   14.4229  -16.3143 C   0  0  0  0  0  0  0  0  0  0  0  0
  -19.4177   13.2534  -16.6097 C   0  0  0  0  0  0  0  0  0  0  0  0
  -20.0766   12.0936  -16.3438 C   0  0  0  0  0  0  0  0  0  0  0  0
  -19.6546   10.7912  -16.5694 C   0  0  0  0  0  0  0  0  0  0  0  0
  -20.4869    9.7312  -16.2476 C   0  0  0  0  0  0  0  0  0  0  0  0
  -21.7067    9.8676  -15.7191 N   0  0  0  0  0  0  0  0  0  0  0  0
  -22.1347   11.1223  -15.4897 C   0  0  0  0  0  0  0  0  0  0  0  0
  -21.3347   12.2282  -15.7994 C   0  0  0  0  0  0  0  0  0  0  0  0
  -21.5395   13.9109  -15.6911 S   0  0  0  0  0  0  0  0  0  0  0  0
  -19.2243   18.1664  -15.9161 C   0  0  0  0  0  0  0  0  0  0  0  0
  -19.7947   16.8712  -15.6321 N   0  0  0  0  0  0  0  0  0  0  0  0
  -19.5562   15.8032  -16.4894 C   0  0  0  0  0  0  0  0  0  0  0  0
  -18.8411   15.9959  -17.5014 O   0  0  0  0  0  0  0  0  0  0  0  0
  -20.3921   16.7673  -14.7917 H   0  0  0  0  0  0  0  0  0  0  0  0
 31 32  1  0  0  0
 32 33  1  0  0  0
 33 34  2  0  0  0
 33 22  1  0  0  0
 22 23  2  0  0  0
 23 24  1  0  0  0
 24 25  2  0  0  0
 25 21  1  0  0  0
 21  1  1  0  0  0
  1  2  2  0  0  0
  2  3  1  0  0  0
  3  4  2  0  0  0
  4  7  1  0  0  0
  7  8  1  0  0  0
  8  9  2  0  0  0
  8 11  1  0  0  0
 11 12  2  0  0  0
 12 13  1  0  0  0
 13 14  2  0  0  0
 14 15  1  0  0  0
 15 16  2  0  0  0
 14 17  1  0  0  0
 17 18  1  0  0  0
 17 19  1  0  0  0
 17 20  1  0  0  0
  4  5  1  0  0  0
  5  6  2  0  0  0
 25 26  1  0  0  0
 26 27  2  0  0  0
 27 28  1  0  0  0
 28 29  2  0  0  0
 29 30  1  0  0  0
 30 22  1  0  0  0
 29 24  1  0  0  0
  6  1  1  0  0  0
 16 11  1  0  0  0
 32 35  1  0  0  0
  7 10  1  0  0  0
M  END
> <minimizedAffinity>
-8.51859

> <CNNscore>
0.1394969672

> <CNNaffinity>
6.3318705559

> <CNN_VS>
0.8832767606

> <CNNaffinity_variance>
0.1697047502

$$$$
[H]c1nc([H])c2sc(C(=O)N([H])C([H])([H])[H])c([H])c2c1Oc1c([H])c([H])c(N([H])C(=O)c2c([H])c([H])c(C(F)(F)F)c([H])c2[H])c([H])c1[H]


 35 38  0  0  0  0  0  0  0  0999 V2000
  -19.6740   10.1214  -16.6564 C   0  0  0  0  0  0  0  0  0  0  0  0
  -18.7443    9.4187  -17.3873 C   0  0  0  0  0  0  0  0  0  0  0  0
  -17.9277   10.0553  -18.3208 C   0  0  0  0  0  0  0  0  0  0  0  0
  -18.0205   11.4089  -18.5535 C   0  0  0  0  0  0  0  0  0  0  0  0
  -18.9422   12.1084  -17.8156 C   0  0  0  0  0  0  0  0  0  0  0  0
  -19.7514   11.4659  -16.8858 C   0  0  0  0  0  0  0  0  0  0  0  0
  -17.2510   12.0688  -19.5566 N   0  0  0  0  0  0  0  0  0  0  0  0
  -17.8185   12.7107  -20.6600 C   0  0  0  0  0  0  0  0  0  0  0  0
  -19.1072   12.7145  -20.7493 O   0  0  0  0  0  0  0  0  0  0  0  0
  -16.2005   12.0642  -19.4311 H   0  0  0  0  0  0  0  0  0  0  0  0
  -17.1501   13.3971  -21.7349 C   0  0  0  0  0  0  0  0  0  0  0  0
  -17.1605   14.7615  -21.8981 C   0  0  0  0  0  0  0  0  0  0  0  0
  -16.4554   15.3764  -22.9309 C   0  0  0  0  0  0  0  0  0  0  0  0
  -15.7160   14.6447  -23.8467 C   0  0  0  0  0  0  0  0  0  0  0  0
  -15.7150   13.2766  -23.6824 C   0  0  0  0  0  0  0  0  0  0  0  0
  -16.3962   12.6703  -22.6773 C   0  0  0  0  0  0  0  0  0  0  0  0
  -14.9524   15.2802  -24.9560 C   0  0  0  0  0  0  0  0  0  0  0  0
  -13.7115   14.7213  -25.1045 F   0  0  0  0  0  0  0  0  0  0  0  0
  -14.9139   16.6248  -24.8511 F   0  0  0  0  0  0  0  0  0  0  0  0
  -15.6203   14.9286  -26.1383 F   0  0  0  0  0  0  0  0  0  0  0  0
  -20.4576    9.4239  -15.7463 O   0  0  0  0  0  0  0  0  0  0  0  0
  -21.9896   12.0892  -12.6901 C   0  0  0  0  0  0  0  0  0  0  0  0
  -21.5834   11.3161  -13.7442 C   0  0  0  0  0  0  0  0  0  0  0  0
  -20.6421   10.3669  -13.4931 C   0  0  0  0  0  0  0  0  0  0  0  0
  -20.0862    9.4500  -14.3737 C   0  0  0  0  0  0  0  0  0  0  0  0
  -19.1469    8.5388  -13.9184 C   0  0  0  0  0  0  0  0  0  0  0  0
  -18.7186    8.4697  -12.6544 N   0  0  0  0  0  0  0  0  0  0  0  0
  -19.2430    9.3515  -11.7842 C   0  0  0  0  0  0  0  0  0  0  0  0
  -20.1974   10.2907  -12.1916 C   0  0  0  0  0  0  0  0  0  0  0  0
  -21.0863   11.5024  -11.3997 S   0  0  0  0  0  0  0  0  0  0  0  0
  -23.8170   15.4501  -13.1838 C   0  0  0  0  0  0  0  0  0  0  0  0
  -22.7581   14.4696  -13.2148 N   0  0  0  0  0  0  0  0  0  0  0  0
  -22.9772   13.1931  -12.7101 C   0  0  0  0  0  0  0  0  0  0  0  0
  -24.1057   12.9229  -12.2345 O   0  0  0  0  0  0  0  0  0  0  0  0
  -21.8383   14.7471  -13.6034 H   0  0  0  0  0  0  0  0  0  0  0  0
 31 32  1  0  0  0
 32 33  1  0  0  0
 33 34  2  0  0  0
 33 22  1  0  0  0
 22 23  2  0  0  0
 23 24  1  0  0  0
 24 25  2  0  0  0
 25 21  1  0  0  0
 21  1  1  0  0  0
  1  2  2  0  0  0
  2  3  1  0  0  0
  3  4  2  0  0  0
  4  7  1  0  0  0
  7  8  1  0  0  0
  8  9  2  0  0  0
  8 11  1  0  0  0
 11 12  2  0  0  0
 12 13  1  0  0  0
 13 14  2  0  0  0
 14 15  1  0  0  0
 15 16  2  0  0  0
 14 17  1  0  0  0
 17 18  1  0  0  0
 17 19  1  0  0  0
 17 20  1  0  0  0
  4  5  1  0  0  0
  5  6  2  0  0  0
 25 26  1  0  0  0
 26 27  2  0  0  0
 27 28  1  0  0  0
 28 29  2  0  0  0
 29 30  1  0  0  0
 30 22  1  0  0  0
 29 24  1  0  0  0
  6  1  1  0  0  0
 16 11  1  0  0  0
 32 35  1  0  0  0
  7 10  1  0  0  0
M  END
> <minimizedAffinity>
-8.89017

> <CNNscore>
0.1259016097

> <CNNaffinity>
5.7953119278

> <CNN_VS>
0.7296391129

> <CNNaffinity_variance>
0.1317309886

$$$$
[H]c1c([H])c([H])c2c(c1[H])c1c3c(c4c5c([H])c([H])c([H])c([H])c5n5c4c1n2[C@@]1(C([H])([H])[H])O[C@]5([H])C([H])([H])[C@@]([H])(N([H])C([H])([H])[H])[C@@]1([H])OC([H])([H])[H])C(=O)N([H])C3([H])[H]


 37 44  0  0  0  0  0  0  0  0999 V2000
  -20.1149   16.2514  -17.4909 C   0  0  0  0  0  0  0  0  0  0  0  0
  -20.4492   14.8903  -17.0678 C   0  0  0  0  0  0  0  0  0  0  0  0
  -21.0746   14.0843  -18.1364 C   0  0  0  0  0  0  0  0  0  0  0  0
  -21.5546   14.6266  -19.2227 O   0  0  0  0  0  0  0  0  0  0  0  0
  -20.9806   15.7395  -19.8315 C   0  0  0  0  0  0  0  0  0  0  0  0
  -22.1557   16.2335  -20.6857 C   0  0  0  0  0  0  0  0  0  0  0  0
  -20.6301   16.7286  -18.8196 C   0  0  0  0  0  0  0  0  0  0  0  0
  -19.8664   15.2680  -20.6726 N   0  0  0  0  0  0  0  0  0  0  0  0
  -19.3619   15.8489  -21.7596 C   0  0  0  0  0  0  0  0  0  0  0  0
  -19.6499   17.0186  -22.4061 C   0  0  0  0  0  0  0  0  0  0  0  0
  -18.9660   17.4084  -23.5358 C   0  0  0  0  0  0  0  0  0  0  0  0
  -17.9430   16.6194  -24.0710 C   0  0  0  0  0  0  0  0  0  0  0  0
  -17.6528   15.4557  -23.4314 C   0  0  0  0  0  0  0  0  0  0  0  0
  -18.3400   15.0786  -22.3082 C   0  0  0  0  0  0  0  0  0  0  0  0
  -18.2232   13.9751  -21.5050 C   0  0  0  0  0  0  0  0  0  0  0  0
  -17.3913   12.8537  -21.5319 C   0  0  0  0  0  0  0  0  0  0  0  0
  -16.3207   12.4862  -22.4868 C   0  0  0  0  0  0  0  0  0  0  0  0
  -15.7849   11.2377  -22.0549 N   0  0  0  0  0  0  0  0  0  0  0  0
  -16.4894   10.8338  -20.8762 C   0  0  0  0  0  0  0  0  0  0  0  0
  -16.2148    9.7787  -20.3012 O   0  0  0  0  0  0  0  0  0  0  0  0
  -17.4798   11.8488  -20.5698 C   0  0  0  0  0  0  0  0  0  0  0  0
  -18.4280   12.0114  -19.5851 C   0  0  0  0  0  0  0  0  0  0  0  0
  -18.8097   11.2730  -18.4796 C   0  0  0  0  0  0  0  0  0  0  0  0
  -18.3779   10.0827  -17.9654 C   0  0  0  0  0  0  0  0  0  0  0  0
  -18.9693    9.5895  -16.8189 C   0  0  0  0  0  0  0  0  0  0  0  0
  -19.9786   10.2785  -16.1965 C   0  0  0  0  0  0  0  0  0  0  0  0
  -20.4242   11.4794  -16.7034 C   0  0  0  0  0  0  0  0  0  0  0  0
  -19.8326   11.9593  -17.8385 C   0  0  0  0  0  0  0  0  0  0  0  0
  -20.0735   13.0652  -18.5109 N   0  0  0  0  0  0  0  0  0  0  0  0
  -19.2607   13.1438  -19.5668 C   0  0  0  0  0  0  0  0  0  0  0  0
  -19.1586   14.1299  -20.5331 C   0  0  0  0  0  0  0  0  0  0  0  0
  -15.0087   10.7256  -22.5363 H   0  0  0  0  0  0  0  0  0  0  0  0
  -18.0581   15.1691  -16.8923 C   0  0  0  0  0  0  0  0  0  0  0  0
  -18.6419   16.3860  -17.4257 N   0  0  0  0  0  0  0  0  0  0  0  0
  -18.2355   16.5014  -18.3787 H   0  0  0  0  0  0  0  0  0  0  0  0
  -19.7162   17.7074  -19.2032 O   0  0  0  0  0  0  0  0  0  0  0  0
  -20.2630   18.9844  -19.2344 C   0  0  0  0  0  0  0  0  0  0  0  0
 33 34  1  0  0  0
 34  1  1  0  0  0
  1  2  1  0  0  0
  2  3  1  0  0  0
  3  4  1  0  0  0
  4  5  1  0  0  0
  5  6  1  0  0  0
  5  7  1  0  0  0
  7 36  1  0  0  0
 36 37  1  0  0  0
  5  8  1  0  0  0
  8  9  1  0  0  0
  9 10  2  0  0  0
 10 11  1  0  0  0
 11 12  2  0  0  0
 12 13  1  0  0  0
 13 14  2  0  0  0
 14 15  1  0  0  0
 15 16  2  0  0  0
 16 17  1  0  0  0
 17 18  1  0  0  0
 18 19  1  0  0  0
 19 20  2  0  0  0
 19 21  1  0  0  0
 21 22  2  0  0  0
 22 23  1  0  0  0
 23 24  2  0  0  0
 24 25  1  0  0  0
 25 26  2  0  0  0
 26 27  1  0  0  0
 27 28  2  0  0  0
 28 29  1  0  0  0
 29 30  1  0  0  0
 30 31  2  0  0  0
  7  1  1  0  0  0
 31  8  1  0  0  0
 29  3  1  0  0  0
 14  9  1  0  0  0
 31 15  1  0  0  0
 21 16  1  0  0  0
 30 22  1  0  0  0
 28 23  1  0  0  0
 34 35  1  0  0  0
 18 32  1  0  0  0
M  END
> <minimizedAffinity>
-10.79400

> <CNNscore>
0.8113692999

> <CNNaffinity>
7.1010408401

> <CNN_VS>
5.7615666389

> <CNNaffinity_variance>
0.0312323868

$$$$
[H]c1c([H])c([H])c2c(c1[H])c1c3c(c4c5c([H])c([H])c([H])c([H])c5n5c4c1n2[C@@]1(C([H])([H])[H])O[C@]5([H])C([H])([H])[C@@]([H])(N([H])C([H])([H])[H])[C@@]1([H])OC([H])([H])[H])C(=O)N([H])C3([H])[H]


 37 44  0  0  0  0  0  0  0  0999 V2000
  -19.4812   17.3460  -18.4826 C   0  0  0  0  0  0  0  0  0  0  0  0
  -20.1470   16.1707  -17.9182 C   0  0  0  0  0  0  0  0  0  0  0  0
  -20.8335   15.3455  -18.9332 C   0  0  0  0  0  0  0  0  0  0  0  0
  -21.0780   15.7886  -20.1368 O   0  0  0  0  0  0  0  0  0  0  0  0
  -20.2174   16.6448  -20.8185 C   0  0  0  0  0  0  0  0  0  0  0  0
  -21.1688   17.2218  -21.8750 C   0  0  0  0  0  0  0  0  0  0  0  0
  -19.7518   17.6937  -19.9194 C   0  0  0  0  0  0  0  0  0  0  0  0
  -19.1622   15.8235  -21.4377 N   0  0  0  0  0  0  0  0  0  0  0  0
  -18.4425   16.1021  -22.5229 C   0  0  0  0  0  0  0  0  0  0  0  0
  -18.4025   17.1835  -23.3584 C   0  0  0  0  0  0  0  0  0  0  0  0
  -17.5471   17.2339  -24.4362 C   0  0  0  0  0  0  0  0  0  0  0  0
  -16.6794   16.1751  -24.7220 C   0  0  0  0  0  0  0  0  0  0  0  0
  -16.7154   15.0979  -23.8938 C   0  0  0  0  0  0  0  0  0  0  0  0
  -17.5706   15.0594  -22.8246 C   0  0  0  0  0  0  0  0  0  0  0  0
  -17.7768   14.1026  -21.8661 C   0  0  0  0  0  0  0  0  0  0  0  0
  -17.2156   12.8457  -21.6301 C   0  0  0  0  0  0  0  0  0  0  0  0
  -16.1692   12.1150  -22.3810 C   0  0  0  0  0  0  0  0  0  0  0  0
  -15.9663   10.8715  -21.7140 N   0  0  0  0  0  0  0  0  0  0  0  0
  -16.8493   10.8197  -20.5887 C   0  0  0  0  0  0  0  0  0  0  0  0
  -16.8704    9.8399  -19.8411 O   0  0  0  0  0  0  0  0  0  0  0  0
  -17.6139   12.0523  -20.5553 C   0  0  0  0  0  0  0  0  0  0  0  0
  -18.5898   12.5652  -19.7308 C   0  0  0  0  0  0  0  0  0  0  0  0
  -19.2270   12.1126  -18.5897 C   0  0  0  0  0  0  0  0  0  0  0  0
  -19.1197   10.9601  -17.8631 C   0  0  0  0  0  0  0  0  0  0  0  0
  -19.9099   10.7937  -16.7426 C   0  0  0  0  0  0  0  0  0  0  0  0
  -20.7945   11.7675  -16.3556 C   0  0  0  0  0  0  0  0  0  0  0  0
  -20.9134   12.9343  -17.0782 C   0  0  0  0  0  0  0  0  0  0  0  0
  -20.1271   13.0896  -18.1855 C   0  0  0  0  0  0  0  0  0  0  0  0
  -20.0530   14.0956  -19.0316 N   0  0  0  0  0  0  0  0  0  0  0  0
  -19.1485   13.8314  -19.9770 C   0  0  0  0  0  0  0  0  0  0  0  0
  -18.7407   14.6033  -21.0515 C   0  0  0  0  0  0  0  0  0  0  0  0
  -15.2817   10.1393  -22.0168 H   0  0  0  0  0  0  0  0  0  0  0  0
  -17.7907   16.0638  -17.3610 C   0  0  0  0  0  0  0  0  0  0  0  0
  -18.0276   17.1849  -18.2515 N   0  0  0  0  0  0  0  0  0  0  0  0
  -17.5327   16.9518  -19.1389 H   0  0  0  0  0  0  0  0  0  0  0  0
  -18.6119   18.3879  -20.3182 O   0  0  0  0  0  0  0  0  0  0  0  0
  -18.8599   19.7223  -20.6155 C   0  0  0  0  0  0  0  0  0  0  0  0
 33 34  1  0  0  0
 34  1  1  0  0  0
  1  2  1  0  0  0
  2  3  1  0  0  0
  3  4  1  0  0  0
  4  5  1  0  0  0
  5  6  1  0  0  0
  5  7  1  0  0  0
  7 36  1  0  0  0
 36 37  1  0  0  0
  5  8  1  0  0  0
  8  9  1  0  0  0
  9 10  2  0  0  0
 10 11  1  0  0  0
 11 12  2  0  0  0
 12 13  1  0  0  0
 13 14  2  0  0  0
 14 15  1  0  0  0
 15 16  2  0  0  0
 16 17  1  0  0  0
 17 18  1  0  0  0
 18 19  1  0  0  0
 19 20  2  0  0  0
 19 21  1  0  0  0
 21 22  2  0  0  0
 22 23  1  0  0  0
 23 24  2  0  0  0
 24 25  1  0  0  0
 25 26  2  0  0  0
 26 27  1  0  0  0
 27 28  2  0  0  0
 28 29  1  0  0  0
 29 30  1  0  0  0
 30 31  2  0  0  0
  7  1  1  0  0  0
 31  8  1  0  0  0
 29  3  1  0  0  0
 14  9  1  0  0  0
 31 15  1  0  0  0
 21 16  1  0  0  0
 30 22  1  0  0  0
 28 23  1  0  0  0
 34 35  1  0  0  0
 18 32  1  0  0  0
M  END
> <minimizedAffinity>
-10.31349

> <CNNscore>
0.6497375369

> <CNNaffinity>
7.0970230103

> <CNN_VS>
4.6112022400

> <CNNaffinity_variance>
0.1676243246

$$$$
[H]c1c([H])c([H])c2c(c1[H])c1c3c(c4c5c([H])c([H])c([H])c([H])c5n5c4c1n2[C@@]1(C([H])([H])[H])O[C@]5([H])C([H])([H])[C@@]([H])(N([H])C([H])([H])[H])[C@@]1([H])OC([H])([H])[H])C(=O)N([H])C3([H])[H]


 37 44  0  0  0  0  0  0  0  0999 V2000
  -19.7284   17.3356  -18.1359 C   0  0  0  0  0  0  0  0  0  0  0  0
  -20.5451   16.4196  -17.3376 C   0  0  0  0  0  0  0  0  0  0  0  0
  -21.3062   15.4531  -18.1555 C   0  0  0  0  0  0  0  0  0  0  0  0
  -21.4693   15.6103  -19.4414 O   0  0  0  0  0  0  0  0  0  0  0  0
  -20.4960   16.1681  -20.2660 C   0  0  0  0  0  0  0  0  0  0  0  0
  -21.3472   16.5709  -21.4775 C   0  0  0  0  0  0  0  0  0  0  0  0
  -19.9242   17.3464  -19.6259 C   0  0  0  0  0  0  0  0  0  0  0  0
  -19.5370   15.1048  -20.6136 N   0  0  0  0  0  0  0  0  0  0  0  0
  -18.7660   15.0231  -21.6963 C   0  0  0  0  0  0  0  0  0  0  0  0
  -18.5761   15.8531  -22.7660 C   0  0  0  0  0  0  0  0  0  0  0  0
  -17.6986   15.5382  -23.7794 C   0  0  0  0  0  0  0  0  0  0  0  0
  -16.9616   14.3500  -23.7557 C   0  0  0  0  0  0  0  0  0  0  0  0
  -17.1469   13.5219  -22.6939 C   0  0  0  0  0  0  0  0  0  0  0  0
  -18.0225   13.8460  -21.6918 C   0  0  0  0  0  0  0  0  0  0  0  0
  -18.3645   13.1853  -20.5415 C   0  0  0  0  0  0  0  0  0  0  0  0
  -17.9668   11.9700  -19.9798 C   0  0  0  0  0  0  0  0  0  0  0  0
  -17.0025   10.9624  -20.4774 C   0  0  0  0  0  0  0  0  0  0  0  0
  -16.9677    9.9072  -19.5194 N   0  0  0  0  0  0  0  0  0  0  0  0
  -17.8738   10.2356  -18.4610 C   0  0  0  0  0  0  0  0  0  0  0  0
  -18.0306    9.4796  -17.5003 O   0  0  0  0  0  0  0  0  0  0  0  0
  -18.4819   11.5171  -18.7662 C   0  0  0  0  0  0  0  0  0  0  0  0
  -19.4045   12.3252  -18.1410 C   0  0  0  0  0  0  0  0  0  0  0  0
  -20.1161   12.2438  -16.9577 C   0  0  0  0  0  0  0  0  0  0  0  0
  -20.1663   11.3018  -15.9689 C   0  0  0  0  0  0  0  0  0  0  0  0
  -20.9941   11.5081  -14.8828 C   0  0  0  0  0  0  0  0  0  0  0  0
  -21.7605   12.6415  -14.7885 C   0  0  0  0  0  0  0  0  0  0  0  0
  -21.7202   13.5995  -15.7776 C   0  0  0  0  0  0  0  0  0  0  0  0
  -20.8978   13.3862  -16.8485 C   0  0  0  0  0  0  0  0  0  0  0  0
  -20.6832   14.1371  -17.9084 N   0  0  0  0  0  0  0  0  0  0  0  0
  -19.7983   13.5466  -18.7147 C   0  0  0  0  0  0  0  0  0  0  0  0
  -19.2765   13.9778  -19.9223 C   0  0  0  0  0  0  0  0  0  0  0  0
  -16.3720    9.0499  -19.6007 H   0  0  0  0  0  0  0  0  0  0  0  0
  -18.2314   16.1343  -16.6950 C   0  0  0  0  0  0  0  0  0  0  0  0
  -18.3107   17.0722  -17.7997 N   0  0  0  0  0  0  0  0  0  0  0  0
  -17.8175   16.6146  -18.5960 H   0  0  0  0  0  0  0  0  0  0  0  0
  -18.6996   17.7863  -20.1232 O   0  0  0  0  0  0  0  0  0  0  0  0
  -18.7663   19.0461  -20.7055 C   0  0  0  0  0  0  0  0  0  0  0  0
 33 34  1  0  0  0
 34  1  1  0  0  0
  1  2  1  0  0  0
  2  3  1  0  0  0
  3  4  1  0  0  0
  4  5  1  0  0  0
  5  6  1  0  0  0
  5  7  1  0  0  0
  7 36  1  0  0  0
 36 37  1  0  0  0
  5  8  1  0  0  0
  8  9  1  0  0  0
  9 10  2  0  0  0
 10 11  1  0  0  0
 11 12  2  0  0  0
 12 13  1  0  0  0
 13 14  2  0  0  0
 14 15  1  0  0  0
 15 16  2  0  0  0
 16 17  1  0  0  0
 17 18  1  0  0  0
 18 19  1  0  0  0
 19 20  2  0  0  0
 19 21  1  0  0  0
 21 22  2  0  0  0
 22 23  1  0  0  0
 23 24  2  0  0  0
 24 25  1  0  0  0
 25 26  2  0  0  0
 26 27  1  0  0  0
 27 28  2  0  0  0
 28 29  1  0  0  0
 29 30  1  0  0  0
 30 31  2  0  0  0
  7  1  1  0  0  0
 31  8  1  0  0  0
 29  3  1  0  0  0
 14  9  1  0  0  0
 31 15  1  0  0  0
 21 16  1  0  0  0
 30 22  1  0  0  0
 28 23  1  0  0  0
 34 35  1  0  0  0
 18 32  1  0  0  0
M  END
> <minimizedAffinity>
-9.73848

> <CNNscore>
0.4117953181

> <CNNaffinity>
6.6683044434

> <CNN_VS>
2.7459764481

> <CNNaffinity_variance>
0.2327299565

$$$$
[H]c1c([H])c([H])c2c(c1[H])c1c3c(c4c5c([H])c([H])c([H])c([H])c5n5c4c1n2[C@@]1(C([H])([H])[H])O[C@]5([H])C([H])([H])[C@@]([H])(N([H])C([H])([H])[H])[C@@]1([H])OC([H])([H])[H])C(=O)N([H])C3([H])[H]


 37 44  0  0  0  0  0  0  0  0999 V2000
  -21.1288   17.0148  -19.5916 C   0  0  0  0  0  0  0  0  0  0  0  0
  -19.8921   17.3974  -20.2754 C   0  0  0  0  0  0  0  0  0  0  0  0
  -18.6753   17.0888  -19.4964 C   0  0  0  0  0  0  0  0  0  0  0  0
  -18.7216   16.8017  -18.2235 O   0  0  0  0  0  0  0  0  0  0  0  0
  -19.7700   16.0919  -17.6444 C   0  0  0  0  0  0  0  0  0  0  0  0
  -19.5908   16.4738  -16.1691 C   0  0  0  0  0  0  0  0  0  0  0  0
  -21.0423   16.5900  -18.1527 C   0  0  0  0  0  0  0  0  0  0  0  0
  -19.5165   14.6567  -17.8619 N   0  0  0  0  0  0  0  0  0  0  0  0
  -19.9388   13.6322  -17.1233 C   0  0  0  0  0  0  0  0  0  0  0  0
  -20.7300   13.5529  -16.0112 C   0  0  0  0  0  0  0  0  0  0  0  0
  -21.0311   12.3453  -15.4221 C   0  0  0  0  0  0  0  0  0  0  0  0
  -20.5372   11.1440  -15.9401 C   0  0  0  0  0  0  0  0  0  0  0  0
  -19.7505   11.2179  -17.0460 C   0  0  0  0  0  0  0  0  0  0  0  0
  -19.4580   12.4250  -17.6233 C   0  0  0  0  0  0  0  0  0  0  0  0
  -18.7071   12.7422  -18.7243 C   0  0  0  0  0  0  0  0  0  0  0  0
  -17.9764   11.9797  -19.6382 C   0  0  0  0  0  0  0  0  0  0  0  0
  -17.7727   10.5145  -19.7065 C   0  0  0  0  0  0  0  0  0  0  0  0
  -16.9416   10.2596  -20.8364 N   0  0  0  0  0  0  0  0  0  0  0  0
  -16.6330   11.5130  -21.4551 C   0  0  0  0  0  0  0  0  0  0  0  0
  -15.9224   11.5682  -22.4606 O   0  0  0  0  0  0  0  0  0  0  0  0
  -17.2839   12.5650  -20.6971 C   0  0  0  0  0  0  0  0  0  0  0  0
  -17.3528   13.9358  -20.8040 C   0  0  0  0  0  0  0  0  0  0  0  0
  -16.8356   14.8632  -21.6903 C   0  0  0  0  0  0  0  0  0  0  0  0
  -16.0420   14.7462  -22.7967 C   0  0  0  0  0  0  0  0  0  0  0  0
  -15.6839   15.8841  -23.4927 C   0  0  0  0  0  0  0  0  0  0  0  0
  -16.1144   17.1212  -23.0864 C   0  0  0  0  0  0  0  0  0  0  0  0
  -16.9148   17.2544  -21.9732 C   0  0  0  0  0  0  0  0  0  0  0  0
  -17.2638   16.1224  -21.2910 C   0  0  0  0  0  0  0  0  0  0  0  0
  -18.0072   15.9839  -20.2133 N   0  0  0  0  0  0  0  0  0  0  0  0
  -18.0909   14.6944  -19.8789 C   0  0  0  0  0  0  0  0  0  0  0  0
  -18.7702   14.0941  -18.8326 C   0  0  0  0  0  0  0  0  0  0  0  0
  -16.6258    9.3084  -21.1395 H   0  0  0  0  0  0  0  0  0  0  0  0
  -22.7723   16.5576  -21.2797 C   0  0  0  0  0  0  0  0  0  0  0  0
  -21.7778   15.9625  -20.4063 N   0  0  0  0  0  0  0  0  0  0  0  0
  -21.0877   15.5000  -21.0360 H   0  0  0  0  0  0  0  0  0  0  0  0
  -22.1450   15.7564  -17.9809 O   0  0  0  0  0  0  0  0  0  0  0  0
  -23.0795   16.2626  -17.0859 C   0  0  0  0  0  0  0  0  0  0  0  0
 33 34  1  0  0  0
 34  1  1  0  0  0
  1  2  1  0  0  0
  2  3  1  0  0  0
  3  4  1  0  0  0
  4  5  1  0  0  0
  5  6  1  0  0  0
  5  7  1  0  0  0
  7 36  1  0  0  0
 36 37  1  0  0  0
  5  8  1  0  0  0
  8  9  1  0  0  0
  9 10  2  0  0  0
 10 11  1  0  0  0
 11 12  2  0  0  0
 12 13  1  0  0  0
 13 14  2  0  0  0
 14 15  1  0  0  0
 15 16  2  0  0  0
 16 17  1  0  0  0
 17 18  1  0  0  0
 18 19  1  0  0  0
 19 20  2  0  0  0
 19 21  1  0  0  0
 21 22  2  0  0  0
 22 23  1  0  0  0
 23 24  2  0  0  0
 24 25  1  0  0  0
 25 26  2  0  0  0
 26 27  1  0  0  0
 27 28  2  0  0  0
 28 29  1  0  0  0
 29 30  1  0  0  0
 30 31  2  0  0  0
  7  1  1  0  0  0
 31  8  1  0  0  0
 29  3  1  0  0  0
 14  9  1  0  0  0
 31 15  1  0  0  0
 21 16  1  0  0  0
 30 22  1  0  0  0
 28 23  1  0  0  0
 34 35  1  0  0  0
 18 32  1  0  0  0
M  END
> <minimizedAffinity>
-9.40698

> <CNNscore>
0.2117197812

> <CNNaffinity>
6.4104409218

> <CNN_VS>
1.3572171926

> <CNNaffinity_variance>
0.1029705778

$$$$
[H]c1c([H])c([H])c2c(c1[H])c1c3c(c4c5c([H])c([H])c([H])c([H])c5n5c4c1n2[C@@]1(C([H])([H])[H])O[C@]5([H])C([H])([H])[C@@]([H])(N([H])C([H])([H])[H])[C@@]1([H])OC([H])([H])[H])C(=O)N([H])C3([H])[H]


 37 44  0  0  0  0  0  0  0  0999 V2000
  -16.5455   16.9223  -23.0810 C   0  0  0  0  0  0  0  0  0  0  0  0
  -17.9057   17.4545  -22.9816 C   0  0  0  0  0  0  0  0  0  0  0  0
  -18.9478   16.4526  -23.2857 C   0  0  0  0  0  0  0  0  0  0  0  0
  -18.6708   15.3221  -23.8774 O   0  0  0  0  0  0  0  0  0  0  0  0
  -17.4834   14.6268  -23.6652 C   0  0  0  0  0  0  0  0  0  0  0  0
  -17.4549   13.7275  -24.9081 C   0  0  0  0  0  0  0  0  0  0  0  0
  -16.3597   15.5555  -23.6777 C   0  0  0  0  0  0  0  0  0  0  0  0
  -17.6396   13.8344  -22.4328 N   0  0  0  0  0  0  0  0  0  0  0  0
  -17.0136   12.7062  -22.1030 C   0  0  0  0  0  0  0  0  0  0  0  0
  -16.0490   11.9634  -22.7249 C   0  0  0  0  0  0  0  0  0  0  0  0
  -15.5500   10.8095  -22.1634 C   0  0  0  0  0  0  0  0  0  0  0  0
  -16.0119   10.3476  -20.9269 C   0  0  0  0  0  0  0  0  0  0  0  0
  -16.9706   11.0832  -20.3046 C   0  0  0  0  0  0  0  0  0  0  0  0
  -17.4593   12.2295  -20.8731 C   0  0  0  0  0  0  0  0  0  0  0  0
  -18.4037   13.1220  -20.4395 C   0  0  0  0  0  0  0  0  0  0  0  0
  -19.2016   13.1931  -19.2954 C   0  0  0  0  0  0  0  0  0  0  0  0
  -19.2821   12.2785  -18.1336 C   0  0  0  0  0  0  0  0  0  0  0  0
  -20.2589   12.8155  -17.2449 N   0  0  0  0  0  0  0  0  0  0  0  0
  -20.7742   14.0193  -17.8231 C   0  0  0  0  0  0  0  0  0  0  0  0
  -21.6402   14.6813  -17.2479 O   0  0  0  0  0  0  0  0  0  0  0  0
  -20.1058   14.2346  -19.0927 C   0  0  0  0  0  0  0  0  0  0  0  0
  -20.1778   15.1966  -20.0748 C   0  0  0  0  0  0  0  0  0  0  0  0
  -20.9122   16.3571  -20.2389 C   0  0  0  0  0  0  0  0  0  0  0  0
  -21.8607   16.9706  -19.4699 C   0  0  0  0  0  0  0  0  0  0  0  0
  -22.4269   18.1504  -19.9116 C   0  0  0  0  0  0  0  0  0  0  0  0
  -22.0484   18.7074  -21.1063 C   0  0  0  0  0  0  0  0  0  0  0  0
  -21.0936   18.1002  -21.8920 C   0  0  0  0  0  0  0  0  0  0  0  0
  -20.5392   16.9329  -21.4462 C   0  0  0  0  0  0  0  0  0  0  0  0
  -19.6218   16.1698  -22.0025 N   0  0  0  0  0  0  0  0  0  0  0  0
  -19.3704   15.1160  -21.2228 C   0  0  0  0  0  0  0  0  0  0  0  0
  -18.4799   14.0720  -21.4065 C   0  0  0  0  0  0  0  0  0  0  0  0
  -20.5334   12.3829  -16.3317 H   0  0  0  0  0  0  0  0  0  0  0  0
  -16.6750   17.9347  -20.9089 C   0  0  0  0  0  0  0  0  0  0  0  0
  -15.9455   16.9851  -21.7289 N   0  0  0  0  0  0  0  0  0  0  0  0
  -16.0281   16.0674  -21.2413 H   0  0  0  0  0  0  0  0  0  0  0  0
  -15.1738   15.0978  -23.1081 O   0  0  0  0  0  0  0  0  0  0  0  0
  -14.2121   14.7525  -24.0496 C   0  0  0  0  0  0  0  0  0  0  0  0
 33 34  1  0  0  0
 34  1  1  0  0  0
  1  2  1  0  0  0
  2  3  1  0  0  0
  3  4  1  0  0  0
  4  5  1  0  0  0
  5  6  1  0  0  0
  5  7  1  0  0  0
  7 36  1  0  0  0
 36 37  1  0  0  0
  5  8  1  0  0  0
  8  9  1  0  0  0
  9 10  2  0  0  0
 10 11  1  0  0  0
 11 12  2  0  0  0
 12 13  1  0  0  0
 13 14  2  0  0  0
 14 15  1  0  0  0
 15 16  2  0  0  0
 16 17  1  0  0  0
 17 18  1  0  0  0
 18 19  1  0  0  0
 19 20  2  0  0  0
 19 21  1  0  0  0
 21 22  2  0  0  0
 22 23  1  0  0  0
 23 24  2  0  0  0
 24 25  1  0  0  0
 25 26  2  0  0  0
 26 27  1  0  0  0
 27 28  2  0  0  0
 28 29  1  0  0  0
 29 30  1  0  0  0
 30 31  2  0  0  0
  7  1  1  0  0  0
 31  8  1  0  0  0
 29  3  1  0  0  0
 14  9  1  0  0  0
 31 15  1  0  0  0
 21 16  1  0  0  0
 30 22  1  0  0  0
 28 23  1  0  0  0
 34 35  1  0  0  0
 18 32  1  0  0  0
M  END
> <minimizedAffinity>
-10.32421

> <CNNscore>
0.2031079233

> <CNNaffinity>
6.1424956322

> <CNN_VS>
1.2475895882

> <CNNaffinity_variance>
0.9806245565

$$$$
[H]c1c([H])c([H])c2c(c1[H])c1c3c(c4c5c([H])c([H])c([H])c([H])c5n5c4c1n2[C@@]1(C([H])([H])[H])O[C@]5([H])C([H])([H])[C@@]([H])(N([H])C([H])([H])[H])[C@@]1([H])OC([H])([H])[H])C(=O)N([H])C3([H])[H]


 37 44  0  0  0  0  0  0  0  0999 V2000
  -18.4262   17.1667  -19.3028 C   0  0  0  0  0  0  0  0  0  0  0  0
  -19.6542   16.8327  -18.5791 C   0  0  0  0  0  0  0  0  0  0  0  0
  -20.5003   15.8509  -19.2881 C   0  0  0  0  0  0  0  0  0  0  0  0
  -20.3204   15.5634  -20.5490 O   0  0  0  0  0  0  0  0  0  0  0  0
  -19.0631   15.5277  -21.1461 C   0  0  0  0  0  0  0  0  0  0  0  0
  -19.4479   15.6554  -22.6260 C   0  0  0  0  0  0  0  0  0  0  0  0
  -18.2813   16.6812  -20.7176 C   0  0  0  0  0  0  0  0  0  0  0  0
  -18.4652   14.2120  -20.8585 N   0  0  0  0  0  0  0  0  0  0  0  0
  -17.5523   13.5567  -21.5731 C   0  0  0  0  0  0  0  0  0  0  0  0
  -16.8696   13.8669  -22.7162 C   0  0  0  0  0  0  0  0  0  0  0  0
  -15.9522   13.0013  -23.2686 C   0  0  0  0  0  0  0  0  0  0  0  0
  -15.6797   11.7626  -22.6796 C   0  0  0  0  0  0  0  0  0  0  0  0
  -16.3559   11.4500  -21.5427 C   0  0  0  0  0  0  0  0  0  0  0  0
  -17.2661   12.3194  -21.0025 C   0  0  0  0  0  0  0  0  0  0  0  0
  -18.0489   12.2276  -19.8821 C   0  0  0  0  0  0  0  0  0  0  0  0
  -18.2126   11.2432  -18.9051 C   0  0  0  0  0  0  0  0  0  0  0  0
  -17.5589    9.9216  -18.7676 C   0  0  0  0  0  0  0  0  0  0  0  0
  -18.0870    9.3137  -17.5912 N   0  0  0  0  0  0  0  0  0  0  0  0
  -19.0358   10.2147  -17.0109 C   0  0  0  0  0  0  0  0  0  0  0  0
  -19.6399    9.9232  -15.9768 O   0  0  0  0  0  0  0  0  0  0  0  0
  -19.0982   11.4034  -17.8405 C   0  0  0  0  0  0  0  0  0  0  0  0
  -19.8080   12.5819  -17.7930 C   0  0  0  0  0  0  0  0  0  0  0  0
  -20.7427   13.1129  -16.9227 C   0  0  0  0  0  0  0  0  0  0  0  0
  -21.3175   12.6385  -15.7771 C   0  0  0  0  0  0  0  0  0  0  0  0
  -22.2414   13.4210  -15.1126 C   0  0  0  0  0  0  0  0  0  0  0  0
  -22.5846   14.6605  -15.5886 C   0  0  0  0  0  0  0  0  0  0  0  0
  -22.0134   15.1516  -16.7419 C   0  0  0  0  0  0  0  0  0  0  0  0
  -21.1002   14.3697  -17.3925 C   0  0  0  0  0  0  0  0  0  0  0  0
  -20.4233   14.6065  -18.4966 N   0  0  0  0  0  0  0  0  0  0  0  0
  -19.6361   13.5667  -18.7814 C   0  0  0  0  0  0  0  0  0  0  0  0
  -18.7530   13.3875  -19.8324 C   0  0  0  0  0  0  0  0  0  0  0  0
  -17.8106    8.3685  -17.2352 H   0  0  0  0  0  0  0  0  0  0  0  0
  -17.7712   16.1987  -17.2067 C   0  0  0  0  0  0  0  0  0  0  0  0
  -17.2866   16.7078  -18.4764 N   0  0  0  0  0  0  0  0  0  0  0  0
  -16.7931   15.9104  -18.9318 H   0  0  0  0  0  0  0  0  0  0  0  0
  -16.9036   16.5978  -20.9056 O   0  0  0  0  0  0  0  0  0  0  0  0
  -16.4315   17.4638  -21.8842 C   0  0  0  0  0  0  0  0  0  0  0  0
 33 34  1  0  0  0
 34  1  1  0  0  0
  1  2  1  0  0  0
  2  3  1  0  0  0
  3  4  1  0  0  0
  4  5  1  0  0  0
  5  6  1  0  0  0
  5  7  1  0  0  0
  7 36  1  0  0  0
 36 37  1  0  0  0
  5  8  1  0  0  0
  8  9  1  0  0  0
  9 10  2  0  0  0
 10 11  1  0  0  0
 11 12  2  0  0  0
 12 13  1  0  0  0
 13 14  2  0  0  0
 14 15  1  0  0  0
 15 16  2  0  0  0
 16 17  1  0  0  0
 17 18  1  0  0  0
 18 19  1  0  0  0
 19 20  2  0  0  0
 19 21  1  0  0  0
 21 22  2  0  0  0
 22 23  1  0  0  0
 23 24  2  0  0  0
 24 25  1  0  0  0
 25 26  2  0  0  0
 26 27  1  0  0  0
 27 28  2  0  0  0
 28 29  1  0  0  0
 29 30  1  0  0  0
 30 31  2  0  0  0
  7  1  1  0  0  0
 31  8  1  0  0  0
 29  3  1  0  0  0
 14  9  1  0  0  0
 31 15  1  0  0  0
 21 16  1  0  0  0
 30 22  1  0  0  0
 28 23  1  0  0  0
 34 35  1  0  0  0
 18 32  1  0  0  0
M  END
> <minimizedAffinity>
-9.34097

> <CNNscore>
0.2008534074

> <CNNaffinity>
6.4794378281

> <CNN_VS>
1.3014171124

> <CNNaffinity_variance>
0.2221432030

$$$$
[H]c1c([H])c([H])c2c(c1[H])c1c3c(c4c5c([H])c([H])c([H])c([H])c5n5c4c1n2[C@@]1(C([H])([H])[H])O[C@]5([H])C([H])([H])[C@@]([H])(N([H])C([H])([H])[H])[C@@]1([H])OC([H])([H])[H])C(=O)N([H])C3([H])[H]


 37 44  0  0  0  0  0  0  0  0999 V2000
  -19.6113   16.1230  -17.2633 C   0  0  0  0  0  0  0  0  0  0  0  0
  -19.5428   14.6614  -17.3097 C   0  0  0  0  0  0  0  0  0  0  0  0
  -20.3222   14.0758  -18.4197 C   0  0  0  0  0  0  0  0  0  0  0  0
  -21.2139   14.7646  -19.0794 O   0  0  0  0  0  0  0  0  0  0  0  0
  -21.0745   16.1235  -19.3488 C   0  0  0  0  0  0  0  0  0  0  0  0
  -22.5297   16.5034  -19.6530 C   0  0  0  0  0  0  0  0  0  0  0  0
  -20.6017   16.8161  -18.1563 C   0  0  0  0  0  0  0  0  0  0  0  0
  -20.2229   16.2607  -20.5434 N   0  0  0  0  0  0  0  0  0  0  0  0
  -20.2059   17.2604  -21.4231 C   0  0  0  0  0  0  0  0  0  0  0  0
  -20.8906   18.4412  -21.5005 C   0  0  0  0  0  0  0  0  0  0  0  0
  -20.6861   19.3299  -22.5321 C   0  0  0  0  0  0  0  0  0  0  0  0
  -19.7645   19.0597  -23.5485 C   0  0  0  0  0  0  0  0  0  0  0  0
  -19.0810   17.8870  -23.4755 C   0  0  0  0  0  0  0  0  0  0  0  0
  -19.2930   17.0109  -22.4443 C   0  0  0  0  0  0  0  0  0  0  0  0
  -18.7292   15.7950  -22.1609 C   0  0  0  0  0  0  0  0  0  0  0  0
  -17.7628   15.0144  -22.7992 C   0  0  0  0  0  0  0  0  0  0  0  0
  -17.0069   15.2686  -24.0470 C   0  0  0  0  0  0  0  0  0  0  0  0
  -16.1463   14.1504  -24.2503 N   0  0  0  0  0  0  0  0  0  0  0  0
  -16.3517   13.2281  -23.1751 C   0  0  0  0  0  0  0  0  0  0  0  0
  -15.7229   12.1696  -23.1160 O   0  0  0  0  0  0  0  0  0  0  0  0
  -17.3568   13.7827  -22.2879 C   0  0  0  0  0  0  0  0  0  0  0  0
  -17.9526   13.3671  -21.1185 C   0  0  0  0  0  0  0  0  0  0  0  0
  -17.8213   12.2527  -20.3098 C   0  0  0  0  0  0  0  0  0  0  0  0
  -17.0415   11.1335  -20.3930 C   0  0  0  0  0  0  0  0  0  0  0  0
  -17.1360   10.1713  -19.4067 C   0  0  0  0  0  0  0  0  0  0  0  0
  -17.9991   10.3280  -18.3525 C   0  0  0  0  0  0  0  0  0  0  0  0
  -18.7912   11.4508  -18.2555 C   0  0  0  0  0  0  0  0  0  0  0  0
  -18.6904   12.3974  -19.2366 C   0  0  0  0  0  0  0  0  0  0  0  0
  -19.3282   13.5411  -19.3721 N   0  0  0  0  0  0  0  0  0  0  0  0
  -18.9244   14.1601  -20.4837 C   0  0  0  0  0  0  0  0  0  0  0  0
  -19.3158   15.3798  -21.0090 C   0  0  0  0  0  0  0  0  0  0  0  0
  -15.4866   14.0469  -25.0569 H   0  0  0  0  0  0  0  0  0  0  0  0
  -17.3036   15.5346  -17.5599 C   0  0  0  0  0  0  0  0  0  0  0  0
  -18.2444   16.6383  -17.5045 N   0  0  0  0  0  0  0  0  0  0  0  0
  -18.1822   17.1107  -18.4317 H   0  0  0  0  0  0  0  0  0  0  0  0
  -20.0500   18.0798  -18.3541 O   0  0  0  0  0  0  0  0  0  0  0  0
  -20.7941   19.0988  -17.7724 C   0  0  0  0  0  0  0  0  0  0  0  0
 33 34  1  0  0  0
 34  1  1  0  0  0
  1  2  1  0  0  0
  2  3  1  0  0  0
  3  4  1  0  0  0
  4  5  1  0  0  0
  5  6  1  0  0  0
  5  7  1  0  0  0
  7 36  1  0  0  0
 36 37  1  0  0  0
  5  8  1  0  0  0
  8  9  1  0  0  0
  9 10  2  0  0  0
 10 11  1  0  0  0
 11 12  2  0  0  0
 12 13  1  0  0  0
 13 14  2  0  0  0
 14 15  1  0  0  0
 15 16  2  0  0  0
 16 17  1  0  0  0
 17 18  1  0  0  0
 18 19  1  0  0  0
 19 20  2  0  0  0
 19 21  1  0  0  0
 21 22  2  0  0  0
 22 23  1  0  0  0
 23 24  2  0  0  0
 24 25  1  0  0  0
 25 26  2  0  0  0
 26 27  1  0  0  0
 27 28  2  0  0  0
 28 29  1  0  0  0
 29 30  1  0  0  0
 30 31  2  0  0  0
  7  1  1  0  0  0
 31  8  1  0  0  0
 29  3  1  0  0  0
 14  9  1  0  0  0
 31 15  1  0  0  0
 21 16  1  0  0  0
 30 22  1  0  0  0
 28 23  1  0  0  0
 34 35  1  0  0  0
 18 32  1  0  0  0
M  END
> <minimizedAffinity>
-9.75370

> <CNNscore>
0.1832960099

> <CNNaffinity>
6.4515457153

> <CNN_VS>
1.1825425625

> <CNNaffinity_variance>
0.1605313122

$$$$
[H]c1c([H])c([H])c2c(c1[H])c1c3c(c4c5c([H])c([H])c([H])c([H])c5n5c4c1n2[C@@]1(C([H])([H])[H])O[C@]5([H])C([H])([H])[C@@]([H])(N([H])C([H])([H])[H])[C@@]1([H])OC([H])([H])[H])C(=O)N([H])C3([H])[H]


 37 44  0  0  0  0  0  0  0  0999 V2000
  -16.6608   15.1013  -22.5370 C   0  0  0  0  0  0  0  0  0  0  0  0
  -17.4276   16.2348  -23.0572 C   0  0  0  0  0  0  0  0  0  0  0  0
  -18.8682   16.1599  -22.7385 C   0  0  0  0  0  0  0  0  0  0  0  0
  -19.4289   15.0578  -22.3191 O   0  0  0  0  0  0  0  0  0  0  0  0
  -18.7788   14.1428  -21.4954 C   0  0  0  0  0  0  0  0  0  0  0  0
  -19.6334   12.8905  -21.7321 C   0  0  0  0  0  0  0  0  0  0  0  0
  -17.4170   13.9323  -21.9712 C   0  0  0  0  0  0  0  0  0  0  0  0
  -18.9004   14.6211  -20.1070 N   0  0  0  0  0  0  0  0  0  0  0  0
  -18.8777   13.8972  -18.9894 C   0  0  0  0  0  0  0  0  0  0  0  0
  -18.7057   12.5620  -18.7511 C   0  0  0  0  0  0  0  0  0  0  0  0
  -18.7194   12.0473  -17.4740 C   0  0  0  0  0  0  0  0  0  0  0  0
  -18.9108   12.8738  -16.3624 C   0  0  0  0  0  0  0  0  0  0  0  0
  -19.0818   14.2021  -16.5944 C   0  0  0  0  0  0  0  0  0  0  0  0
  -19.0661   14.7025  -17.8694 C   0  0  0  0  0  0  0  0  0  0  0  0
  -19.2077   15.9810  -18.3404 C   0  0  0  0  0  0  0  0  0  0  0  0
  -19.4205   17.2134  -17.7189 C   0  0  0  0  0  0  0  0  0  0  0  0
  -19.5688   17.5413  -16.2824 C   0  0  0  0  0  0  0  0  0  0  0  0
  -19.7678   18.9501  -16.1929 N   0  0  0  0  0  0  0  0  0  0  0  0
  -19.7468   19.4887  -17.5189 C   0  0  0  0  0  0  0  0  0  0  0  0
  -19.8981   20.6957  -17.7178 O   0  0  0  0  0  0  0  0  0  0  0  0
  -19.5305   18.3961  -18.4486 C   0  0  0  0  0  0  0  0  0  0  0  0
  -19.4183   18.2960  -19.8170 C   0  0  0  0  0  0  0  0  0  0  0  0
  -19.4549   19.2051  -20.8588 C   0  0  0  0  0  0  0  0  0  0  0  0
  -19.6319   20.5595  -20.9017 C   0  0  0  0  0  0  0  0  0  0  0  0
  -19.6180   21.2028  -22.1238 C   0  0  0  0  0  0  0  0  0  0  0  0
  -19.4296   20.4996  -23.2861 C   0  0  0  0  0  0  0  0  0  0  0  0
  -19.2500   19.1341  -23.2582 C   0  0  0  0  0  0  0  0  0  0  0  0
  -19.2653   18.5066  -22.0438 C   0  0  0  0  0  0  0  0  0  0  0  0
  -19.1192   17.2308  -21.7531 N   0  0  0  0  0  0  0  0  0  0  0  0
  -19.2043   17.0508  -20.4331 C   0  0  0  0  0  0  0  0  0  0  0  0
  -19.1001   15.8870  -19.6906 C   0  0  0  0  0  0  0  0  0  0  0  0
  -19.9036   19.4755  -15.2974 H   0  0  0  0  0  0  0  0  0  0  0  0
  -15.8771   17.0688  -21.4081 C   0  0  0  0  0  0  0  0  0  0  0  0
  -15.7046   15.6339  -21.5399 N   0  0  0  0  0  0  0  0  0  0  0  0
  -15.8929   15.2377  -20.5942 H   0  0  0  0  0  0  0  0  0  0  0  0
  -16.5267   13.3630  -21.0636 O   0  0  0  0  0  0  0  0  0  0  0  0
  -16.2576   12.0255  -21.3268 C   0  0  0  0  0  0  0  0  0  0  0  0
 33 34  1  0  0  0
 34  1  1  0  0  0
  1  2  1  0  0  0
  2  3  1  0  0  0
  3  4  1  0  0  0
  4  5  1  0  0  0
  5  6  1  0  0  0
  5  7  1  0  0  0
  7 36  1  0  0  0
 36 37  1  0  0  0
  5  8  1  0  0  0
  8  9  1  0  0  0
  9 10  2  0  0  0
 10 11  1  0  0  0
 11 12  2  0  0  0
 12 13  1  0  0  0
 13 14  2  0  0  0
 14 15  1  0  0  0
 15 16  2  0  0  0
 16 17  1  0  0  0
 17 18  1  0  0  0
 18 19  1  0  0  0
 19 20  2  0  0  0
 19 21  1  0  0  0
 21 22  2  0  0  0
 22 23  1  0  0  0
 23 24  2  0  0  0
 24 25  1  0  0  0
 25 26  2  0  0  0
 26 27  1  0  0  0
 27 28  2  0  0  0
 28 29  1  0  0  0
 29 30  1  0  0  0
 30 31  2  0  0  0
  7  1  1  0  0  0
 31  8  1  0  0  0
 29  3  1  0  0  0
 14  9  1  0  0  0
 31 15  1  0  0  0
 21 16  1  0  0  0
 30 22  1  0  0  0
 28 23  1  0  0  0
 34 35  1  0  0  0
 18 32  1  0  0  0
M  END
> <minimizedAffinity>
-3.34577

> <CNNscore>
0.1739896685

> <CNNaffinity>
6.1618976593

> <CNN_VS>
1.0721064806

> <CNNaffinity_variance>
0.3530353308

$$$$
[H]c1c([H])c([H])c2c(c1[H])c1c3c(c4c5c([H])c([H])c([H])c([H])c5n5c4c1n2[C@@]1(C([H])([H])[H])O[C@]5([H])C([H])([H])[C@@]([H])(N([H])C([H])([H])[H])[C@@]1([H])OC([H])([H])[H])C(=O)N([H])C3([H])[H]


 37 44  0  0  0  0  0  0  0  0999 V2000
  -19.2551    7.0324  -15.4700 C   0  0  0  0  0  0  0  0  0  0  0  0
  -18.8567    6.9625  -14.0630 C   0  0  0  0  0  0  0  0  0  0  0  0
  -18.2160    8.2013  -13.5758 C   0  0  0  0  0  0  0  0  0  0  0  0
  -17.7776    9.1218  -14.3914 O   0  0  0  0  0  0  0  0  0  0  0  0
  -18.4081    9.4319  -15.5934 C   0  0  0  0  0  0  0  0  0  0  0  0
  -17.2694   10.1436  -16.3360 C   0  0  0  0  0  0  0  0  0  0  0  0
  -18.7829    8.2040  -16.2842 C   0  0  0  0  0  0  0  0  0  0  0  0
  -19.5155   10.3572  -15.2955 N   0  0  0  0  0  0  0  0  0  0  0  0
  -20.0622   11.2629  -16.1044 C   0  0  0  0  0  0  0  0  0  0  0  0
  -19.8346   11.6004  -17.4095 C   0  0  0  0  0  0  0  0  0  0  0  0
  -20.5532   12.5939  -18.0359 C   0  0  0  0  0  0  0  0  0  0  0  0
  -21.5510   13.3023  -17.3590 C   0  0  0  0  0  0  0  0  0  0  0  0
  -21.7812   12.9699  -16.0613 C   0  0  0  0  0  0  0  0  0  0  0  0
  -21.0598   11.9796  -15.4489 C   0  0  0  0  0  0  0  0  0  0  0  0
  -21.1166   11.4748  -14.1767 C   0  0  0  0  0  0  0  0  0  0  0  0
  -21.9010   11.7745  -13.0607 C   0  0  0  0  0  0  0  0  0  0  0  0
  -22.9710   12.7843  -12.8936 C   0  0  0  0  0  0  0  0  0  0  0  0
  -23.4465   12.6728  -11.5542 N   0  0  0  0  0  0  0  0  0  0  0  0
  -22.7059   11.6355  -10.9029 C   0  0  0  0  0  0  0  0  0  0  0  0
  -22.9261   11.3388   -9.7270 O   0  0  0  0  0  0  0  0  0  0  0  0
  -21.7541   11.0925  -11.8538 C   0  0  0  0  0  0  0  0  0  0  0  0
  -20.7971   10.1039  -11.8097 C   0  0  0  0  0  0  0  0  0  0  0  0
  -20.3661    9.2185  -10.8384 C   0  0  0  0  0  0  0  0  0  0  0  0
  -20.7388    9.0135   -9.5397 C   0  0  0  0  0  0  0  0  0  0  0  0
  -20.1079    8.0288   -8.8048 C   0  0  0  0  0  0  0  0  0  0  0  0
  -19.1181    7.2608   -9.3628 C   0  0  0  0  0  0  0  0  0  0  0  0
  -18.7321    7.4562  -10.6706 C   0  0  0  0  0  0  0  0  0  0  0  0
  -19.3624    8.4331  -11.3896 C   0  0  0  0  0  0  0  0  0  0  0  0
  -19.1796    8.8112  -12.6374 N   0  0  0  0  0  0  0  0  0  0  0  0
  -20.0126    9.8099  -12.9386 C   0  0  0  0  0  0  0  0  0  0  0  0
  -20.1723   10.5004  -14.1278 C   0  0  0  0  0  0  0  0  0  0  0  0
  -24.2085   13.2617  -11.1430 H   0  0  0  0  0  0  0  0  0  0  0  0
  -21.3042    7.4643  -14.2976 C   0  0  0  0  0  0  0  0  0  0  0  0
  -20.7311    6.9271  -15.5179 N   0  0  0  0  0  0  0  0  0  0  0  0
  -21.1211    7.5053  -16.2928 H   0  0  0  0  0  0  0  0  0  0  0  0
  -19.7434    8.3272  -17.2854 O   0  0  0  0  0  0  0  0  0  0  0  0
  -20.9809    7.8095  -16.9232 C   0  0  0  0  0  0  0  0  0  0  0  0
 33 34  1  0  0  0
 34  1  1  0  0  0
  1  2  1  0  0  0
  2  3  1  0  0  0
  3  4  1  0  0  0
  4  5  1  0  0  0
  5  6  1  0  0  0
  5  7  1  0  0  0
  7 36  1  0  0  0
 36 37  1  0  0  0
  5  8  1  0  0  0
  8  9  1  0  0  0
  9 10  2  0  0  0
 10 11  1  0  0  0
 11 12  2  0  0  0
 12 13  1  0  0  0
 13 14  2  0  0  0
 14 15  1  0  0  0
 15 16  2  0  0  0
 16 17  1  0  0  0
 17 18  1  0  0  0
 18 19  1  0  0  0
 19 20  2  0  0  0
 19 21  1  0  0  0
 21 22  2  0  0  0
 22 23  1  0  0  0
 23 24  2  0  0  0
 24 25  1  0  0  0
 25 26  2  0  0  0
 26 27  1  0  0  0
 27 28  2  0  0  0
 28 29  1  0  0  0
 29 30  1  0  0  0
 30 31  2  0  0  0
  7  1  1  0  0  0
 31  8  1  0  0  0
 29  3  1  0  0  0
 14  9  1  0  0  0
 31 15  1  0  0  0
 21 16  1  0  0  0
 30 22  1  0  0  0
 28 23  1  0  0  0
 34 35  1  0  0  0
 18 32  1  0  0  0
M  END
> <minimizedAffinity>
7.13044

> <CNNscore>
0.1295832694

> <CNNaffinity>
5.2349739075

> <CNN_VS>
0.6783650517

> <CNNaffinity_variance>
0.2896546721

$$$$
[H]N=C(N([H])[H])N([H])C([H])([H])C([H])([H])C([H])([H])[C@]1([H])N([H])C(=O)[C@@]2([H])N(C(=O)[C@@]3([H])N1C([H])([H])C([H])([H])C3([H])[H])C([H])([H])C([H])([H])C2([H])[H]


 28 30  0  0  0  0  0  0  0  0999 V2000
  -16.7665   13.2998  -22.2589 C   0  0  0  0  0  0  0  0  0  0  0  0
  -17.1392   11.9497  -21.9735 N   0  0  0  0  0  0  0  0  0  0  0  0
  -17.1027   11.1994  -20.7342 C   0  0  0  0  0  0  0  0  0  0  0  0
  -17.1362    9.9614  -20.8776 O   0  0  0  0  0  0  0  0  0  0  0  0
  -17.0330   11.6034  -19.3097 C   0  0  0  0  0  0  0  0  0  0  0  0
  -17.2782   10.4689  -18.3730 C   0  0  0  0  0  0  0  0  0  0  0  0
  -18.7395   10.6098  -18.0146 C   0  0  0  0  0  0  0  0  0  0  0  0
  -18.8900   12.1368  -17.9739 C   0  0  0  0  0  0  0  0  0  0  0  0
  -18.0164   12.6230  -19.0160 N   0  0  0  0  0  0  0  0  0  0  0  0
  -18.2639   13.9161  -19.5261 C   0  0  0  0  0  0  0  0  0  0  0  0
  -19.1825   14.5576  -18.9439 O   0  0  0  0  0  0  0  0  0  0  0  0
  -17.6753   14.7235  -20.6253 C   0  0  0  0  0  0  0  0  0  0  0  0
  -18.1891   16.1156  -20.7108 C   0  0  0  0  0  0  0  0  0  0  0  0
  -17.8566   16.4790  -22.1711 C   0  0  0  0  0  0  0  0  0  0  0  0
  -18.3007   15.1393  -22.8134 C   0  0  0  0  0  0  0  0  0  0  0  0
  -17.8887   14.1495  -21.9106 N   0  0  0  0  0  0  0  0  0  0  0  0
  -17.5305   11.3600  -22.7128 H   0  0  0  0  0  0  0  0  0  0  0  0
  -16.2219   13.5371  -23.6162 C   0  0  0  0  0  0  0  0  0  0  0  0
  -14.7882   13.8908  -23.7200 C   0  0  0  0  0  0  0  0  0  0  0  0
  -14.4266   14.8643  -24.7799 C   0  0  0  0  0  0  0  0  0  0  0  0
  -14.9238   16.2048  -24.4796 N   0  0  0  0  0  0  0  0  0  0  0  0
  -14.5979   16.7150  -23.6517 H   0  0  0  0  0  0  0  0  0  0  0  0
  -16.0943   16.1503  -26.6442 N   0  0  0  0  0  0  0  0  0  0  0  0
  -15.8678   16.7766  -25.3659 C   0  0  0  0  0  0  0  0  0  0  0  0
  -16.5476   17.8263  -25.1099 N   0  0  0  0  0  0  0  0  0  0  0  0
  -15.4158   16.2697  -27.4041 H   0  0  0  0  0  0  0  0  0  0  0  0
  -16.9390   15.5820  -26.7903 H   0  0  0  0  0  0  0  0  0  0  0  0
  -16.5073   18.3918  -24.2479 H   0  0  0  0  0  0  0  0  0  0  0  0
 23 24  1  0  0  0
 24 25  2  0  0  0
 24 21  1  0  0  0
 21 20  1  0  0  0
 20 19  1  0  0  0
 19 18  1  0  0  0
 18  1  1  0  0  0
  1  2  1  0  0  0
  2  3  1  0  0  0
  3  4  2  0  0  0
  3  5  1  0  0  0
  5  6  1  0  0  0
  6  7  1  0  0  0
  7  8  1  0  0  0
  8  9  1  0  0  0
  9 10  1  0  0  0
 10 11  2  0  0  0
 10 12  1  0  0  0
 12 13  1  0  0  0
 13 14  1  0  0  0
 14 15  1  0  0  0
 15 16  1  0  0  0
 16  1  1  0  0  0
  9  5  1  0  0  0
 16 12  1  0  0  0
 23 26  1  0  0  0
 23 27  1  0  0  0
 25 28  1  0  0  0
 21 22  1  0  0  0
  2 17  1  0  0  0
M  END
> <minimizedAffinity>
-7.67786

> <CNNscore>
0.6999689937

> <CNNaffinity>
6.6175909042

> <CNN_VS>
4.6321082115

> <CNNaffinity_variance>
0.1399892569

$$$$
[H]N=C(N([H])[H])N([H])C([H])([H])C([H])([H])C([H])([H])[C@]1([H])N([H])C(=O)[C@@]2([H])N(C(=O)[C@@]3([H])N1C([H])([H])C([H])([H])C3([H])[H])C([H])([H])C([H])([H])C2([H])[H]


 28 30  0  0  0  0  0  0  0  0999 V2000
  -18.2039   11.0656  -18.5732 C   0  0  0  0  0  0  0  0  0  0  0  0
  -17.0097   11.1964  -19.3478 N   0  0  0  0  0  0  0  0  0  0  0  0
  -16.8214   11.4805  -20.7562 C   0  0  0  0  0  0  0  0  0  0  0  0
  -15.7004   11.1662  -21.2022 O   0  0  0  0  0  0  0  0  0  0  0  0
  -17.6973   12.0764  -21.7932 C   0  0  0  0  0  0  0  0  0  0  0  0
  -16.9664   12.4017  -23.0519 C   0  0  0  0  0  0  0  0  0  0  0  0
  -16.6570   13.8747  -22.9159 C   0  0  0  0  0  0  0  0  0  0  0  0
  -17.9184   14.3789  -22.2014 C   0  0  0  0  0  0  0  0  0  0  0  0
  -18.2976   13.3030  -21.3158 N   0  0  0  0  0  0  0  0  0  0  0  0
  -19.1273   13.6211  -20.2186 C   0  0  0  0  0  0  0  0  0  0  0  0
  -19.5315   14.8166  -20.1782 O   0  0  0  0  0  0  0  0  0  0  0  0
  -19.6521   12.8504  -19.0622 C   0  0  0  0  0  0  0  0  0  0  0  0
  -20.6152   13.5961  -18.2106 C   0  0  0  0  0  0  0  0  0  0  0  0
  -20.5354   12.8068  -16.8892 C   0  0  0  0  0  0  0  0  0  0  0  0
  -18.9946   12.6361  -16.8546 C   0  0  0  0  0  0  0  0  0  0  0  0
  -18.6256   12.3978  -18.1856 N   0  0  0  0  0  0  0  0  0  0  0  0
  -16.0953   11.1145  -18.8955 H   0  0  0  0  0  0  0  0  0  0  0  0
  -18.1336   10.0995  -17.4521 C   0  0  0  0  0  0  0  0  0  0  0  0
  -19.2356    9.1184  -17.3317 C   0  0  0  0  0  0  0  0  0  0  0  0
  -19.4300    8.5097  -15.9924 C   0  0  0  0  0  0  0  0  0  0  0  0
  -19.8512    9.4979  -15.0021 N   0  0  0  0  0  0  0  0  0  0  0  0
  -20.5606   10.2028  -15.2292 H   0  0  0  0  0  0  0  0  0  0  0  0
  -18.7457    8.1933  -13.2315 N   0  0  0  0  0  0  0  0  0  0  0  0
  -19.2504    9.4516  -13.7212 C   0  0  0  0  0  0  0  0  0  0  0  0
  -19.1190   10.4632  -12.9538 N   0  0  0  0  0  0  0  0  0  0  0  0
  -19.3931    7.4822  -12.8745 H   0  0  0  0  0  0  0  0  0  0  0  0
  -17.7336    8.0115  -13.2429 H   0  0  0  0  0  0  0  0  0  0  0  0
  -19.4232   11.4293  -13.1499 H   0  0  0  0  0  0  0  0  0  0  0  0
 23 24  1  0  0  0
 24 25  2  0  0  0
 24 21  1  0  0  0
 21 20  1  0  0  0
 20 19  1  0  0  0
 19 18  1  0  0  0
 18  1  1  0  0  0
  1  2  1  0  0  0
  2  3  1  0  0  0
  3  4  2  0  0  0
  3  5  1  0  0  0
  5  6  1  0  0  0
  6  7  1  0  0  0
  7  8  1  0  0  0
  8  9  1  0  0  0
  9 10  1  0  0  0
 10 11  2  0  0  0
 10 12  1  0  0  0
 12 13  1  0  0  0
 13 14  1  0  0  0
 14 15  1  0  0  0
 15 16  1  0  0  0
 16  1  1  0  0  0
  9  5  1  0  0  0
 16 12  1  0  0  0
 23 26  1  0  0  0
 23 27  1  0  0  0
 25 28  1  0  0  0
 21 22  1  0  0  0
  2 17  1  0  0  0
M  END
> <minimizedAffinity>
-6.00868

> <CNNscore>
0.5828292370

> <CNNaffinity>
5.9219193459

> <CNN_VS>
3.4514677525

> <CNNaffinity_variance>
0.2347581387

$$$$
[H]N=C(N([H])[H])N([H])C([H])([H])C([H])([H])C([H])([H])[C@]1([H])N([H])C(=O)[C@@]2([H])N(C(=O)[C@@]3([H])N1C([H])([H])C([H])([H])C3([H])[H])C([H])([H])C([H])([H])C2([H])[H]


 28 30  0  0  0  0  0  0  0  0999 V2000
  -18.9460   12.8096  -18.2510 C   0  0  0  0  0  0  0  0  0  0  0  0
  -17.7067   12.1032  -18.1606 N   0  0  0  0  0  0  0  0  0  0  0  0
  -17.0817   11.1674  -19.0737 C   0  0  0  0  0  0  0  0  0  0  0  0
  -16.2030   10.4491  -18.5575 O   0  0  0  0  0  0  0  0  0  0  0  0
  -17.2721   10.8819  -20.5158 C   0  0  0  0  0  0  0  0  0  0  0  0
  -16.2091    9.9991  -21.0771 C   0  0  0  0  0  0  0  0  0  0  0  0
  -15.2421   10.9667  -21.7192 C   0  0  0  0  0  0  0  0  0  0  0  0
  -16.2043   12.0316  -22.2637 C   0  0  0  0  0  0  0  0  0  0  0  0
  -17.2656   12.1058  -21.2872 N   0  0  0  0  0  0  0  0  0  0  0  0
  -18.0502   13.2794  -21.2622 C   0  0  0  0  0  0  0  0  0  0  0  0
  -17.7950   14.1168  -22.1721 O   0  0  0  0  0  0  0  0  0  0  0  0
  -19.1419   13.7742  -20.3848 C   0  0  0  0  0  0  0  0  0  0  0  0
  -19.7658   15.0459  -20.8348 C   0  0  0  0  0  0  0  0  0  0  0  0
  -20.4013   15.5583  -19.5276 C   0  0  0  0  0  0  0  0  0  0  0  0
  -19.2117   15.2305  -18.5886 C   0  0  0  0  0  0  0  0  0  0  0  0
  -18.7168   14.0011  -19.0451 N   0  0  0  0  0  0  0  0  0  0  0  0
  -17.0906   12.2520  -17.3570 H   0  0  0  0  0  0  0  0  0  0  0  0
  -19.6321   13.0601  -16.9620 C   0  0  0  0  0  0  0  0  0  0  0  0
  -20.6053   12.0436  -16.5024 C   0  0  0  0  0  0  0  0  0  0  0  0
  -20.0722   10.9738  -15.6230 C   0  0  0  0  0  0  0  0  0  0  0  0
  -19.8627    9.7250  -16.3518 N   0  0  0  0  0  0  0  0  0  0  0  0
  -20.4370    9.4879  -17.1678 H   0  0  0  0  0  0  0  0  0  0  0  0
  -18.9200    8.3295  -14.5566 N   0  0  0  0  0  0  0  0  0  0  0  0
  -18.8437    8.8540  -15.8970 C   0  0  0  0  0  0  0  0  0  0  0  0
  -17.8433    8.4909  -16.6020 N   0  0  0  0  0  0  0  0  0  0  0  0
  -18.6717    8.9215  -13.7566 H   0  0  0  0  0  0  0  0  0  0  0  0
  -19.2258    7.3592  -14.4062 H   0  0  0  0  0  0  0  0  0  0  0  0
  -17.6393    8.7720  -17.5734 H   0  0  0  0  0  0  0  0  0  0  0  0
 23 24  1  0  0  0
 24 25  2  0  0  0
 24 21  1  0  0  0
 21 20  1  0  0  0
 20 19  1  0  0  0
 19 18  1  0  0  0
 18  1  1  0  0  0
  1  2  1  0  0  0
  2  3  1  0  0  0
  3  4  2  0  0  0
  3  5  1  0  0  0
  5  6  1  0  0  0
  6  7  1  0  0  0
  7  8  1  0  0  0
  8  9  1  0  0  0
  9 10  1  0  0  0
 10 11  2  0  0  0
 10 12  1  0  0  0
 12 13  1  0  0  0
 13 14  1  0  0  0
 14 15  1  0  0  0
 15 16  1  0  0  0
 16  1  1  0  0  0
  9  5  1  0  0  0
 16 12  1  0  0  0
 23 26  1  0  0  0
 23 27  1  0  0  0
 25 28  1  0  0  0
 21 22  1  0  0  0
  2 17  1  0  0  0
M  END
> <minimizedAffinity>
-6.61458

> <CNNscore>
0.5140935779

> <CNNaffinity>
5.7776865959

> <CNN_VS>
2.9702715874

> <CNNaffinity_variance>
0.0592541695

$$$$
[H]N=C(N([H])[H])N([H])C([H])([H])C([H])([H])C([H])([H])[C@]1([H])N([H])C(=O)[C@@]2([H])N(C(=O)[C@@]3([H])N1C([H])([H])C([H])([H])C3([H])[H])C([H])([H])C([H])([H])C2([H])[H]


 28 30  0  0  0  0  0  0  0  0999 V2000
  -17.6624   14.6927  -21.0992 C   0  0  0  0  0  0  0  0  0  0  0  0
  -17.7170   13.2938  -21.3876 N   0  0  0  0  0  0  0  0  0  0  0  0
  -17.3657   12.1457  -20.5762 C   0  0  0  0  0  0  0  0  0  0  0  0
  -17.1709   11.0965  -21.2209 O   0  0  0  0  0  0  0  0  0  0  0  0
  -17.1874   11.9557  -19.1169 C   0  0  0  0  0  0  0  0  0  0  0  0
  -17.0736   10.5200  -18.7291 C   0  0  0  0  0  0  0  0  0  0  0  0
  -18.4721   10.1567  -18.2863 C   0  0  0  0  0  0  0  0  0  0  0  0
  -18.9169   11.4594  -17.6071 C   0  0  0  0  0  0  0  0  0  0  0  0
  -18.3057   12.5107  -18.3860 N   0  0  0  0  0  0  0  0  0  0  0  0
  -18.8720   13.8012  -18.3005 C   0  0  0  0  0  0  0  0  0  0  0  0
  -19.8133   13.9219  -17.4677 O   0  0  0  0  0  0  0  0  0  0  0  0
  -18.6091   15.0926  -18.9859 C   0  0  0  0  0  0  0  0  0  0  0  0
  -19.3966   16.2395  -18.4630 C   0  0  0  0  0  0  0  0  0  0  0  0
  -19.3422   17.2196  -19.6512 C   0  0  0  0  0  0  0  0  0  0  0  0
  -19.5927   16.1808  -20.7749 C   0  0  0  0  0  0  0  0  0  0  0  0
  -18.8744   15.0425  -20.3839 N   0  0  0  0  0  0  0  0  0  0  0  0
  -18.0785   12.9712  -22.2890 H   0  0  0  0  0  0  0  0  0  0  0  0
  -17.3633   15.5704  -22.2548 C   0  0  0  0  0  0  0  0  0  0  0  0
  -15.9392   15.8623  -22.5345 C   0  0  0  0  0  0  0  0  0  0  0  0
  -15.4033   15.3491  -23.8196 C   0  0  0  0  0  0  0  0  0  0  0  0
  -14.6255   14.1263  -23.6347 N   0  0  0  0  0  0  0  0  0  0  0  0
  -13.6197   14.1657  -23.4382 H   0  0  0  0  0  0  0  0  0  0  0  0
  -14.7119   11.7177  -23.1343 N   0  0  0  0  0  0  0  0  0  0  0  0
  -15.3028   12.8873  -23.7348 C   0  0  0  0  0  0  0  0  0  0  0  0
  -16.4215   12.7276  -24.3285 N   0  0  0  0  0  0  0  0  0  0  0  0
  -13.9265   11.2437  -23.5933 H   0  0  0  0  0  0  0  0  0  0  0  0
  -15.0808   11.3615  -22.2429 H   0  0  0  0  0  0  0  0  0  0  0  0
  -16.9750   13.4552  -24.8067 H   0  0  0  0  0  0  0  0  0  0  0  0
 23 24  1  0  0  0
 24 25  2  0  0  0
 24 21  1  0  0  0
 21 20  1  0  0  0
 20 19  1  0  0  0
 19 18  1  0  0  0
 18  1  1  0  0  0
  1  2  1  0  0  0
  2  3  1  0  0  0
  3  4  2  0  0  0
  3  5  1  0  0  0
  5  6  1  0  0  0
  6  7  1  0  0  0
  7  8  1  0  0  0
  8  9  1  0  0  0
  9 10  1  0  0  0
 10 11  2  0  0  0
 10 12  1  0  0  0
 12 13  1  0  0  0
 13 14  1  0  0  0
 14 15  1  0  0  0
 15 16  1  0  0  0
 16  1  1  0  0  0
  9  5  1  0  0  0
 16 12  1  0  0  0
 23 26  1  0  0  0
 23 27  1  0  0  0
 25 28  1  0  0  0
 21 22  1  0  0  0
  2 17  1  0  0  0
M  END
> <minimizedAffinity>
-6.60665

> <CNNscore>
0.3794384897

> <CNNaffinity>
6.0925760269

> <CNN_VS>
2.3117578030

> <CNNaffinity_variance>
0.1951698512

$$$$
[H]N=C(N([H])[H])N([H])C([H])([H])C([H])([H])C([H])([H])[C@]1([H])N([H])C(=O)[C@@]2([H])N(C(=O)[C@@]3([H])N1C([H])([H])C([H])([H])C3([H])[H])C([H])([H])C([H])([H])C2([H])[H]


 28 30  0  0  0  0  0  0  0  0999 V2000
  -16.3907   15.7312  -21.8794 C   0  0  0  0  0  0  0  0  0  0  0  0
  -16.4242   16.6054  -23.0098 N   0  0  0  0  0  0  0  0  0  0  0  0
  -15.8060   16.4888  -24.3153 C   0  0  0  0  0  0  0  0  0  0  0  0
  -15.7110   17.5631  -24.9408 O   0  0  0  0  0  0  0  0  0  0  0  0
  -15.2548   15.3406  -25.0738 C   0  0  0  0  0  0  0  0  0  0  0  0
  -14.9535   15.6763  -26.4954 C   0  0  0  0  0  0  0  0  0  0  0  0
  -16.1690   15.1825  -27.2453 C   0  0  0  0  0  0  0  0  0  0  0  0
  -16.5133   13.9144  -26.4519 C   0  0  0  0  0  0  0  0  0  0  0  0
  -16.1875   14.2348  -25.0820 N   0  0  0  0  0  0  0  0  0  0  0  0
  -16.7975   13.4649  -24.0677 C   0  0  0  0  0  0  0  0  0  0  0  0
  -17.5053   12.5019  -24.4751 O   0  0  0  0  0  0  0  0  0  0  0  0
  -16.8003   13.5270  -22.5836 C   0  0  0  0  0  0  0  0  0  0  0  0
  -17.5046   12.3985  -21.9207 C   0  0  0  0  0  0  0  0  0  0  0  0
  -17.8147   12.9983  -20.5353 C   0  0  0  0  0  0  0  0  0  0  0  0
  -18.2708   14.3974  -21.0241 C   0  0  0  0  0  0  0  0  0  0  0  0
  -17.4043   14.7137  -22.0794 N   0  0  0  0  0  0  0  0  0  0  0  0
  -16.9786   17.4649  -22.9753 H   0  0  0  0  0  0  0  0  0  0  0  0
  -16.4495   16.3969  -20.5571 C   0  0  0  0  0  0  0  0  0  0  0  0
  -16.4276   17.8770  -20.5408 C   0  0  0  0  0  0  0  0  0  0  0  0
  -17.7470   18.5531  -20.4769 C   0  0  0  0  0  0  0  0  0  0  0  0
  -17.9176   19.2957  -19.2303 N   0  0  0  0  0  0  0  0  0  0  0  0
  -17.2389   20.0094  -18.9445 H   0  0  0  0  0  0  0  0  0  0  0  0
  -20.3569   19.0312  -19.0329 N   0  0  0  0  0  0  0  0  0  0  0  0
  -19.0476   18.9996  -18.4307 C   0  0  0  0  0  0  0  0  0  0  0  0
  -18.9903   18.6994  -17.1914 N   0  0  0  0  0  0  0  0  0  0  0  0
  -20.8156   19.9289  -19.2222 H   0  0  0  0  0  0  0  0  0  0  0  0
  -20.8284   18.1493  -19.2729 H   0  0  0  0  0  0  0  0  0  0  0  0
  -18.1392   18.6325  -16.6120 H   0  0  0  0  0  0  0  0  0  0  0  0
 23 24  1  0  0  0
 24 25  2  0  0  0
 24 21  1  0  0  0
 21 20  1  0  0  0
 20 19  1  0  0  0
 19 18  1  0  0  0
 18  1  1  0  0  0
  1  2  1  0  0  0
  2  3  1  0  0  0
  3  4  2  0  0  0
  3  5  1  0  0  0
  5  6  1  0  0  0
  6  7  1  0  0  0
  7  8  1  0  0  0
  8  9  1  0  0  0
  9 10  1  0  0  0
 10 11  2  0  0  0
 10 12  1  0  0  0
 12 13  1  0  0  0
 13 14  1  0  0  0
 14 15  1  0  0  0
 15 16  1  0  0  0
 16  1  1  0  0  0
  9  5  1  0  0  0
 16 12  1  0  0  0
 23 26  1  0  0  0
 23 27  1  0  0  0
 25 28  1  0  0  0
 21 22  1  0  0  0
  2 17  1  0  0  0
M  END
> <minimizedAffinity>
-7.23723

> <CNNscore>
0.3511231542

> <CNNaffinity>
5.7347326279

> <CNN_VS>
2.0135974884

> <CNNaffinity_variance>
0.2084565908

$$$$
[H]N=C(N([H])[H])N([H])C([H])([H])C([H])([H])C([H])([H])[C@]1([H])N([H])C(=O)[C@@]2([H])N(C(=O)[C@@]3([H])N1C([H])([H])C([H])([H])C3([H])[H])C([H])([H])C([H])([H])C2([H])[H]


 28 30  0  0  0  0  0  0  0  0999 V2000
  -17.0103   13.8737  -22.3816 C   0  0  0  0  0  0  0  0  0  0  0  0
  -17.4387   12.7541  -21.6030 N   0  0  0  0  0  0  0  0  0  0  0  0
  -17.7764   12.6522  -20.1975 C   0  0  0  0  0  0  0  0  0  0  0  0
  -17.7516   11.4919  -19.7421 O   0  0  0  0  0  0  0  0  0  0  0  0
  -18.1513   13.6555  -19.1726 C   0  0  0  0  0  0  0  0  0  0  0  0
  -18.6603   13.0365  -17.9148 C   0  0  0  0  0  0  0  0  0  0  0  0
  -20.1625   13.0965  -18.0685 C   0  0  0  0  0  0  0  0  0  0  0  0
  -20.3339   14.4374  -18.7956 C   0  0  0  0  0  0  0  0  0  0  0  0
  -19.1878   14.5344  -19.6688 N   0  0  0  0  0  0  0  0  0  0  0  0
  -19.2801   15.4081  -20.7741 C   0  0  0  0  0  0  0  0  0  0  0  0
  -20.3395   16.0926  -20.8320 O   0  0  0  0  0  0  0  0  0  0  0  0
  -18.3910   15.7190  -21.9228 C   0  0  0  0  0  0  0  0  0  0  0  0
  -18.8681   16.8287  -22.7887 C   0  0  0  0  0  0  0  0  0  0  0  0
  -18.1074   16.5475  -24.0992 C   0  0  0  0  0  0  0  0  0  0  0  0
  -18.3192   15.0116  -24.1242 C   0  0  0  0  0  0  0  0  0  0  0  0
  -18.1939   14.6059  -22.7885 N   0  0  0  0  0  0  0  0  0  0  0  0
  -17.5782   11.8440  -22.0498 H   0  0  0  0  0  0  0  0  0  0  0  0
  -16.0780   13.5600  -23.4896 C   0  0  0  0  0  0  0  0  0  0  0  0
  -14.9853   14.5240  -23.7506 C   0  0  0  0  0  0  0  0  0  0  0  0
  -14.4543   14.5562  -25.1358 C   0  0  0  0  0  0  0  0  0  0  0  0
  -15.0669   15.6198  -25.9283 N   0  0  0  0  0  0  0  0  0  0  0  0
  -14.9108   16.6066  -25.6967 H   0  0  0  0  0  0  0  0  0  0  0  0
  -15.8614   16.0552  -28.2169 N   0  0  0  0  0  0  0  0  0  0  0  0
  -15.8811   15.2460  -27.0243 C   0  0  0  0  0  0  0  0  0  0  0  0
  -16.6454   14.2236  -27.0339 N   0  0  0  0  0  0  0  0  0  0  0  0
  -16.3633   16.9495  -28.2414 H   0  0  0  0  0  0  0  0  0  0  0  0
  -15.3407   15.7322  -29.0429 H   0  0  0  0  0  0  0  0  0  0  0  0
  -16.7765   13.5447  -26.2683 H   0  0  0  0  0  0  0  0  0  0  0  0
 23 24  1  0  0  0
 24 25  2  0  0  0
 24 21  1  0  0  0
 21 20  1  0  0  0
 20 19  1  0  0  0
 19 18  1  0  0  0
 18  1  1  0  0  0
  1  2  1  0  0  0
  2  3  1  0  0  0
  3  4  2  0  0  0
  3  5  1  0  0  0
  5  6  1  0  0  0
  6  7  1  0  0  0
  7  8  1  0  0  0
  8  9  1  0  0  0
  9 10  1  0  0  0
 10 11  2  0  0  0
 10 12  1  0  0  0
 12 13  1  0  0  0
 13 14  1  0  0  0
 14 15  1  0  0  0
 15 16  1  0  0  0
 16  1  1  0  0  0
  9  5  1  0  0  0
 16 12  1  0  0  0
 23 26  1  0  0  0
 23 27  1  0  0  0
 25 28  1  0  0  0
 21 22  1  0  0  0
  2 17  1  0  0  0
M  END
> <minimizedAffinity>
-6.78814

> <CNNscore>
0.3484773934

> <CNNaffinity>
6.2816495895

> <CNN_VS>
2.1890127659

> <CNNaffinity_variance>
0.0293608364

$$$$
[H]N=C(N([H])[H])N([H])C([H])([H])C([H])([H])C([H])([H])[C@]1([H])N([H])C(=O)[C@@]2([H])N(C(=O)[C@@]3([H])N1C([H])([H])C([H])([H])C3([H])[H])C([H])([H])C([H])([H])C2([H])[H]


 28 30  0  0  0  0  0  0  0  0999 V2000
  -18.1476   16.3086  -21.4416 C   0  0  0  0  0  0  0  0  0  0  0  0
  -18.0995   16.9368  -22.7246 N   0  0  0  0  0  0  0  0  0  0  0  0
  -17.0479   16.9752  -23.7210 C   0  0  0  0  0  0  0  0  0  0  0  0
  -17.1590   17.8949  -24.5554 O   0  0  0  0  0  0  0  0  0  0  0  0
  -15.8495   16.1358  -23.9587 C   0  0  0  0  0  0  0  0  0  0  0  0
  -15.1993   16.4127  -25.2720 C   0  0  0  0  0  0  0  0  0  0  0  0
  -15.7463   15.3332  -26.1772 C   0  0  0  0  0  0  0  0  0  0  0  0
  -15.8308   14.1464  -25.2074 C   0  0  0  0  0  0  0  0  0  0  0  0
  -16.1938   14.7308  -23.9377 N   0  0  0  0  0  0  0  0  0  0  0  0
  -16.7802   13.8840  -22.9720 C   0  0  0  0  0  0  0  0  0  0  0  0
  -16.8433   12.6644  -23.2928 O   0  0  0  0  0  0  0  0  0  0  0  0
  -17.3600   14.1020  -21.6218 C   0  0  0  0  0  0  0  0  0  0  0  0
  -17.7533   12.8570  -20.9116 C   0  0  0  0  0  0  0  0  0  0  0  0
  -18.7665   13.3950  -19.8823 C   0  0  0  0  0  0  0  0  0  0  0  0
  -19.5194   14.3609  -20.8334 C   0  0  0  0  0  0  0  0  0  0  0  0
  -18.5232   14.9226  -21.6437 N   0  0  0  0  0  0  0  0  0  0  0  0
  -18.9172   17.4405  -23.0784 H   0  0  0  0  0  0  0  0  0  0  0  0
  -18.9521   17.0137  -20.4166 C   0  0  0  0  0  0  0  0  0  0  0  0
  -18.2435   17.4906  -19.2075 C   0  0  0  0  0  0  0  0  0  0  0  0
  -18.7030   16.9303  -17.9126 C   0  0  0  0  0  0  0  0  0  0  0  0
  -19.0109   17.9803  -16.9445 N   0  0  0  0  0  0  0  0  0  0  0  0
  -18.8898   18.9703  -17.1838 H   0  0  0  0  0  0  0  0  0  0  0  0
  -19.0852   18.3550  -14.5129 N   0  0  0  0  0  0  0  0  0  0  0  0
  -19.4810   17.5890  -15.6679 C   0  0  0  0  0  0  0  0  0  0  0  0
  -20.2463   16.5884  -15.4613 N   0  0  0  0  0  0  0  0  0  0  0  0
  -18.1438   18.2463  -14.1202 H   0  0  0  0  0  0  0  0  0  0  0  0
  -19.7507   19.0121  -14.0850 H   0  0  0  0  0  0  0  0  0  0  0  0
  -20.6196   15.9407  -16.1724 H   0  0  0  0  0  0  0  0  0  0  0  0
 23 24  1  0  0  0
 24 25  2  0  0  0
 24 21  1  0  0  0
 21 20  1  0  0  0
 20 19  1  0  0  0
 19 18  1  0  0  0
 18  1  1  0  0  0
  1  2  1  0  0  0
  2  3  1  0  0  0
  3  4  2  0  0  0
  3  5  1  0  0  0
  5  6  1  0  0  0
  6  7  1  0  0  0
  7  8  1  0  0  0
  8  9  1  0  0  0
  9 10  1  0  0  0
 10 11  2  0  0  0
 10 12  1  0  0  0
 12 13  1  0  0  0
 13 14  1  0  0  0
 14 15  1  0  0  0
 15 16  1  0  0  0
 16  1  1  0  0  0
  9  5  1  0  0  0
 16 12  1  0  0  0
 23 26  1  0  0  0
 23 27  1  0  0  0
 25 28  1  0  0  0
 21 22  1  0  0  0
  2 17  1  0  0  0
M  END
> <minimizedAffinity>
-6.84393

> <CNNscore>
0.3331310451

> <CNNaffinity>
5.8629693985

> <CNN_VS>
1.9531371593

> <CNNaffinity_variance>
0.0927750543

$$$$
[H]N=C(N([H])[H])N([H])C([H])([H])C([H])([H])C([H])([H])[C@]1([H])N([H])C(=O)[C@@]2([H])N(C(=O)[C@@]3([H])N1C([H])([H])C([H])([H])C3([H])[H])C([H])([H])C([H])([H])C2([H])[H]


 28 30  0  0  0  0  0  0  0  0999 V2000
  -16.3781   15.7496  -21.9394 C   0  0  0  0  0  0  0  0  0  0  0  0
  -16.4372   16.6194  -23.0720 N   0  0  0  0  0  0  0  0  0  0  0  0
  -15.8347   16.5060  -24.3851 C   0  0  0  0  0  0  0  0  0  0  0  0
  -15.7612   17.5793  -25.0153 O   0  0  0  0  0  0  0  0  0  0  0  0
  -15.2794   15.3621  -25.1471 C   0  0  0  0  0  0  0  0  0  0  0  0
  -15.0009   15.6966  -26.5736 C   0  0  0  0  0  0  0  0  0  0  0  0
  -16.2201   15.1855  -27.3059 C   0  0  0  0  0  0  0  0  0  0  0  0
  -16.5384   13.9160  -26.5040 C   0  0  0  0  0  0  0  0  0  0  0  0
  -16.1986   14.2449  -25.1395 N   0  0  0  0  0  0  0  0  0  0  0  0
  -16.7857   13.4710  -24.1148 C   0  0  0  0  0  0  0  0  0  0  0  0
  -17.4869   12.4981  -24.5098 O   0  0  0  0  0  0  0  0  0  0  0  0
  -16.7698   13.5382  -22.6310 C   0  0  0  0  0  0  0  0  0  0  0  0
  -17.4515   12.4034  -21.9553 C   0  0  0  0  0  0  0  0  0  0  0  0
  -17.7508   13.0040  -20.5679 C   0  0  0  0  0  0  0  0  0  0  0  0
  -18.2303   14.3958  -21.0551 C   0  0  0  0  0  0  0  0  0  0  0  0
  -17.3817   14.7191  -22.1228 N   0  0  0  0  0  0  0  0  0  0  0  0
  -17.0016   17.4723  -23.0330 H   0  0  0  0  0  0  0  0  0  0  0  0
  -16.4278   16.4190  -20.6185 C   0  0  0  0  0  0  0  0  0  0  0  0
  -16.6576   17.8813  -20.6070 C   0  0  0  0  0  0  0  0  0  0  0  0
  -18.0339   18.3276  -20.2775 C   0  0  0  0  0  0  0  0  0  0  0  0
  -18.8874   18.3781  -21.4623 N   0  0  0  0  0  0  0  0  0  0  0  0
  -19.6759   17.7316  -21.5721 H   0  0  0  0  0  0  0  0  0  0  0  0
  -18.6024   20.7411  -22.0899 N   0  0  0  0  0  0  0  0  0  0  0  0
  -18.5922   19.3460  -22.4522 C   0  0  0  0  0  0  0  0  0  0  0  0
  -18.3105   19.0677  -23.6657 N   0  0  0  0  0  0  0  0  0  0  0  0
  -19.4929   21.2367  -21.9731 H   0  0  0  0  0  0  0  0  0  0  0  0
  -17.7127   21.2369  -21.9479 H   0  0  0  0  0  0  0  0  0  0  0  0
  -18.2603   18.1272  -24.0868 H   0  0  0  0  0  0  0  0  0  0  0  0
 23 24  1  0  0  0
 24 25  2  0  0  0
 24 21  1  0  0  0
 21 20  1  0  0  0
 20 19  1  0  0  0
 19 18  1  0  0  0
 18  1  1  0  0  0
  1  2  1  0  0  0
  2  3  1  0  0  0
  3  4  2  0  0  0
  3  5  1  0  0  0
  5  6  1  0  0  0
  6  7  1  0  0  0
  7  8  1  0  0  0
  8  9  1  0  0  0
  9 10  1  0  0  0
 10 11  2  0  0  0
 10 12  1  0  0  0
 12 13  1  0  0  0
 13 14  1  0  0  0
 14 15  1  0  0  0
 15 16  1  0  0  0
 16  1  1  0  0  0
  9  5  1  0  0  0
 16 12  1  0  0  0
 23 26  1  0  0  0
 23 27  1  0  0  0
 25 28  1  0  0  0
 21 22  1  0  0  0
  2 17  1  0  0  0
M  END
> <minimizedAffinity>
-7.00751

> <CNNscore>
0.3268829882

> <CNNaffinity>
5.6461544037

> <CNN_VS>
1.8456318378

> <CNNaffinity_variance>
0.5363649130

$$$$
[H]N=C(N([H])[H])N([H])C([H])([H])C([H])([H])C([H])([H])[C@]1([H])N([H])C(=O)[C@@]2([H])N(C(=O)[C@@]3([H])N1C([H])([H])C([H])([H])C3([H])[H])C([H])([H])C([H])([H])C2([H])[H]


 28 30  0  0  0  0  0  0  0  0999 V2000
  -17.6359   12.7118  -21.1295 C   0  0  0  0  0  0  0  0  0  0  0  0
  -19.0120   12.9036  -20.7940 N   0  0  0  0  0  0  0  0  0  0  0  0
  -19.6846   14.0181  -20.1571 C   0  0  0  0  0  0  0  0  0  0  0  0
  -20.7986   13.7408  -19.6709 O   0  0  0  0  0  0  0  0  0  0  0  0
  -19.3186   15.4411  -19.9606 C   0  0  0  0  0  0  0  0  0  0  0  0
  -20.4562   16.2689  -19.4656 C   0  0  0  0  0  0  0  0  0  0  0  0
  -21.0044   16.9104  -20.7193 C   0  0  0  0  0  0  0  0  0  0  0  0
  -19.7155   17.1558  -21.5160 C   0  0  0  0  0  0  0  0  0  0  0  0
  -18.8658   16.0313  -21.2013 N   0  0  0  0  0  0  0  0  0  0  0  0
  -17.8195   15.7307  -22.1005 C   0  0  0  0  0  0  0  0  0  0  0  0
  -17.6786   16.5461  -23.0542 O   0  0  0  0  0  0  0  0  0  0  0  0
  -16.8132   14.6416  -22.1882 C   0  0  0  0  0  0  0  0  0  0  0  0
  -15.8080   14.8168  -23.2690 C   0  0  0  0  0  0  0  0  0  0  0  0
  -15.3072   13.3722  -23.4628 C   0  0  0  0  0  0  0  0  0  0  0  0
  -16.6902   12.6740  -23.3988 C   0  0  0  0  0  0  0  0  0  0  0  0
  -17.3986   13.3617  -22.4039 N   0  0  0  0  0  0  0  0  0  0  0  0
  -19.7021   12.1879  -21.0368 H   0  0  0  0  0  0  0  0  0  0  0  0
  -17.1522   11.3131  -21.0605 C   0  0  0  0  0  0  0  0  0  0  0  0
  -16.3224   10.9387  -19.8931 C   0  0  0  0  0  0  0  0  0  0  0  0
  -17.0286   10.8309  -18.5925 C   0  0  0  0  0  0  0  0  0  0  0  0
  -17.7685    9.5763  -18.4779 N   0  0  0  0  0  0  0  0  0  0  0  0
  -17.8259    8.9239  -19.2672 H   0  0  0  0  0  0  0  0  0  0  0  0
  -19.5844   10.0292  -16.8792 N   0  0  0  0  0  0  0  0  0  0  0  0
  -18.4024    9.2899  -17.2450 C   0  0  0  0  0  0  0  0  0  0  0  0
  -17.9965    8.4061  -16.4183 N   0  0  0  0  0  0  0  0  0  0  0  0
  -19.5038   10.9911  -16.5321 H   0  0  0  0  0  0  0  0  0  0  0  0
  -20.5091    9.5881  -16.9689 H   0  0  0  0  0  0  0  0  0  0  0  0
  -17.1732    7.7935  -16.5256 H   0  0  0  0  0  0  0  0  0  0  0  0
 23 24  1  0  0  0
 24 25  2  0  0  0
 24 21  1  0  0  0
 21 20  1  0  0  0
 20 19  1  0  0  0
 19 18  1  0  0  0
 18  1  1  0  0  0
  1  2  1  0  0  0
  2  3  1  0  0  0
  3  4  2  0  0  0
  3  5  1  0  0  0
  5  6  1  0  0  0
  6  7  1  0  0  0
  7  8  1  0  0  0
  8  9  1  0  0  0
  9 10  1  0  0  0
 10 11  2  0  0  0
 10 12  1  0  0  0
 12 13  1  0  0  0
 13 14  1  0  0  0
 14 15  1  0  0  0
 15 16  1  0  0  0
 16  1  1  0  0  0
  9  5  1  0  0  0
 16 12  1  0  0  0
 23 26  1  0  0  0
 23 27  1  0  0  0
 25 28  1  0  0  0
 21 22  1  0  0  0
  2 17  1  0  0  0
M  END
> <minimizedAffinity>
-7.28990

> <CNNscore>
0.3017858863

> <CNNaffinity>
5.6715307236

> <CNN_VS>
1.7115879059

> <CNNaffinity_variance>
0.1147069931

$$$$
[H]c1nc(N([H])[H])c2c(-c3sc4c(OC([H])([H])[H])c([H])c(C([H])([H])[H])c([H])c4c3[H])c(C([H])([H])OC([H])([H])C([H])([H])[H])c(C(=O)N3C([H])([H])C([H])([H])OC([H])([H])C3([H])[H])n2n1


 36 40  0  0  0  0  0  0  0  0999 V2000
  -18.0980   13.7582  -20.2538 C   0  0  0  0  0  0  0  0  0  0  0  0
  -17.9156   12.6447  -19.5914 C   0  0  0  0  0  0  0  0  0  0  0  0
  -17.0693   11.7408  -20.3444 C   0  0  0  0  0  0  0  0  0  0  0  0
  -16.5094   10.5161  -19.9573 C   0  0  0  0  0  0  0  0  0  0  0  0
  -16.8133    9.9611  -18.7172 N   0  0  0  0  0  0  0  0  0  0  0  0
  -15.6240    9.9983  -20.8138 N   0  0  0  0  0  0  0  0  0  0  0  0
  -15.3150   10.6246  -21.9269 C   0  0  0  0  0  0  0  0  0  0  0  0
  -15.8799   11.8286  -22.2992 N   0  0  0  0  0  0  0  0  0  0  0  0
  -16.7919   12.3840  -21.4921 N   0  0  0  0  0  0  0  0  0  0  0  0
  -17.4009   13.5651  -21.5127 C   0  0  0  0  0  0  0  0  0  0  0  0
  -17.2899    9.0442  -18.5814 H   0  0  0  0  0  0  0  0  0  0  0  0
  -16.5394   10.4215  -17.8203 H   0  0  0  0  0  0  0  0  0  0  0  0
  -18.7522   12.0597  -18.4898 C   0  0  0  0  0  0  0  0  0  0  0  0
  -19.4901   13.0079  -17.6952 C   0  0  0  0  0  0  0  0  0  0  0  0
  -20.2598   12.5870  -16.7449 C   0  0  0  0  0  0  0  0  0  0  0  0
  -21.1482   13.3570  -15.9109 C   0  0  0  0  0  0  0  0  0  0  0  0
  -21.9889   12.7485  -15.0201 C   0  0  0  0  0  0  0  0  0  0  0  0
  -22.9423   13.7032  -14.2890 C   0  0  0  0  0  0  0  0  0  0  0  0
  -22.0880   11.4154  -14.8197 C   0  0  0  0  0  0  0  0  0  0  0  0
  -21.2031   10.6436  -15.6420 C   0  0  0  0  0  0  0  0  0  0  0  0
  -20.3356   11.2268  -16.5627 C   0  0  0  0  0  0  0  0  0  0  0  0
  -19.2571   10.6678  -17.7897 S   0  0  0  0  0  0  0  0  0  0  0  0
  -21.1633    9.2861  -15.5558 O   0  0  0  0  0  0  0  0  0  0  0  0
  -22.2856    8.5732  -15.0831 C   0  0  0  0  0  0  0  0  0  0  0  0
  -17.7859   14.4588  -22.5605 C   0  0  0  0  0  0  0  0  0  0  0  0
  -18.9724   14.8255  -22.8149 O   0  0  0  0  0  0  0  0  0  0  0  0
  -16.8458   14.9903  -23.5132 N   0  0  0  0  0  0  0  0  0  0  0  0
  -15.4774   15.1845  -23.6714 C   0  0  0  0  0  0  0  0  0  0  0  0
  -15.2231   15.8527  -25.0250 C   0  0  0  0  0  0  0  0  0  0  0  0
  -15.3397   14.8673  -26.0379 O   0  0  0  0  0  0  0  0  0  0  0  0
  -16.4906   14.1395  -25.7389 C   0  0  0  0  0  0  0  0  0  0  0  0
  -17.5034   14.8674  -24.9534 C   0  0  0  0  0  0  0  0  0  0  0  0
  -18.8549   14.9973  -19.8849 C   0  0  0  0  0  0  0  0  0  0  0  0
  -18.3813   15.6704  -18.8809 O   0  0  0  0  0  0  0  0  0  0  0  0
  -19.0608   16.8021  -16.9465 C   0  0  0  0  0  0  0  0  0  0  0  0
  -17.9236   16.3286  -17.9398 C   0  0  0  0  0  0  0  0  0  0  0  0
 35 36  1  0  0  0
 36 34  1  0  0  0
 34 33  1  0  0  0
 33  1  1  0  0  0
  1  2  1  0  0  0
  2 13  1  0  0  0
 13 14  2  0  0  0
 14 15  1  0  0  0
 15 16  2  0  0  0
 16 17  1  0  0  0
 17 18  1  0  0  0
 17 19  2  0  0  0
 19 20  1  0  0  0
 20 23  1  0  0  0
 23 24  1  0  0  0
 20 21  2  0  0  0
 21 22  1  0  0  0
  2  3  2  0  0  0
  3  4  1  0  0  0
  4  5  1  0  0  0
  4  6  2  0  0  0
  6  7  1  0  0  0
  7  8  2  0  0  0
  8  9  1  0  0  0
  9 10  1  0  0  0
 10 25  1  0  0  0
 25 26  2  0  0  0
 25 27  1  0  0  0
 27 28  1  0  0  0
 28 29  1  0  0  0
 29 30  1  0  0  0
 30 31  1  0  0  0
 31 32  1  0  0  0
 10  1  2  0  0  0
 32 27  1  0  0  0
 22 13  1  0  0  0
  9  3  1  0  0  0
 21 15  1  0  0  0
  5 11  1  0  0  0
  5 12  1  0  0  0
M  END
> <minimizedAffinity>
-8.27150

> <CNNscore>
0.8988375068

> <CNNaffinity>
7.4698371887

> <CNN_VS>
6.7141699791

> <CNNaffinity_variance>
0.0575337783

$$$$
[H]c1nc(N([H])[H])c2c(-c3sc4c(OC([H])([H])[H])c([H])c(C([H])([H])[H])c([H])c4c3[H])c(C([H])([H])OC([H])([H])C([H])([H])[H])c(C(=O)N3C([H])([H])C([H])([H])OC([H])([H])C3([H])[H])n2n1


 36 40  0  0  0  0  0  0  0  0999 V2000
  -18.1103   13.9057  -19.9540 C   0  0  0  0  0  0  0  0  0  0  0  0
  -17.9300   12.8493  -19.2034 C   0  0  0  0  0  0  0  0  0  0  0  0
  -17.1714   11.8432  -19.9195 C   0  0  0  0  0  0  0  0  0  0  0  0
  -16.6371   10.6340  -19.4551 C   0  0  0  0  0  0  0  0  0  0  0  0
  -16.8816   10.2077  -18.1526 N   0  0  0  0  0  0  0  0  0  0  0  0
  -15.8308   10.0010  -20.3124 N   0  0  0  0  0  0  0  0  0  0  0  0
  -15.5700   10.5094  -21.4957 C   0  0  0  0  0  0  0  0  0  0  0  0
  -16.1093   11.6996  -21.9431 N   0  0  0  0  0  0  0  0  0  0  0  0
  -16.9437   12.3668  -21.1368 N   0  0  0  0  0  0  0  0  0  0  0  0
  -17.5049   13.5680  -21.2298 C   0  0  0  0  0  0  0  0  0  0  0  0
  -17.3847    9.3297  -17.9033 H   0  0  0  0  0  0  0  0  0  0  0  0
  -16.5317   10.7341  -17.3208 H   0  0  0  0  0  0  0  0  0  0  0  0
  -18.7159   12.4050  -18.0031 C   0  0  0  0  0  0  0  0  0  0  0  0
  -19.0823   11.0122  -17.9771 C   0  0  0  0  0  0  0  0  0  0  0  0
  -19.7337   10.5390  -16.9649 C   0  0  0  0  0  0  0  0  0  0  0  0
  -20.1024    9.1704  -16.7036 C   0  0  0  0  0  0  0  0  0  0  0  0
  -20.6941    8.8087  -15.5248 C   0  0  0  0  0  0  0  0  0  0  0  0
  -20.9237    7.3000  -15.3632 C   0  0  0  0  0  0  0  0  0  0  0  0
  -20.9923    9.6468  -14.5071 C   0  0  0  0  0  0  0  0  0  0  0  0
  -20.6334   11.0110  -14.7625 C   0  0  0  0  0  0  0  0  0  0  0  0
  -20.0265   11.4170  -15.9488 C   0  0  0  0  0  0  0  0  0  0  0  0
  -19.3383   12.8763  -16.5634 S   0  0  0  0  0  0  0  0  0  0  0  0
  -20.8783   11.9885  -13.8480 O   0  0  0  0  0  0  0  0  0  0  0  0
  -22.1013   12.6920  -13.8736 C   0  0  0  0  0  0  0  0  0  0  0  0
  -17.9212   14.3802  -22.3307 C   0  0  0  0  0  0  0  0  0  0  0  0
  -19.1128   14.7416  -22.5682 O   0  0  0  0  0  0  0  0  0  0  0  0
  -17.0136   14.8210  -23.3582 N   0  0  0  0  0  0  0  0  0  0  0  0
  -15.6504   14.9831  -23.5836 C   0  0  0  0  0  0  0  0  0  0  0  0
  -15.4423   15.5374  -24.9953 C   0  0  0  0  0  0  0  0  0  0  0  0
  -15.6088   14.4759  -25.9205 O   0  0  0  0  0  0  0  0  0  0  0  0
  -16.7547   13.7901  -25.5202 C   0  0  0  0  0  0  0  0  0  0  0  0
  -17.7283   14.5922  -24.7577 C   0  0  0  0  0  0  0  0  0  0  0  0
  -18.7913   15.2064  -19.6563 C   0  0  0  0  0  0  0  0  0  0  0  0
  -18.0146   16.2429  -19.5672 O   0  0  0  0  0  0  0  0  0  0  0  0
  -16.1260   17.1660  -20.5994 C   0  0  0  0  0  0  0  0  0  0  0  0
  -17.2666   17.2252  -19.5040 C   0  0  0  0  0  0  0  0  0  0  0  0
 35 36  1  0  0  0
 36 34  1  0  0  0
 34 33  1  0  0  0
 33  1  1  0  0  0
  1  2  1  0  0  0
  2 13  1  0  0  0
 13 14  2  0  0  0
 14 15  1  0  0  0
 15 16  2  0  0  0
 16 17  1  0  0  0
 17 18  1  0  0  0
 17 19  2  0  0  0
 19 20  1  0  0  0
 20 23  1  0  0  0
 23 24  1  0  0  0
 20 21  2  0  0  0
 21 22  1  0  0  0
  2  3  2  0  0  0
  3  4  1  0  0  0
  4  5  1  0  0  0
  4  6  2  0  0  0
  6  7  1  0  0  0
  7  8  2  0  0  0
  8  9  1  0  0  0
  9 10  1  0  0  0
 10 25  1  0  0  0
 25 26  2  0  0  0
 25 27  1  0  0  0
 27 28  1  0  0  0
 28 29  1  0  0  0
 29 30  1  0  0  0
 30 31  1  0  0  0
 31 32  1  0  0  0
 10  1  2  0  0  0
 32 27  1  0  0  0
 22 13  1  0  0  0
  9  3  1  0  0  0
 21 15  1  0  0  0
  5 11  1  0  0  0
  5 12  1  0  0  0
M  END
> <minimizedAffinity>
-8.42467

> <CNNscore>
0.8739996552

> <CNNaffinity>
7.5283737183

> <CNN_VS>
6.5797958374

> <CNNaffinity_variance>
0.0715966001

$$$$
[H]c1nc(N([H])[H])c2c(-c3sc4c(OC([H])([H])[H])c([H])c(C([H])([H])[H])c([H])c4c3[H])c(C([H])([H])OC([H])([H])C([H])([H])[H])c(C(=O)N3C([H])([H])C([H])([H])OC([H])([H])C3([H])[H])n2n1


 36 40  0  0  0  0  0  0  0  0999 V2000
  -17.9156   13.9370  -21.1190 C   0  0  0  0  0  0  0  0  0  0  0  0
  -17.8186   13.0645  -20.1488 C   0  0  0  0  0  0  0  0  0  0  0  0
  -16.9900   11.9468  -20.5543 C   0  0  0  0  0  0  0  0  0  0  0  0
  -16.5109   10.8723  -19.7932 C   0  0  0  0  0  0  0  0  0  0  0  0
  -16.8938   10.7226  -18.4632 N   0  0  0  0  0  0  0  0  0  0  0  0
  -15.6191   10.0908  -20.4093 N   0  0  0  0  0  0  0  0  0  0  0  0
  -15.2325   10.3461  -21.6390 C   0  0  0  0  0  0  0  0  0  0  0  0
  -15.7185   11.4053  -22.3801 N   0  0  0  0  0  0  0  0  0  0  0  0
  -16.6327   12.2091  -21.8238 N   0  0  0  0  0  0  0  0  0  0  0  0
  -17.1783   13.3527  -22.2250 C   0  0  0  0  0  0  0  0  0  0  0  0
  -17.4225    9.9060  -18.0893 H   0  0  0  0  0  0  0  0  0  0  0  0
  -16.6335   11.4181  -17.7284 H   0  0  0  0  0  0  0  0  0  0  0  0
  -18.7289   12.8649  -18.9710 C   0  0  0  0  0  0  0  0  0  0  0  0
  -19.1689   14.0673  -18.3110 C   0  0  0  0  0  0  0  0  0  0  0  0
  -19.9795   13.9876  -17.3063 C   0  0  0  0  0  0  0  0  0  0  0  0
  -20.6084   15.0631  -16.5815 C   0  0  0  0  0  0  0  0  0  0  0  0
  -21.5375   14.8142  -15.6092 C   0  0  0  0  0  0  0  0  0  0  0  0
  -22.1869   16.0695  -15.0115 C   0  0  0  0  0  0  0  0  0  0  0  0
  -21.9621   13.5898  -15.2249 C   0  0  0  0  0  0  0  0  0  0  0  0
  -21.3365   12.5149  -15.9379 C   0  0  0  0  0  0  0  0  0  0  0  0
  -20.3891   12.7289  -16.9364 C   0  0  0  0  0  0  0  0  0  0  0  0
  -19.5396   11.7545  -18.0810 S   0  0  0  0  0  0  0  0  0  0  0  0
  -21.6378   11.2164  -15.6641 O   0  0  0  0  0  0  0  0  0  0  0  0
  -20.9080   10.5115  -14.6834 C   0  0  0  0  0  0  0  0  0  0  0  0
  -17.4731   13.9084  -23.5091 C   0  0  0  0  0  0  0  0  0  0  0  0
  -18.3563   13.4791  -24.3106 O   0  0  0  0  0  0  0  0  0  0  0  0
  -16.7217   14.9988  -24.0751 N   0  0  0  0  0  0  0  0  0  0  0  0
  -15.8568   16.0170  -23.6869 C   0  0  0  0  0  0  0  0  0  0  0  0
  -15.4538   16.8253  -24.9229 C   0  0  0  0  0  0  0  0  0  0  0  0
  -14.4809   16.0858  -25.6420 O   0  0  0  0  0  0  0  0  0  0  0  0
  -14.9530   14.7751  -25.6955 C   0  0  0  0  0  0  0  0  0  0  0  0
  -16.4164   14.6335  -25.5901 C   0  0  0  0  0  0  0  0  0  0  0  0
  -18.6217   15.2571  -21.1739 C   0  0  0  0  0  0  0  0  0  0  0  0
  -18.0721   16.2199  -20.4983 O   0  0  0  0  0  0  0  0  0  0  0  0
  -16.1008   17.4745  -20.3422 C   0  0  0  0  0  0  0  0  0  0  0  0
  -17.5699   17.1475  -19.8535 C   0  0  0  0  0  0  0  0  0  0  0  0
 35 36  1  0  0  0
 36 34  1  0  0  0
 34 33  1  0  0  0
 33  1  1  0  0  0
  1  2  1  0  0  0
  2 13  1  0  0  0
 13 14  2  0  0  0
 14 15  1  0  0  0
 15 16  2  0  0  0
 16 17  1  0  0  0
 17 18  1  0  0  0
 17 19  2  0  0  0
 19 20  1  0  0  0
 20 23  1  0  0  0
 23 24  1  0  0  0
 20 21  2  0  0  0
 21 22  1  0  0  0
  2  3  2  0  0  0
  3  4  1  0  0  0
  4  5  1  0  0  0
  4  6  2  0  0  0
  6  7  1  0  0  0
  7  8  2  0  0  0
  8  9  1  0  0  0
  9 10  1  0  0  0
 10 25  1  0  0  0
 25 26  2  0  0  0
 25 27  1  0  0  0
 27 28  1  0  0  0
 28 29  1  0  0  0
 29 30  1  0  0  0
 30 31  1  0  0  0
 31 32  1  0  0  0
 10  1  2  0  0  0
 32 27  1  0  0  0
 22 13  1  0  0  0
  9  3  1  0  0  0
 21 15  1  0  0  0
  5 11  1  0  0  0
  5 12  1  0  0  0
M  END
> <minimizedAffinity>
-7.99766

> <CNNscore>
0.7559689879

> <CNNaffinity>
7.4919471741

> <CNN_VS>
5.6636795998

> <CNNaffinity_variance>
0.1456051916

$$$$
[H]c1nc(N([H])[H])c2c(-c3sc4c(OC([H])([H])[H])c([H])c(C([H])([H])[H])c([H])c4c3[H])c(C([H])([H])OC([H])([H])C([H])([H])[H])c(C(=O)N3C([H])([H])C([H])([H])OC([H])([H])C3([H])[H])n2n1


 36 40  0  0  0  0  0  0  0  0999 V2000
  -19.1080   13.6384  -17.9027 C   0  0  0  0  0  0  0  0  0  0  0  0
  -18.9771   12.3814  -17.5640 C   0  0  0  0  0  0  0  0  0  0  0  0
  -18.3119   11.6402  -18.6168 C   0  0  0  0  0  0  0  0  0  0  0  0
  -17.8475   10.3183  -18.6174 C   0  0  0  0  0  0  0  0  0  0  0  0
  -18.0799    9.4875  -17.5246 N   0  0  0  0  0  0  0  0  0  0  0  0
  -17.1136    9.9727  -19.6793 N   0  0  0  0  0  0  0  0  0  0  0  0
  -16.8556   10.8391  -20.6330 C   0  0  0  0  0  0  0  0  0  0  0  0
  -17.3257   12.1377  -20.6227 N   0  0  0  0  0  0  0  0  0  0  0  0
  -18.0870   12.5342  -19.5957 N   0  0  0  0  0  0  0  0  0  0  0  0
  -18.5672   13.7235  -19.2474 C   0  0  0  0  0  0  0  0  0  0  0  0
  -18.6340    8.6055  -17.5607 H   0  0  0  0  0  0  0  0  0  0  0  0
  -17.6690    9.6794  -16.5835 H   0  0  0  0  0  0  0  0  0  0  0  0
  -19.7538   11.5978  -16.5449 C   0  0  0  0  0  0  0  0  0  0  0  0
  -19.2613   11.6707  -15.1932 C   0  0  0  0  0  0  0  0  0  0  0  0
  -19.8888   11.0504  -14.2476 C   0  0  0  0  0  0  0  0  0  0  0  0
  -19.6198   11.0788  -12.8319 C   0  0  0  0  0  0  0  0  0  0  0  0
  -20.4493   10.4563  -11.9403 C   0  0  0  0  0  0  0  0  0  0  0  0
  -20.0795   10.6729  -10.4668 C   0  0  0  0  0  0  0  0  0  0  0  0
  -21.5700    9.7706  -12.2583 C   0  0  0  0  0  0  0  0  0  0  0  0
  -21.8407    9.7335  -13.6655 C   0  0  0  0  0  0  0  0  0  0  0  0
  -21.0216   10.3581  -14.6033 C   0  0  0  0  0  0  0  0  0  0  0  0
  -21.0713   10.6554  -16.3033 S   0  0  0  0  0  0  0  0  0  0  0  0
  -22.9221    9.0711  -14.1592 O   0  0  0  0  0  0  0  0  0  0  0  0
  -22.8080    7.7194  -14.5480 C   0  0  0  0  0  0  0  0  0  0  0  0
  -18.9609   14.8834  -19.9854 C   0  0  0  0  0  0  0  0  0  0  0  0
  -20.1258   15.1108  -20.4306 O   0  0  0  0  0  0  0  0  0  0  0  0
  -18.0285   15.9082  -20.3783 N   0  0  0  0  0  0  0  0  0  0  0  0
  -16.7615   16.3826  -20.0543 C   0  0  0  0  0  0  0  0  0  0  0  0
  -16.4308   17.5739  -20.9571 C   0  0  0  0  0  0  0  0  0  0  0  0
  -16.0688   17.0781  -22.2353 O   0  0  0  0  0  0  0  0  0  0  0  0
  -17.0146   16.1049  -22.5548 C   0  0  0  0  0  0  0  0  0  0  0  0
  -18.3237   16.2664  -21.8969 C   0  0  0  0  0  0  0  0  0  0  0  0
  -19.6886   14.7946  -17.1474 C   0  0  0  0  0  0  0  0  0  0  0  0
  -20.9234   14.6595  -16.7699 O   0  0  0  0  0  0  0  0  0  0  0  0
  -22.1670   14.0037  -14.8970 C   0  0  0  0  0  0  0  0  0  0  0  0
  -22.0919   14.5289  -16.3879 C   0  0  0  0  0  0  0  0  0  0  0  0
 35 36  1  0  0  0
 36 34  1  0  0  0
 34 33  1  0  0  0
 33  1  1  0  0  0
  1  2  1  0  0  0
  2 13  1  0  0  0
 13 14  2  0  0  0
 14 15  1  0  0  0
 15 16  2  0  0  0
 16 17  1  0  0  0
 17 18  1  0  0  0
 17 19  2  0  0  0
 19 20  1  0  0  0
 20 23  1  0  0  0
 23 24  1  0  0  0
 20 21  2  0  0  0
 21 22  1  0  0  0
  2  3  2  0  0  0
  3  4  1  0  0  0
  4  5  1  0  0  0
  4  6  2  0  0  0
  6  7  1  0  0  0
  7  8  2  0  0  0
  8  9  1  0  0  0
  9 10  1  0  0  0
 10 25  1  0  0  0
 25 26  2  0  0  0
 25 27  1  0  0  0
 27 28  1  0  0  0
 28 29  1  0  0  0
 29 30  1  0  0  0
 30 31  1  0  0  0
 31 32  1  0  0  0
 10  1  2  0  0  0
 32 27  1  0  0  0
 22 13  1  0  0  0
  9  3  1  0  0  0
 21 15  1  0  0  0
  5 11  1  0  0  0
  5 12  1  0  0  0
M  END
> <minimizedAffinity>
-6.70080

> <CNNscore>
0.6447638869

> <CNNaffinity>
6.9414129257

> <CNN_VS>
4.4755725861

> <CNNaffinity_variance>
0.1006728634

$$$$
[H]c1nc(N([H])[H])c2c(-c3sc4c(OC([H])([H])[H])c([H])c(C([H])([H])[H])c([H])c4c3[H])c(C([H])([H])OC([H])([H])C([H])([H])[H])c(C(=O)N3C([H])([H])C([H])([H])OC([H])([H])C3([H])[H])n2n1


 36 40  0  0  0  0  0  0  0  0999 V2000
  -18.9106   13.7608  -18.0082 C   0  0  0  0  0  0  0  0  0  0  0  0
  -18.7781   12.5335  -17.5743 C   0  0  0  0  0  0  0  0  0  0  0  0
  -18.2236   11.6871  -18.6117 C   0  0  0  0  0  0  0  0  0  0  0  0
  -17.7900   10.3567  -18.5373 C   0  0  0  0  0  0  0  0  0  0  0  0
  -17.9443    9.6283  -17.3610 N   0  0  0  0  0  0  0  0  0  0  0  0
  -17.1592    9.9016  -19.6239 N   0  0  0  0  0  0  0  0  0  0  0  0
  -16.9665   10.6765  -20.6675 C   0  0  0  0  0  0  0  0  0  0  0  0
  -17.4055   11.9845  -20.7297 N   0  0  0  0  0  0  0  0  0  0  0  0
  -18.0655   12.4883  -19.6799 N   0  0  0  0  0  0  0  0  0  0  0  0
  -18.4874   13.7163  -19.3964 C   0  0  0  0  0  0  0  0  0  0  0  0
  -18.5185    8.7630  -17.2734 H   0  0  0  0  0  0  0  0  0  0  0  0
  -17.4488    9.8868  -16.4784 H   0  0  0  0  0  0  0  0  0  0  0  0
  -19.4799   11.8617  -16.4289 C   0  0  0  0  0  0  0  0  0  0  0  0
  -20.8279   11.4266  -16.6911 C   0  0  0  0  0  0  0  0  0  0  0  0
  -21.4941   10.8114  -15.7690 C   0  0  0  0  0  0  0  0  0  0  0  0
  -22.8027   10.2145  -15.8632 C   0  0  0  0  0  0  0  0  0  0  0  0
  -23.3291    9.4939  -14.8267 C   0  0  0  0  0  0  0  0  0  0  0  0
  -24.6828    8.8377  -15.1291 C   0  0  0  0  0  0  0  0  0  0  0  0
  -22.7191    9.2620  -13.6429 C   0  0  0  0  0  0  0  0  0  0  0  0
  -21.4192    9.8577  -13.5401 C   0  0  0  0  0  0  0  0  0  0  0  0
  -20.8486   10.5951  -14.5750 C   0  0  0  0  0  0  0  0  0  0  0  0
  -19.3166   11.3268  -14.8896 S   0  0  0  0  0  0  0  0  0  0  0  0
  -20.6739    9.7350  -12.4082 O   0  0  0  0  0  0  0  0  0  0  0  0
  -21.0070    8.7610  -11.4429 C   0  0  0  0  0  0  0  0  0  0  0  0
  -18.9186   14.8207  -20.1958 C   0  0  0  0  0  0  0  0  0  0  0  0
  -20.0966   14.9991  -20.6288 O   0  0  0  0  0  0  0  0  0  0  0  0
  -18.0145   15.8358  -20.6714 N   0  0  0  0  0  0  0  0  0  0  0  0
  -16.7505   16.3522  -20.4050 C   0  0  0  0  0  0  0  0  0  0  0  0
  -16.4615   17.4908  -21.3867 C   0  0  0  0  0  0  0  0  0  0  0  0
  -16.1164   16.9231  -22.6393 O   0  0  0  0  0  0  0  0  0  0  0  0
  -17.0495   15.9150  -22.8774 C   0  0  0  0  0  0  0  0  0  0  0  0
  -18.3477   16.0935  -22.2025 C   0  0  0  0  0  0  0  0  0  0  0  0
  -19.3978   14.9930  -17.3092 C   0  0  0  0  0  0  0  0  0  0  0  0
  -20.6869   15.1301  -17.2393 O   0  0  0  0  0  0  0  0  0  0  0  0
  -22.3799   16.6357  -17.8321 C   0  0  0  0  0  0  0  0  0  0  0  0
  -21.9152   15.2630  -17.1963 C   0  0  0  0  0  0  0  0  0  0  0  0
 35 36  1  0  0  0
 36 34  1  0  0  0
 34 33  1  0  0  0
 33  1  1  0  0  0
  1  2  1  0  0  0
  2 13  1  0  0  0
 13 14  2  0  0  0
 14 15  1  0  0  0
 15 16  2  0  0  0
 16 17  1  0  0  0
 17 18  1  0  0  0
 17 19  2  0  0  0
 19 20  1  0  0  0
 20 23  1  0  0  0
 23 24  1  0  0  0
 20 21  2  0  0  0
 21 22  1  0  0  0
  2  3  2  0  0  0
  3  4  1  0  0  0
  4  5  1  0  0  0
  4  6  2  0  0  0
  6  7  1  0  0  0
  7  8  2  0  0  0
  8  9  1  0  0  0
  9 10  1  0  0  0
 10 25  1  0  0  0
 25 26  2  0  0  0
 25 27  1  0  0  0
 27 28  1  0  0  0
 28 29  1  0  0  0
 29 30  1  0  0  0
 30 31  1  0  0  0
 31 32  1  0  0  0
 10  1  2  0  0  0
 32 27  1  0  0  0
 22 13  1  0  0  0
  9  3  1  0  0  0
 21 15  1  0  0  0
  5 11  1  0  0  0
  5 12  1  0  0  0
M  END
> <minimizedAffinity>
-6.44014

> <CNNscore>
0.5621575713

> <CNNaffinity>
6.8561334610

> <CNN_VS>
3.8542273045

> <CNNaffinity_variance>
0.1061007977

$$$$
[H]c1nc(N([H])[H])c2c(-c3sc4c(OC([H])([H])[H])c([H])c(C([H])([H])[H])c([H])c4c3[H])c(C([H])([H])OC([H])([H])C([H])([H])[H])c(C(=O)N3C([H])([H])C([H])([H])OC([H])([H])C3([H])[H])n2n1


 36 40  0  0  0  0  0  0  0  0999 V2000
  -20.6432   13.2610  -17.7055 C   0  0  0  0  0  0  0  0  0  0  0  0
  -19.6067   12.9071  -18.4212 C   0  0  0  0  0  0  0  0  0  0  0  0
  -19.0867   11.6340  -17.9638 C   0  0  0  0  0  0  0  0  0  0  0  0
  -18.0888   10.8268  -18.5260 C   0  0  0  0  0  0  0  0  0  0  0  0
  -17.3775   11.2577  -19.6425 N   0  0  0  0  0  0  0  0  0  0  0  0
  -17.9529    9.6191  -17.9704 N   0  0  0  0  0  0  0  0  0  0  0  0
  -18.7240    9.2426  -16.9752 C   0  0  0  0  0  0  0  0  0  0  0  0
  -19.6995   10.0516  -16.4263 N   0  0  0  0  0  0  0  0  0  0  0  0
  -19.8658   11.2821  -16.9260 N   0  0  0  0  0  0  0  0  0  0  0  0
  -20.7802   12.2203  -16.7023 C   0  0  0  0  0  0  0  0  0  0  0  0
  -16.3478   11.4178  -19.6610 H   0  0  0  0  0  0  0  0  0  0  0  0
  -17.8367   11.4130  -20.5679 H   0  0  0  0  0  0  0  0  0  0  0  0
  -18.7022   13.7696  -19.2543 C   0  0  0  0  0  0  0  0  0  0  0  0
  -18.7224   13.5097  -20.6710 C   0  0  0  0  0  0  0  0  0  0  0  0
  -17.9964   14.2273  -21.4651 C   0  0  0  0  0  0  0  0  0  0  0  0
  -17.9515   14.1937  -22.9054 C   0  0  0  0  0  0  0  0  0  0  0  0
  -17.2118   15.1010  -23.6126 C   0  0  0  0  0  0  0  0  0  0  0  0
  -17.3579   14.9935  -25.1364 C   0  0  0  0  0  0  0  0  0  0  0  0
  -16.4673   16.0941  -23.0771 C   0  0  0  0  0  0  0  0  0  0  0  0
  -16.5028   16.1300  -21.6445 C   0  0  0  0  0  0  0  0  0  0  0  0
  -17.2468   15.2256  -20.8901 C   0  0  0  0  0  0  0  0  0  0  0  0
  -17.6508   15.0249  -19.2235 S   0  0  0  0  0  0  0  0  0  0  0  0
  -15.7960   17.0580  -20.9438 O   0  0  0  0  0  0  0  0  0  0  0  0
  -16.4271   18.2366  -20.4924 C   0  0  0  0  0  0  0  0  0  0  0  0
  -21.5709   12.5766  -15.5653 C   0  0  0  0  0  0  0  0  0  0  0  0
  -21.5841   13.7144  -15.0066 O   0  0  0  0  0  0  0  0  0  0  0  0
  -22.4013   11.6286  -14.8683 N   0  0  0  0  0  0  0  0  0  0  0  0
  -22.9971   10.3859  -15.0583 C   0  0  0  0  0  0  0  0  0  0  0  0
  -23.7756   10.0094  -13.7951 C   0  0  0  0  0  0  0  0  0  0  0  0
  -22.8501    9.5693  -12.8152 O   0  0  0  0  0  0  0  0  0  0  0  0
  -21.8021   10.4887  -12.8323 C   0  0  0  0  0  0  0  0  0  0  0  0
  -22.1605   11.8354  -13.3124 C   0  0  0  0  0  0  0  0  0  0  0  0
  -21.5358   14.4595  -17.8115 C   0  0  0  0  0  0  0  0  0  0  0  0
  -21.6350   14.9869  -18.9936 O   0  0  0  0  0  0  0  0  0  0  0  0
  -20.7707   16.7702  -20.2416 C   0  0  0  0  0  0  0  0  0  0  0  0
  -21.7137   15.5058  -20.1130 C   0  0  0  0  0  0  0  0  0  0  0  0
 35 36  1  0  0  0
 36 34  1  0  0  0
 34 33  1  0  0  0
 33  1  1  0  0  0
  1  2  1  0  0  0
  2 13  1  0  0  0
 13 14  2  0  0  0
 14 15  1  0  0  0
 15 16  2  0  0  0
 16 17  1  0  0  0
 17 18  1  0  0  0
 17 19  2  0  0  0
 19 20  1  0  0  0
 20 23  1  0  0  0
 23 24  1  0  0  0
 20 21  2  0  0  0
 21 22  1  0  0  0
  2  3  2  0  0  0
  3  4  1  0  0  0
  4  5  1  0  0  0
  4  6  2  0  0  0
  6  7  1  0  0  0
  7  8  2  0  0  0
  8  9  1  0  0  0
  9 10  1  0  0  0
 10 25  1  0  0  0
 25 26  2  0  0  0
 25 27  1  0  0  0
 27 28  1  0  0  0
 28 29  1  0  0  0
 29 30  1  0  0  0
 30 31  1  0  0  0
 31 32  1  0  0  0
 10  1  2  0  0  0
 32 27  1  0  0  0
 22 13  1  0  0  0
  9  3  1  0  0  0
 21 15  1  0  0  0
  5 11  1  0  0  0
  5 12  1  0  0  0
M  END
> <minimizedAffinity>
-7.26490

> <CNNscore>
0.3591684103

> <CNNaffinity>
6.7486467361

> <CNN_VS>
2.4239006042

> <CNNaffinity_variance>
0.3070156276

$$$$
[H]c1nc(N([H])[H])c2c(-c3sc4c(OC([H])([H])[H])c([H])c(C([H])([H])[H])c([H])c4c3[H])c(C([H])([H])OC([H])([H])C([H])([H])[H])c(C(=O)N3C([H])([H])C([H])([H])OC([H])([H])C3([H])[H])n2n1


 36 40  0  0  0  0  0  0  0  0999 V2000
  -19.8796   14.3844  -20.0826 C   0  0  0  0  0  0  0  0  0  0  0  0
  -18.9377   13.5905  -20.5236 C   0  0  0  0  0  0  0  0  0  0  0  0
  -18.6277   12.5758  -19.5364 C   0  0  0  0  0  0  0  0  0  0  0  0
  -17.7963   11.4532  -19.6453 C   0  0  0  0  0  0  0  0  0  0  0  0
  -17.0535   11.2340  -20.8022 N   0  0  0  0  0  0  0  0  0  0  0  0
  -17.8509   10.6020  -18.6167 N   0  0  0  0  0  0  0  0  0  0  0  0
  -18.6467   10.8265  -17.5954 C   0  0  0  0  0  0  0  0  0  0  0  0
  -19.4563   11.9412  -17.4982 N   0  0  0  0  0  0  0  0  0  0  0  0
  -19.4262   12.8419  -18.4878 N   0  0  0  0  0  0  0  0  0  0  0  0
  -20.1626   13.9200  -18.7363 C   0  0  0  0  0  0  0  0  0  0  0  0
  -16.0124   11.1990  -20.8377 H   0  0  0  0  0  0  0  0  0  0  0  0
  -17.5052   11.0453  -21.7250 H   0  0  0  0  0  0  0  0  0  0  0  0
  -17.9240   13.8449  -21.6022 C   0  0  0  0  0  0  0  0  0  0  0  0
  -18.3238   13.4732  -22.9353 C   0  0  0  0  0  0  0  0  0  0  0  0
  -17.5229   13.6862  -23.9281 C   0  0  0  0  0  0  0  0  0  0  0  0
  -17.7713   13.4814  -25.3330 C   0  0  0  0  0  0  0  0  0  0  0  0
  -16.8590   13.8648  -26.2771 C   0  0  0  0  0  0  0  0  0  0  0  0
  -17.3235   13.6737  -27.7272 C   0  0  0  0  0  0  0  0  0  0  0  0
  -15.6693   14.4548  -26.0246 C   0  0  0  0  0  0  0  0  0  0  0  0
  -15.4131   14.6565  -24.6286 C   0  0  0  0  0  0  0  0  0  0  0  0
  -16.3190   14.2828  -23.6385 C   0  0  0  0  0  0  0  0  0  0  0  0
  -16.4457   14.4707  -21.9269 S   0  0  0  0  0  0  0  0  0  0  0  0
  -14.2536   15.2242  -24.1985 O   0  0  0  0  0  0  0  0  0  0  0  0
  -13.1153   15.2292  -25.0325 C   0  0  0  0  0  0  0  0  0  0  0  0
  -20.8501   14.8585  -17.9048 C   0  0  0  0  0  0  0  0  0  0  0  0
  -22.0932   14.8479  -17.6566 O   0  0  0  0  0  0  0  0  0  0  0  0
  -20.1950   15.9933  -17.3073 N   0  0  0  0  0  0  0  0  0  0  0  0
  -18.9187   16.4461  -16.9887 C   0  0  0  0  0  0  0  0  0  0  0  0
  -19.0300   17.8225  -16.3280 C   0  0  0  0  0  0  0  0  0  0  0  0
  -19.2683   18.7858  -17.3408 O   0  0  0  0  0  0  0  0  0  0  0  0
  -20.2513   18.2430  -18.1672 C   0  0  0  0  0  0  0  0  0  0  0  0
  -21.1347   17.2553  -17.5215 C   0  0  0  0  0  0  0  0  0  0  0  0
  -20.5596   15.5465  -20.7393 C   0  0  0  0  0  0  0  0  0  0  0  0
  -19.7744   16.4399  -21.2596 O   0  0  0  0  0  0  0  0  0  0  0  0
  -18.9191   17.1477  -23.3217 C   0  0  0  0  0  0  0  0  0  0  0  0
  -19.0436   17.3069  -21.7521 C   0  0  0  0  0  0  0  0  0  0  0  0
 35 36  1  0  0  0
 36 34  1  0  0  0
 34 33  1  0  0  0
 33  1  1  0  0  0
  1  2  1  0  0  0
  2 13  1  0  0  0
 13 14  2  0  0  0
 14 15  1  0  0  0
 15 16  2  0  0  0
 16 17  1  0  0  0
 17 18  1  0  0  0
 17 19  2  0  0  0
 19 20  1  0  0  0
 20 23  1  0  0  0
 23 24  1  0  0  0
 20 21  2  0  0  0
 21 22  1  0  0  0
  2  3  2  0  0  0
  3  4  1  0  0  0
  4  5  1  0  0  0
  4  6  2  0  0  0
  6  7  1  0  0  0
  7  8  2  0  0  0
  8  9  1  0  0  0
  9 10  1  0  0  0
 10 25  1  0  0  0
 25 26  2  0  0  0
 25 27  1  0  0  0
 27 28  1  0  0  0
 28 29  1  0  0  0
 29 30  1  0  0  0
 30 31  1  0  0  0
 31 32  1  0  0  0
 10  1  2  0  0  0
 32 27  1  0  0  0
 22 13  1  0  0  0
  9  3  1  0  0  0
 21 15  1  0  0  0
  5 11  1  0  0  0
  5 12  1  0  0  0
M  END
> <minimizedAffinity>
-6.86480

> <CNNscore>
0.3345352411

> <CNNaffinity>
6.9661574364

> <CNN_VS>
2.3304252625

> <CNNaffinity_variance>
0.6161352992

$$$$
[H]c1nc(N([H])[H])c2c(-c3sc4c(OC([H])([H])[H])c([H])c(C([H])([H])[H])c([H])c4c3[H])c(C([H])([H])OC([H])([H])C([H])([H])[H])c(C(=O)N3C([H])([H])C([H])([H])OC([H])([H])C3([H])[H])n2n1


 36 40  0  0  0  0  0  0  0  0999 V2000
  -18.9883   13.6867  -17.5087 C   0  0  0  0  0  0  0  0  0  0  0  0
  -18.9983   12.4043  -17.2498 C   0  0  0  0  0  0  0  0  0  0  0  0
  -18.3388   11.6688  -18.3102 C   0  0  0  0  0  0  0  0  0  0  0  0
  -18.0015   10.3103  -18.3741 C   0  0  0  0  0  0  0  0  0  0  0  0
  -18.3812    9.4396  -17.3563 N   0  0  0  0  0  0  0  0  0  0  0  0
  -17.2360    9.9616  -19.4124 N   0  0  0  0  0  0  0  0  0  0  0  0
  -16.8366   10.8565  -20.2878 C   0  0  0  0  0  0  0  0  0  0  0  0
  -17.1824   12.1916  -20.2162 N   0  0  0  0  0  0  0  0  0  0  0  0
  -17.9679   12.5958  -19.2107 N   0  0  0  0  0  0  0  0  0  0  0  0
  -18.3559   13.8024  -18.8105 C   0  0  0  0  0  0  0  0  0  0  0  0
  -19.0122    8.6201  -17.4850 H   0  0  0  0  0  0  0  0  0  0  0  0
  -18.0160    9.5310  -16.3818 H   0  0  0  0  0  0  0  0  0  0  0  0
  -19.9095   11.6383  -16.3339 C   0  0  0  0  0  0  0  0  0  0  0  0
  -19.5276   11.6200  -14.9451 C   0  0  0  0  0  0  0  0  0  0  0  0
  -20.2731   11.0090  -14.0828 C   0  0  0  0  0  0  0  0  0  0  0  0
  -20.1217   10.9601  -12.6503 C   0  0  0  0  0  0  0  0  0  0  0  0
  -21.0637   10.3637  -11.8582 C   0  0  0  0  0  0  0  0  0  0  0  0
  -20.8039   10.4927  -10.3513 C   0  0  0  0  0  0  0  0  0  0  0  0
  -22.1987    9.7748  -12.2967 C   0  0  0  0  0  0  0  0  0  0  0  0
  -22.3531    9.8149  -13.7213 C   0  0  0  0  0  0  0  0  0  0  0  0
  -21.4175   10.4159  -14.5602 C   0  0  0  0  0  0  0  0  0  0  0  0
  -21.3045   10.7851  -16.2430 S   0  0  0  0  0  0  0  0  0  0  0  0
  -23.4327    9.2535  -14.3304 O   0  0  0  0  0  0  0  0  0  0  0  0
  -24.6282    9.9898  -14.4726 C   0  0  0  0  0  0  0  0  0  0  0  0
  -18.5903   15.0391  -19.4891 C   0  0  0  0  0  0  0  0  0  0  0  0
  -17.7082   15.9088  -19.7578 O   0  0  0  0  0  0  0  0  0  0  0  0
  -19.9064   15.4732  -19.8809 N   0  0  0  0  0  0  0  0  0  0  0  0
  -21.1813   14.9605  -20.0982 C   0  0  0  0  0  0  0  0  0  0  0  0
  -22.1092   16.1003  -20.5264 C   0  0  0  0  0  0  0  0  0  0  0  0
  -22.4573   16.8492  -19.3738 O   0  0  0  0  0  0  0  0  0  0  0  0
  -21.2722   17.0417  -18.6652 C   0  0  0  0  0  0  0  0  0  0  0  0
  -20.0442   17.0034  -19.4796 C   0  0  0  0  0  0  0  0  0  0  0  0
  -19.5055   14.8447  -16.7112 C   0  0  0  0  0  0  0  0  0  0  0  0
  -20.7644   14.7969  -16.3976 O   0  0  0  0  0  0  0  0  0  0  0  0
  -22.2207   14.1657  -14.6756 C   0  0  0  0  0  0  0  0  0  0  0  0
  -21.9686   14.7603  -16.1203 C   0  0  0  0  0  0  0  0  0  0  0  0
 35 36  1  0  0  0
 36 34  1  0  0  0
 34 33  1  0  0  0
 33  1  1  0  0  0
  1  2  1  0  0  0
  2 13  1  0  0  0
 13 14  2  0  0  0
 14 15  1  0  0  0
 15 16  2  0  0  0
 16 17  1  0  0  0
 17 18  1  0  0  0
 17 19  2  0  0  0
 19 20  1  0  0  0
 20 23  1  0  0  0
 23 24  1  0  0  0
 20 21  2  0  0  0
 21 22  1  0  0  0
  2  3  2  0  0  0
  3  4  1  0  0  0
  4  5  1  0  0  0
  4  6  2  0  0  0
  6  7  1  0  0  0
  7  8  2  0  0  0
  8  9  1  0  0  0
  9 10  1  0  0  0
 10 25  1  0  0  0
 25 26  2  0  0  0
 25 27  1  0  0  0
 27 28  1  0  0  0
 28 29  1  0  0  0
 29 30  1  0  0  0
 30 31  1  0  0  0
 31 32  1  0  0  0
 10  1  2  0  0  0
 32 27  1  0  0  0
 22 13  1  0  0  0
  9  3  1  0  0  0
 21 15  1  0  0  0
  5 11  1  0  0  0
  5 12  1  0  0  0
M  END
> <minimizedAffinity>
-6.22143

> <CNNscore>
0.3338987231

> <CNNaffinity>
6.4099106789

> <CNN_VS>
2.1402609348

> <CNNaffinity_variance>
0.1429628581

$$$$
[H]c1nc(N([H])[H])c2c(-c3sc4c(OC([H])([H])[H])c([H])c(C([H])([H])[H])c([H])c4c3[H])c(C([H])([H])OC([H])([H])C([H])([H])[H])c(C(=O)N3C([H])([H])C([H])([H])OC([H])([H])C3([H])[H])n2n1


 36 40  0  0  0  0  0  0  0  0999 V2000
  -17.2155   15.7060  -20.2193 C   0  0  0  0  0  0  0  0  0  0  0  0
  -17.5714   14.4522  -20.3340 C   0  0  0  0  0  0  0  0  0  0  0  0
  -17.4522   14.0163  -21.7110 C   0  0  0  0  0  0  0  0  0  0  0  0
  -17.5903   12.7314  -22.2526 C   0  0  0  0  0  0  0  0  0  0  0  0
  -17.9741   11.6629  -21.4470 N   0  0  0  0  0  0  0  0  0  0  0  0
  -17.2454   12.6150  -23.5383 N   0  0  0  0  0  0  0  0  0  0  0  0
  -16.8019   13.6504  -24.2152 C   0  0  0  0  0  0  0  0  0  0  0  0
  -16.6772   14.9132  -23.6702 N   0  0  0  0  0  0  0  0  0  0  0  0
  -17.0307   15.0961  -22.3923 N   0  0  0  0  0  0  0  0  0  0  0  0
  -16.9075   16.1345  -21.5719 C   0  0  0  0  0  0  0  0  0  0  0  0
  -18.8447   11.1055  -21.5805 H   0  0  0  0  0  0  0  0  0  0  0  0
  -17.3784   11.3171  -20.6616 H   0  0  0  0  0  0  0  0  0  0  0  0
  -18.4340   13.6333  -19.4169 C   0  0  0  0  0  0  0  0  0  0  0  0
  -17.9352   12.3201  -19.0977 C   0  0  0  0  0  0  0  0  0  0  0  0
  -18.6007   11.5600  -18.2901 C   0  0  0  0  0  0  0  0  0  0  0  0
  -18.2271   10.2682  -17.7713 C   0  0  0  0  0  0  0  0  0  0  0  0
  -18.9904    9.6351  -16.8295 C   0  0  0  0  0  0  0  0  0  0  0  0
  -18.3969    8.3202  -16.3065 C   0  0  0  0  0  0  0  0  0  0  0  0
  -20.1337   10.1170  -16.2930 C   0  0  0  0  0  0  0  0  0  0  0  0
  -20.5144   11.3992  -16.8087 C   0  0  0  0  0  0  0  0  0  0  0  0
  -19.7613   12.0762  -17.7653 C   0  0  0  0  0  0  0  0  0  0  0  0
  -19.7980   13.6332  -18.5104 S   0  0  0  0  0  0  0  0  0  0  0  0
  -21.6490   12.0212  -16.3872 O   0  0  0  0  0  0  0  0  0  0  0  0
  -21.6472   12.7590  -15.1842 C   0  0  0  0  0  0  0  0  0  0  0  0
  -16.8902   17.5508  -21.7685 C   0  0  0  0  0  0  0  0  0  0  0  0
  -15.9680   18.3341  -21.3906 O   0  0  0  0  0  0  0  0  0  0  0  0
  -17.9883   18.2660  -22.3656 N   0  0  0  0  0  0  0  0  0  0  0  0
  -19.1100   18.0375  -23.1562 C   0  0  0  0  0  0  0  0  0  0  0  0
  -19.8302   19.3673  -23.3939 C   0  0  0  0  0  0  0  0  0  0  0  0
  -20.5545   19.6983  -22.2207 O   0  0  0  0  0  0  0  0  0  0  0  0
  -19.6879   19.4683  -21.1532 C   0  0  0  0  0  0  0  0  0  0  0  0
  -18.2539   19.5586  -21.4822 C   0  0  0  0  0  0  0  0  0  0  0  0
  -17.1321   16.5874  -19.0108 C   0  0  0  0  0  0  0  0  0  0  0  0
  -18.2670   16.9956  -18.5302 O   0  0  0  0  0  0  0  0  0  0  0  0
  -19.4723   17.0447  -16.5229 C   0  0  0  0  0  0  0  0  0  0  0  0
  -19.3360   17.3999  -18.0590 C   0  0  0  0  0  0  0  0  0  0  0  0
 35 36  1  0  0  0
 36 34  1  0  0  0
 34 33  1  0  0  0
 33  1  1  0  0  0
  1  2  1  0  0  0
  2 13  1  0  0  0
 13 14  2  0  0  0
 14 15  1  0  0  0
 15 16  2  0  0  0
 16 17  1  0  0  0
 17 18  1  0  0  0
 17 19  2  0  0  0
 19 20  1  0  0  0
 20 23  1  0  0  0
 23 24  1  0  0  0
 20 21  2  0  0  0
 21 22  1  0  0  0
  2  3  2  0  0  0
  3  4  1  0  0  0
  4  5  1  0  0  0
  4  6  2  0  0  0
  6  7  1  0  0  0
  7  8  2  0  0  0
  8  9  1  0  0  0
  9 10  1  0  0  0
 10 25  1  0  0  0
 25 26  2  0  0  0
 25 27  1  0  0  0
 27 28  1  0  0  0
 28 29  1  0  0  0
 29 30  1  0  0  0
 30 31  1  0  0  0
 31 32  1  0  0  0
 10  1  2  0  0  0
 32 27  1  0  0  0
 22 13  1  0  0  0
  9  3  1  0  0  0
 21 15  1  0  0  0
  5 11  1  0  0  0
  5 12  1  0  0  0
M  END
> <minimizedAffinity>
-7.43415

> <CNNscore>
0.2176051289

> <CNNaffinity>
6.9126558304

> <CNN_VS>
1.5042293072

> <CNNaffinity_variance>
0.1613738835

$$$$
[H]c1c([H])c([H])c(C2(C(=O)N3C([H])([H])C([H])([H])C([H])([H])C3([H])[H])C([H])([H])C([H])([H])N(C([H])([H])C([H])([H])[C@@]3(c4c([H])c([H])c(Cl)c(Cl)c4[H])C([H])([H])N(C(=O)c4c([H])c(OC([H])([H])[H])c(OC([H])([H])[H])c(OC([H])([H])[H])c4[H])C([H])([H])C3([H])[H])C([H])([H])C2([H])[H])c([H])c1[H]


 48 53  0  0  0  0  0  0  0  0999 V2000
  -19.7659   13.5573  -17.0648 C   0  0  0  0  0  0  0  0  0  0  0  0
  -18.5195   13.7655  -16.6899 O   0  0  0  0  0  0  0  0  0  0  0  0
  -20.1223   14.3284  -18.1623 N   0  0  0  0  0  0  0  0  0  0  0  0
  -21.2761   14.5185  -18.9809 C   0  0  0  0  0  0  0  0  0  0  0  0
  -20.6639   14.3659  -20.4021 C   0  0  0  0  0  0  0  0  0  0  0  0
  -19.2440   14.8982  -20.2190 C   0  0  0  0  0  0  0  0  0  0  0  0
  -19.1759   15.3150  -18.8168 C   0  0  0  0  0  0  0  0  0  0  0  0
  -18.3198   13.8607  -20.6868 C   0  0  0  0  0  0  0  0  0  0  0  0
  -17.7803   13.7996  -21.9286 C   0  0  0  0  0  0  0  0  0  0  0  0
  -16.9222   12.7617  -22.2403 C   0  0  0  0  0  0  0  0  0  0  0  0
  -16.5863   11.7706  -21.3309 C   0  0  0  0  0  0  0  0  0  0  0  0
  -15.4840   10.4680  -21.7763 Cl  0  0  0  0  0  0  0  0  0  0  0  0
  -17.1470   11.8487  -20.0701 C   0  0  0  0  0  0  0  0  0  0  0  0
  -16.7156   10.5894  -18.9323 Cl  0  0  0  0  0  0  0  0  0  0  0  0
  -18.0094   12.8772  -19.7284 C   0  0  0  0  0  0  0  0  0  0  0  0
  -20.7295   10.2807  -15.5807 C   0  0  0  0  0  0  0  0  0  0  0  0
  -20.1095   11.2280  -16.3521 C   0  0  0  0  0  0  0  0  0  0  0  0
  -20.4401   12.5983  -16.2603 C   0  0  0  0  0  0  0  0  0  0  0  0
  -21.4122   12.9172  -15.3559 C   0  0  0  0  0  0  0  0  0  0  0  0
  -22.0434   11.9396  -14.5685 C   0  0  0  0  0  0  0  0  0  0  0  0
  -21.7077   10.6138  -14.6739 C   0  0  0  0  0  0  0  0  0  0  0  0
  -19.0970    8.5889  -16.0916 C   0  0  0  0  0  0  0  0  0  0  0  0
  -20.4000    8.9348  -15.6790 O   0  0  0  0  0  0  0  0  0  0  0  0
  -23.0392   12.3001  -13.6501 O   0  0  0  0  0  0  0  0  0  0  0  0
  -22.6483   12.8589  -12.4250 C   0  0  0  0  0  0  0  0  0  0  0  0
  -22.3301    9.6465  -13.8971 O   0  0  0  0  0  0  0  0  0  0  0  0
  -23.5027    9.0402  -14.4033 C   0  0  0  0  0  0  0  0  0  0  0  0
  -19.0923   16.0527  -21.2295 C   0  0  0  0  0  0  0  0  0  0  0  0
  -19.4371   17.3597  -20.5688 C   0  0  0  0  0  0  0  0  0  0  0  0
  -20.0402   18.2315  -21.5650 N   0  0  0  0  0  0  0  0  0  0  0  0
  -21.2839   17.7014  -22.0451 C   0  0  0  0  0  0  0  0  0  0  0  0
  -22.4533   18.2451  -21.3258 C   0  0  0  0  0  0  0  0  0  0  0  0
  -22.5123   19.7388  -21.7059 C   0  0  0  0  0  0  0  0  0  0  0  0
  -21.2615   20.4024  -21.2431 C   0  0  0  0  0  0  0  0  0  0  0  0
  -20.0358   19.5981  -21.1671 C   0  0  0  0  0  0  0  0  0  0  0  0
  -23.6728   20.3064  -20.9880 C   0  0  0  0  0  0  0  0  0  0  0  0
  -24.2756   19.5039  -20.1738 O   0  0  0  0  0  0  0  0  0  0  0  0
  -24.1799   21.6050  -21.0960 N   0  0  0  0  0  0  0  0  0  0  0  0
  -23.8163   22.7682  -21.8625 C   0  0  0  0  0  0  0  0  0  0  0  0
  -25.1719   23.0776  -22.5270 C   0  0  0  0  0  0  0  0  0  0  0  0
  -26.1929   22.6143  -21.4811 C   0  0  0  0  0  0  0  0  0  0  0  0
  -25.3539   22.0718  -20.3261 C   0  0  0  0  0  0  0  0  0  0  0  0
  -22.7108   19.7850  -23.1599 C   0  0  0  0  0  0  0  0  0  0  0  0
  -21.9075   20.4772  -24.0440 C   0  0  0  0  0  0  0  0  0  0  0  0
  -22.0990   20.5179  -25.4052 C   0  0  0  0  0  0  0  0  0  0  0  0
  -23.1641   19.8245  -25.9447 C   0  0  0  0  0  0  0  0  0  0  0  0
  -23.9841   19.1235  -25.0835 C   0  0  0  0  0  0  0  0  0  0  0  0
  -23.7730   19.0947  -23.7065 C   0  0  0  0  0  0  0  0  0  0  0  0
 22 23  1  0  0  0
 23 16  1  0  0  0
 16 17  2  0  0  0
 17 18  1  0  0  0
 18 19  2  0  0  0
 19 20  1  0  0  0
 20 24  1  0  0  0
 24 25  1  0  0  0
 20 21  2  0  0  0
 21 26  1  0  0  0
 26 27  1  0  0  0
 18  1  1  0  0  0
  1  2  2  0  0  0
  1  3  1  0  0  0
  3  4  1  0  0  0
  4  5  1  0  0  0
  5  6  1  0  0  0
  6 28  1  0  0  0
 28 29  1  0  0  0
 29 30  1  0  0  0
 30 31  1  0  0  0
 31 32  1  0  0  0
 32 33  1  0  0  0
 33 34  1  0  0  0
 34 35  1  0  0  0
 33 36  1  0  0  0
 36 37  2  0  0  0
 36 38  1  0  0  0
 38 39  1  0  0  0
 39 40  1  0  0  0
 40 41  1  0  0  0
 41 42  1  0  0  0
 33 43  1  0  0  0
 43 44  2  0  0  0
 44 45  1  0  0  0
 45 46  2  0  0  0
 46 47  1  0  0  0
 47 48  2  0  0  0
  6  7  1  0  0  0
  6  8  1  0  0  0
  8  9  2  0  0  0
  9 10  1  0  0  0
 10 11  2  0  0  0
 11 12  1  0  0  0
 11 13  1  0  0  0
 13 14  1  0  0  0
 13 15  2  0  0  0
 21 16  1  0  0  0
  7  3  1  0  0  0
 15  8  1  0  0  0
 35 30  1  0  0  0
 42 38  1  0  0  0
 48 43  1  0  0  0
M  END
> <minimizedAffinity>
-8.70037

> <CNNscore>
0.4568436146

> <CNNaffinity>
7.6765031815

> <CNN_VS>
3.5069613457

> <CNNaffinity_variance>
0.0754791424

$$$$
[H]c1c([H])c([H])c(C2(C(=O)N3C([H])([H])C([H])([H])C([H])([H])C3([H])[H])C([H])([H])C([H])([H])N(C([H])([H])C([H])([H])[C@@]3(c4c([H])c([H])c(Cl)c(Cl)c4[H])C([H])([H])N(C(=O)c4c([H])c(OC([H])([H])[H])c(OC([H])([H])[H])c(OC([H])([H])[H])c4[H])C([H])([H])C3([H])[H])C([H])([H])C2([H])[H])c([H])c1[H]


 48 53  0  0  0  0  0  0  0  0999 V2000
  -19.7973   13.6949  -16.8786 C   0  0  0  0  0  0  0  0  0  0  0  0
  -18.5375   13.9271  -16.5680 O   0  0  0  0  0  0  0  0  0  0  0  0
  -20.1918   14.3730  -18.0235 N   0  0  0  0  0  0  0  0  0  0  0  0
  -21.3743   14.4998  -18.8129 C   0  0  0  0  0  0  0  0  0  0  0  0
  -20.8147   14.2250  -20.2374 C   0  0  0  0  0  0  0  0  0  0  0  0
  -19.3878   14.7631  -20.1514 C   0  0  0  0  0  0  0  0  0  0  0  0
  -19.2676   15.2960  -18.7926 C   0  0  0  0  0  0  0  0  0  0  0  0
  -18.4838   13.6849  -20.5633 C   0  0  0  0  0  0  0  0  0  0  0  0
  -17.7628   13.6678  -21.7108 C   0  0  0  0  0  0  0  0  0  0  0  0
  -16.9483   12.5836  -21.9789 C   0  0  0  0  0  0  0  0  0  0  0  0
  -16.8357   11.5023  -21.1185 C   0  0  0  0  0  0  0  0  0  0  0  0
  -15.7800   10.1433  -21.5045 Cl  0  0  0  0  0  0  0  0  0  0  0  0
  -17.5792   11.5368  -19.9540 C   0  0  0  0  0  0  0  0  0  0  0  0
  -17.4287   10.1638  -18.8775 Cl  0  0  0  0  0  0  0  0  0  0  0  0
  -18.4033   12.6098  -19.6578 C   0  0  0  0  0  0  0  0  0  0  0  0
  -22.2875   12.3680  -14.4486 C   0  0  0  0  0  0  0  0  0  0  0  0
  -21.6320   13.2015  -15.3160 C   0  0  0  0  0  0  0  0  0  0  0  0
  -20.4439   12.8106  -15.9723 C   0  0  0  0  0  0  0  0  0  0  0  0
  -19.9930   11.5532  -15.6891 C   0  0  0  0  0  0  0  0  0  0  0  0
  -20.6711   10.7043  -14.7981 C   0  0  0  0  0  0  0  0  0  0  0  0
  -21.8234   11.1041  -14.1706 C   0  0  0  0  0  0  0  0  0  0  0  0
  -24.0689   13.9663  -14.2028 C   0  0  0  0  0  0  0  0  0  0  0  0
  -23.4543   12.7613  -13.8055 O   0  0  0  0  0  0  0  0  0  0  0  0
  -20.1807    9.4193  -14.5276 O   0  0  0  0  0  0  0  0  0  0  0  0
  -19.1230    8.9295  -15.3071 C   0  0  0  0  0  0  0  0  0  0  0  0
  -22.4947   10.2672  -13.2900 O   0  0  0  0  0  0  0  0  0  0  0  0
  -23.4336    9.3550  -13.8244 C   0  0  0  0  0  0  0  0  0  0  0  0
  -19.2705   15.8277  -21.2603 C   0  0  0  0  0  0  0  0  0  0  0  0
  -19.3692   17.2041  -20.6608 C   0  0  0  0  0  0  0  0  0  0  0  0
  -20.0087   18.0809  -21.6297 N   0  0  0  0  0  0  0  0  0  0  0  0
  -21.2219   17.5081  -22.1382 C   0  0  0  0  0  0  0  0  0  0  0  0
  -22.4209   17.9672  -21.4088 C   0  0  0  0  0  0  0  0  0  0  0  0
  -22.5513   19.4690  -21.7353 C   0  0  0  0  0  0  0  0  0  0  0  0
  -21.3376   20.1760  -21.2392 C   0  0  0  0  0  0  0  0  0  0  0  0
  -20.0741   19.4307  -21.1828 C   0  0  0  0  0  0  0  0  0  0  0  0
  -23.7426   19.9525  -21.0064 C   0  0  0  0  0  0  0  0  0  0  0  0
  -24.4546   19.0414  -20.4291 O   0  0  0  0  0  0  0  0  0  0  0  0
  -24.1741   21.2763  -20.8775 N   0  0  0  0  0  0  0  0  0  0  0  0
  -23.6868   22.5455  -21.3509 C   0  0  0  0  0  0  0  0  0  0  0  0
  -24.9604   23.0744  -22.0388 C   0  0  0  0  0  0  0  0  0  0  0  0
  -26.0928   22.4746  -21.1966 C   0  0  0  0  0  0  0  0  0  0  0  0
  -25.3885   21.6515  -20.1202 C   0  0  0  0  0  0  0  0  0  0  0  0
  -22.7432   19.5582  -23.1882 C   0  0  0  0  0  0  0  0  0  0  0  0
  -23.6106   18.7712  -23.9190 C   0  0  0  0  0  0  0  0  0  0  0  0
  -23.7853   18.8584  -25.2803 C   0  0  0  0  0  0  0  0  0  0  0  0
  -23.0506   19.7924  -25.9834 C   0  0  0  0  0  0  0  0  0  0  0  0
  -22.1753   20.5931  -25.2777 C   0  0  0  0  0  0  0  0  0  0  0  0
  -22.0126   20.4891  -23.8977 C   0  0  0  0  0  0  0  0  0  0  0  0
 22 23  1  0  0  0
 23 16  1  0  0  0
 16 17  2  0  0  0
 17 18  1  0  0  0
 18 19  2  0  0  0
 19 20  1  0  0  0
 20 24  1  0  0  0
 24 25  1  0  0  0
 20 21  2  0  0  0
 21 26  1  0  0  0
 26 27  1  0  0  0
 18  1  1  0  0  0
  1  2  2  0  0  0
  1  3  1  0  0  0
  3  4  1  0  0  0
  4  5  1  0  0  0
  5  6  1  0  0  0
  6 28  1  0  0  0
 28 29  1  0  0  0
 29 30  1  0  0  0
 30 31  1  0  0  0
 31 32  1  0  0  0
 32 33  1  0  0  0
 33 34  1  0  0  0
 34 35  1  0  0  0
 33 36  1  0  0  0
 36 37  2  0  0  0
 36 38  1  0  0  0
 38 39  1  0  0  0
 39 40  1  0  0  0
 40 41  1  0  0  0
 41 42  1  0  0  0
 33 43  1  0  0  0
 43 44  2  0  0  0
 44 45  1  0  0  0
 45 46  2  0  0  0
 46 47  1  0  0  0
 47 48  2  0  0  0
  6  7  1  0  0  0
  6  8  1  0  0  0
  8  9  2  0  0  0
  9 10  1  0  0  0
 10 11  2  0  0  0
 11 12  1  0  0  0
 11 13  1  0  0  0
 13 14  1  0  0  0
 13 15  2  0  0  0
 21 16  1  0  0  0
  7  3  1  0  0  0
 15  8  1  0  0  0
 35 30  1  0  0  0
 42 38  1  0  0  0
 48 43  1  0  0  0
M  END
> <minimizedAffinity>
-8.63489

> <CNNscore>
0.4543134272

> <CNNaffinity>
7.6618242264

> <CNN_VS>
3.4808695316

> <CNNaffinity_variance>
0.0402041711

$$$$
[H]c1c([H])c([H])c(C2(C(=O)N3C([H])([H])C([H])([H])C([H])([H])C3([H])[H])C([H])([H])C([H])([H])N(C([H])([H])C([H])([H])[C@@]3(c4c([H])c([H])c(Cl)c(Cl)c4[H])C([H])([H])N(C(=O)c4c([H])c(OC([H])([H])[H])c(OC([H])([H])[H])c(OC([H])([H])[H])c4[H])C([H])([H])C3([H])[H])C([H])([H])C2([H])[H])c([H])c1[H]


 48 53  0  0  0  0  0  0  0  0999 V2000
  -20.7495   15.0672  -19.7406 C   0  0  0  0  0  0  0  0  0  0  0  0
  -21.4176   14.1146  -20.3599 O   0  0  0  0  0  0  0  0  0  0  0  0
  -20.4616   14.7387  -18.4233 N   0  0  0  0  0  0  0  0  0  0  0  0
  -19.7880   15.3366  -17.3159 C   0  0  0  0  0  0  0  0  0  0  0  0
  -18.8414   14.1820  -16.8818 C   0  0  0  0  0  0  0  0  0  0  0  0
  -19.6418   12.9324  -17.2436 C   0  0  0  0  0  0  0  0  0  0  0  0
  -20.9055   13.4380  -17.7840 C   0  0  0  0  0  0  0  0  0  0  0  0
  -18.7955   12.0998  -18.1039 C   0  0  0  0  0  0  0  0  0  0  0  0
  -18.4290   10.8228  -17.8360 C   0  0  0  0  0  0  0  0  0  0  0  0
  -17.6222   10.1506  -18.7348 C   0  0  0  0  0  0  0  0  0  0  0  0
  -17.1663   10.7302  -19.9089 C   0  0  0  0  0  0  0  0  0  0  0  0
  -16.1406    9.8293  -21.0254 Cl  0  0  0  0  0  0  0  0  0  0  0  0
  -17.5493   12.0332  -20.1646 C   0  0  0  0  0  0  0  0  0  0  0  0
  -16.9647   12.7534  -21.6500 Cl  0  0  0  0  0  0  0  0  0  0  0  0
  -18.3576   12.7319  -19.2832 C   0  0  0  0  0  0  0  0  0  0  0  0
  -18.9023   17.4898  -21.8821 C   0  0  0  0  0  0  0  0  0  0  0  0
  -19.1865   16.4222  -21.0720 C   0  0  0  0  0  0  0  0  0  0  0  0
  -20.4856   16.1941  -20.5665 C   0  0  0  0  0  0  0  0  0  0  0  0
  -21.4366   17.1014  -20.9366 C   0  0  0  0  0  0  0  0  0  0  0  0
  -21.1370   18.1939  -21.7678 C   0  0  0  0  0  0  0  0  0  0  0  0
  -19.8681   18.3974  -22.2475 C   0  0  0  0  0  0  0  0  0  0  0  0
  -16.8308   16.5911  -22.7125 C   0  0  0  0  0  0  0  0  0  0  0  0
  -17.6212   17.7080  -22.3731 O   0  0  0  0  0  0  0  0  0  0  0  0
  -22.1363   19.1086  -22.1281 O   0  0  0  0  0  0  0  0  0  0  0  0
  -23.0066   18.7703  -23.1742 C   0  0  0  0  0  0  0  0  0  0  0  0
  -19.5700   19.4760  -23.0686 O   0  0  0  0  0  0  0  0  0  0  0  0
  -19.1633   20.6845  -22.4577 C   0  0  0  0  0  0  0  0  0  0  0  0
  -19.7896   12.1318  -15.9343 C   0  0  0  0  0  0  0  0  0  0  0  0
  -21.2001   11.6257  -15.8005 C   0  0  0  0  0  0  0  0  0  0  0  0
  -21.2817   10.8091  -14.5993 N   0  0  0  0  0  0  0  0  0  0  0  0
  -22.3232    9.8275  -14.6994 C   0  0  0  0  0  0  0  0  0  0  0  0
  -21.8315    8.5176  -15.1713 C   0  0  0  0  0  0  0  0  0  0  0  0
  -20.9254    7.9868  -14.0416 C   0  0  0  0  0  0  0  0  0  0  0  0
  -19.7896    8.9319  -13.8522 C   0  0  0  0  0  0  0  0  0  0  0  0
  -20.0063   10.3497  -14.1653 C   0  0  0  0  0  0  0  0  0  0  0  0
  -20.4136    6.6775  -14.4977 C   0  0  0  0  0  0  0  0  0  0  0  0
  -20.6252    6.3951  -15.7410 O   0  0  0  0  0  0  0  0  0  0  0  0
  -19.7324    5.7246  -13.7341 N   0  0  0  0  0  0  0  0  0  0  0  0
  -19.3107    5.6489  -12.3597 C   0  0  0  0  0  0  0  0  0  0  0  0
  -19.9372    4.2965  -11.9681 C   0  0  0  0  0  0  0  0  0  0  0  0
  -19.8881    3.4925  -13.2729 C   0  0  0  0  0  0  0  0  0  0  0  0
  -19.2611    4.4390  -14.2944 C   0  0  0  0  0  0  0  0  0  0  0  0
  -21.7848    7.8406  -12.8602 C   0  0  0  0  0  0  0  0  0  0  0  0
  -21.5567    8.4436  -11.6394 C   0  0  0  0  0  0  0  0  0  0  0  0
  -22.3647    8.3020  -10.5357 C   0  0  0  0  0  0  0  0  0  0  0  0
  -23.4877    7.5049  -10.6354 C   0  0  0  0  0  0  0  0  0  0  0  0
  -23.7403    6.8895  -11.8449 C   0  0  0  0  0  0  0  0  0  0  0  0
  -22.9088    7.0456  -12.9521 C   0  0  0  0  0  0  0  0  0  0  0  0
 22 23  1  0  0  0
 23 16  1  0  0  0
 16 17  2  0  0  0
 17 18  1  0  0  0
 18 19  2  0  0  0
 19 20  1  0  0  0
 20 24  1  0  0  0
 24 25  1  0  0  0
 20 21  2  0  0  0
 21 26  1  0  0  0
 26 27  1  0  0  0
 18  1  1  0  0  0
  1  2  2  0  0  0
  1  3  1  0  0  0
  3  4  1  0  0  0
  4  5  1  0  0  0
  5  6  1  0  0  0
  6 28  1  0  0  0
 28 29  1  0  0  0
 29 30  1  0  0  0
 30 31  1  0  0  0
 31 32  1  0  0  0
 32 33  1  0  0  0
 33 34  1  0  0  0
 34 35  1  0  0  0
 33 36  1  0  0  0
 36 37  2  0  0  0
 36 38  1  0  0  0
 38 39  1  0  0  0
 39 40  1  0  0  0
 40 41  1  0  0  0
 41 42  1  0  0  0
 33 43  1  0  0  0
 43 44  2  0  0  0
 44 45  1  0  0  0
 45 46  2  0  0  0
 46 47  1  0  0  0
 47 48  2  0  0  0
  6  7  1  0  0  0
  6  8  1  0  0  0
  8  9  2  0  0  0
  9 10  1  0  0  0
 10 11  2  0  0  0
 11 12  1  0  0  0
 11 13  1  0  0  0
 13 14  1  0  0  0
 13 15  2  0  0  0
 21 16  1  0  0  0
  7  3  1  0  0  0
 15  8  1  0  0  0
 35 30  1  0  0  0
 42 38  1  0  0  0
 48 43  1  0  0  0
M  END
> <minimizedAffinity>
-7.93845

> <CNNscore>
0.3485393226

> <CNNaffinity>
7.3251762390

> <CNN_VS>
2.5531120300

> <CNNaffinity_variance>
0.4601310790

$$$$
[H]c1c([H])c([H])c(C2(C(=O)N3C([H])([H])C([H])([H])C([H])([H])C3([H])[H])C([H])([H])C([H])([H])N(C([H])([H])C([H])([H])[C@@]3(c4c([H])c([H])c(Cl)c(Cl)c4[H])C([H])([H])N(C(=O)c4c([H])c(OC([H])([H])[H])c(OC([H])([H])[H])c(OC([H])([H])[H])c4[H])C([H])([H])C3([H])[H])C([H])([H])C2([H])[H])c([H])c1[H]


 48 53  0  0  0  0  0  0  0  0999 V2000
  -21.0281   11.7170  -15.3342 C   0  0  0  0  0  0  0  0  0  0  0  0
  -19.9674   11.2140  -14.7349 O   0  0  0  0  0  0  0  0  0  0  0  0
  -20.7459   12.9024  -15.9986 N   0  0  0  0  0  0  0  0  0  0  0  0
  -21.4532   13.8535  -16.7940 C   0  0  0  0  0  0  0  0  0  0  0  0
  -20.5134   13.9711  -18.0272 C   0  0  0  0  0  0  0  0  0  0  0  0
  -19.1308   13.7294  -17.4247 C   0  0  0  0  0  0  0  0  0  0  0  0
  -19.3717   13.5419  -15.9924 C   0  0  0  0  0  0  0  0  0  0  0  0
  -18.5054   12.6384  -18.1784 C   0  0  0  0  0  0  0  0  0  0  0  0
  -18.3525   11.3687  -17.7298 C   0  0  0  0  0  0  0  0  0  0  0  0
  -17.7402   10.4351  -18.5448 C   0  0  0  0  0  0  0  0  0  0  0  0
  -17.2704   10.7429  -19.8124 C   0  0  0  0  0  0  0  0  0  0  0  0
  -16.4984    9.5149  -20.8155 Cl  0  0  0  0  0  0  0  0  0  0  0  0
  -17.4340   12.0428  -20.2524 C   0  0  0  0  0  0  0  0  0  0  0  0
  -16.8343   12.4180  -21.8543 Cl  0  0  0  0  0  0  0  0  0  0  0  0
  -18.0443   12.9998  -19.4586 C   0  0  0  0  0  0  0  0  0  0  0  0
  -24.4444   10.7044  -14.2524 C   0  0  0  0  0  0  0  0  0  0  0  0
  -23.2973   11.4325  -14.4281 C   0  0  0  0  0  0  0  0  0  0  0  0
  -22.1979   10.9284  -15.1577 C   0  0  0  0  0  0  0  0  0  0  0  0
  -22.3515    9.6744  -15.6758 C   0  0  0  0  0  0  0  0  0  0  0  0
  -23.5312    8.9339  -15.4910 C   0  0  0  0  0  0  0  0  0  0  0  0
  -24.5872    9.4422  -14.7782 C   0  0  0  0  0  0  0  0  0  0  0  0
  -25.3171   11.5712  -12.1846 C   0  0  0  0  0  0  0  0  0  0  0  0
  -25.5202   11.2069  -13.5314 O   0  0  0  0  0  0  0  0  0  0  0  0
  -23.6564    7.6480  -16.0348 O   0  0  0  0  0  0  0  0  0  0  0  0
  -22.6767    6.6934  -15.7266 C   0  0  0  0  0  0  0  0  0  0  0  0
  -25.7534    8.7123  -14.5944 O   0  0  0  0  0  0  0  0  0  0  0  0
  -26.9045    9.1055  -15.3150 C   0  0  0  0  0  0  0  0  0  0  0  0
  -18.2967   14.9801  -17.7668 C   0  0  0  0  0  0  0  0  0  0  0  0
  -19.0723   15.8740  -18.6957 C   0  0  0  0  0  0  0  0  0  0  0  0
  -18.2769   16.0892  -19.8946 N   0  0  0  0  0  0  0  0  0  0  0  0
  -18.9839   15.6842  -21.0755 C   0  0  0  0  0  0  0  0  0  0  0  0
  -19.6918   16.8025  -21.7303 C   0  0  0  0  0  0  0  0  0  0  0  0
  -18.5847   17.7367  -22.2598 C   0  0  0  0  0  0  0  0  0  0  0  0
  -17.7819   18.2324  -21.1071 C   0  0  0  0  0  0  0  0  0  0  0  0
  -17.6678   17.3754  -19.9206 C   0  0  0  0  0  0  0  0  0  0  0  0
  -19.2723   18.8705  -22.9125 C   0  0  0  0  0  0  0  0  0  0  0  0
  -18.7292   19.3032  -24.0025 O   0  0  0  0  0  0  0  0  0  0  0  0
  -20.4349   19.5155  -22.4794 N   0  0  0  0  0  0  0  0  0  0  0  0
  -21.3189   19.3515  -21.3550 C   0  0  0  0  0  0  0  0  0  0  0  0
  -21.3142   20.7916  -20.8065 C   0  0  0  0  0  0  0  0  0  0  0  0
  -21.1379   21.6493  -22.0653 C   0  0  0  0  0  0  0  0  0  0  0  0
  -21.0425   20.6471  -23.2137 C   0  0  0  0  0  0  0  0  0  0  0  0
  -17.8137   16.9507  -23.2312 C   0  0  0  0  0  0  0  0  0  0  0  0
  -18.3471   15.9965  -24.0744 C   0  0  0  0  0  0  0  0  0  0  0  0
  -17.6197   15.2622  -24.9816 C   0  0  0  0  0  0  0  0  0  0  0  0
  -16.2591   15.4800  -25.0704 C   0  0  0  0  0  0  0  0  0  0  0  0
  -15.6991   16.4287  -24.2387 C   0  0  0  0  0  0  0  0  0  0  0  0
  -16.4536   17.1626  -23.3257 C   0  0  0  0  0  0  0  0  0  0  0  0
 22 23  1  0  0  0
 23 16  1  0  0  0
 16 17  2  0  0  0
 17 18  1  0  0  0
 18 19  2  0  0  0
 19 20  1  0  0  0
 20 24  1  0  0  0
 24 25  1  0  0  0
 20 21  2  0  0  0
 21 26  1  0  0  0
 26 27  1  0  0  0
 18  1  1  0  0  0
  1  2  2  0  0  0
  1  3  1  0  0  0
  3  4  1  0  0  0
  4  5  1  0  0  0
  5  6  1  0  0  0
  6 28  1  0  0  0
 28 29  1  0  0  0
 29 30  1  0  0  0
 30 31  1  0  0  0
 31 32  1  0  0  0
 32 33  1  0  0  0
 33 34  1  0  0  0
 34 35  1  0  0  0
 33 36  1  0  0  0
 36 37  2  0  0  0
 36 38  1  0  0  0
 38 39  1  0  0  0
 39 40  1  0  0  0
 40 41  1  0  0  0
 41 42  1  0  0  0
 33 43  1  0  0  0
 43 44  2  0  0  0
 44 45  1  0  0  0
 45 46  2  0  0  0
 46 47  1  0  0  0
 47 48  2  0  0  0
  6  7  1  0  0  0
  6  8  1  0  0  0
  8  9  2  0  0  0
  9 10  1  0  0  0
 10 11  2  0  0  0
 11 12  1  0  0  0
 11 13  1  0  0  0
 13 14  1  0  0  0
 13 15  2  0  0  0
 21 16  1  0  0  0
  7  3  1  0  0  0
 15  8  1  0  0  0
 35 30  1  0  0  0
 42 38  1  0  0  0
 48 43  1  0  0  0
M  END
> <minimizedAffinity>
-8.56458

> <CNNscore>
0.2591090202

> <CNNaffinity>
7.7056550980

> <CNN_VS>
1.9966048002

> <CNNaffinity_variance>
0.1389251649

$$$$
[H]c1c([H])c([H])c(C2(C(=O)N3C([H])([H])C([H])([H])C([H])([H])C3([H])[H])C([H])([H])C([H])([H])N(C([H])([H])C([H])([H])[C@@]3(c4c([H])c([H])c(Cl)c(Cl)c4[H])C([H])([H])N(C(=O)c4c([H])c(OC([H])([H])[H])c(OC([H])([H])[H])c(OC([H])([H])[H])c4[H])C([H])([H])C3([H])[H])C([H])([H])C2([H])[H])c([H])c1[H]


 48 53  0  0  0  0  0  0  0  0999 V2000
  -20.7467   12.4631  -15.7902 C   0  0  0  0  0  0  0  0  0  0  0  0
  -19.6082   12.2236  -15.1707 O   0  0  0  0  0  0  0  0  0  0  0  0
  -20.6356   13.4868  -16.7208 N   0  0  0  0  0  0  0  0  0  0  0  0
  -21.4848   14.1513  -17.6561 C   0  0  0  0  0  0  0  0  0  0  0  0
  -20.6226   14.0788  -18.9480 C   0  0  0  0  0  0  0  0  0  0  0  0
  -19.1951   14.1262  -18.4067 C   0  0  0  0  0  0  0  0  0  0  0  0
  -19.3466   14.2490  -16.9553 C   0  0  0  0  0  0  0  0  0  0  0  0
  -18.4818   12.9618  -18.9403 C   0  0  0  0  0  0  0  0  0  0  0  0
  -18.2302   11.8201  -18.2546 C   0  0  0  0  0  0  0  0  0  0  0  0
  -17.5422   10.7966  -18.8789 C   0  0  0  0  0  0  0  0  0  0  0  0
  -17.0931   10.8870  -20.1874 C   0  0  0  0  0  0  0  0  0  0  0  0
  -16.2216    9.5515  -20.9406 Cl  0  0  0  0  0  0  0  0  0  0  0  0
  -17.3577   12.0590  -20.8705 C   0  0  0  0  0  0  0  0  0  0  0  0
  -16.7830   12.1602  -22.5216 Cl  0  0  0  0  0  0  0  0  0  0  0  0
  -18.0455   13.1014  -20.2716 C   0  0  0  0  0  0  0  0  0  0  0  0
  -23.8641   11.3386  -14.0918 C   0  0  0  0  0  0  0  0  0  0  0  0
  -22.8210   12.1206  -14.5129 C   0  0  0  0  0  0  0  0  0  0  0  0
  -21.8072   11.6197  -15.3593 C   0  0  0  0  0  0  0  0  0  0  0  0
  -21.9335   10.3118  -15.7307 C   0  0  0  0  0  0  0  0  0  0  0  0
  -23.0064    9.5163  -15.2944 C   0  0  0  0  0  0  0  0  0  0  0  0
  -23.9804   10.0225  -14.4718 C   0  0  0  0  0  0  0  0  0  0  0  0
  -24.6717   13.1117  -12.6802 C   0  0  0  0  0  0  0  0  0  0  0  0
  -24.8559   11.8387  -13.2574 O   0  0  0  0  0  0  0  0  0  0  0  0
  -23.1062    8.1761  -15.6928 O   0  0  0  0  0  0  0  0  0  0  0  0
  -22.0521    7.3056  -15.3807 C   0  0  0  0  0  0  0  0  0  0  0  0
  -25.0410    9.2384  -14.0396 O   0  0  0  0  0  0  0  0  0  0  0  0
  -26.2538    9.3028  -14.7634 C   0  0  0  0  0  0  0  0  0  0  0  0
  -18.5293   15.3441  -19.0779 C   0  0  0  0  0  0  0  0  0  0  0  0
  -18.7559   16.5754  -18.2437 C   0  0  0  0  0  0  0  0  0  0  0  0
  -19.4136   17.5748  -19.0714 N   0  0  0  0  0  0  0  0  0  0  0  0
  -18.5469   18.6848  -19.3457 C   0  0  0  0  0  0  0  0  0  0  0  0
  -17.8350   18.5505  -20.6324 C   0  0  0  0  0  0  0  0  0  0  0  0
  -18.9255   18.6508  -21.7185 C   0  0  0  0  0  0  0  0  0  0  0  0
  -19.8893   17.5295  -21.5372 C   0  0  0  0  0  0  0  0  0  0  0  0
  -20.0923   17.0004  -20.1829 C   0  0  0  0  0  0  0  0  0  0  0  0
  -18.2349   18.5093  -23.0174 C   0  0  0  0  0  0  0  0  0  0  0  0
  -18.6003   19.3376  -23.9398 O   0  0  0  0  0  0  0  0  0  0  0  0
  -17.2395   17.5846  -23.3483 N   0  0  0  0  0  0  0  0  0  0  0  0
  -16.5721   16.5252  -22.6379 C   0  0  0  0  0  0  0  0  0  0  0  0
  -16.8132   15.3608  -23.6181 C   0  0  0  0  0  0  0  0  0  0  0  0
  -16.8273   16.0487  -24.9884 C   0  0  0  0  0  0  0  0  0  0  0  0
  -16.6115   17.5301  -24.6868 C   0  0  0  0  0  0  0  0  0  0  0  0
  -19.5252   19.9834  -21.5765 C   0  0  0  0  0  0  0  0  0  0  0  0
  -20.8810   20.2434  -21.5877 C   0  0  0  0  0  0  0  0  0  0  0  0
  -21.4372   21.4942  -21.4554 C   0  0  0  0  0  0  0  0  0  0  0  0
  -20.5972   22.5789  -21.2996 C   0  0  0  0  0  0  0  0  0  0  0  0
  -19.2363   22.3479  -21.2849 C   0  0  0  0  0  0  0  0  0  0  0  0
  -18.6923   21.0723  -21.4205 C   0  0  0  0  0  0  0  0  0  0  0  0
 22 23  1  0  0  0
 23 16  1  0  0  0
 16 17  2  0  0  0
 17 18  1  0  0  0
 18 19  2  0  0  0
 19 20  1  0  0  0
 20 24  1  0  0  0
 24 25  1  0  0  0
 20 21  2  0  0  0
 21 26  1  0  0  0
 26 27  1  0  0  0
 18  1  1  0  0  0
  1  2  2  0  0  0
  1  3  1  0  0  0
  3  4  1  0  0  0
  4  5  1  0  0  0
  5  6  1  0  0  0
  6 28  1  0  0  0
 28 29  1  0  0  0
 29 30  1  0  0  0
 30 31  1  0  0  0
 31 32  1  0  0  0
 32 33  1  0  0  0
 33 34  1  0  0  0
 34 35  1  0  0  0
 33 36  1  0  0  0
 36 37  2  0  0  0
 36 38  1  0  0  0
 38 39  1  0  0  0
 39 40  1  0  0  0
 40 41  1  0  0  0
 41 42  1  0  0  0
 33 43  1  0  0  0
 43 44  2  0  0  0
 44 45  1  0  0  0
 45 46  2  0  0  0
 46 47  1  0  0  0
 47 48  2  0  0  0
  6  7  1  0  0  0
  6  8  1  0  0  0
  8  9  2  0  0  0
  9 10  1  0  0  0
 10 11  2  0  0  0
 11 12  1  0  0  0
 11 13  1  0  0  0
 13 14  1  0  0  0
 13 15  2  0  0  0
 21 16  1  0  0  0
  7  3  1  0  0  0
 15  8  1  0  0  0
 35 30  1  0  0  0
 42 38  1  0  0  0
 48 43  1  0  0  0
M  END
> <minimizedAffinity>
-8.49563

> <CNNscore>
0.2389452606

> <CNNaffinity>
7.5426483154

> <CNN_VS>
1.8022800684

> <CNNaffinity_variance>
0.2647145987

$$$$
[H]c1c([H])c([H])c(C2(C(=O)N3C([H])([H])C([H])([H])C([H])([H])C3([H])[H])C([H])([H])C([H])([H])N(C([H])([H])C([H])([H])[C@@]3(c4c([H])c([H])c(Cl)c(Cl)c4[H])C([H])([H])N(C(=O)c4c([H])c(OC([H])([H])[H])c(OC([H])([H])[H])c(OC([H])([H])[H])c4[H])C([H])([H])C3([H])[H])C([H])([H])C2([H])[H])c([H])c1[H]


 48 53  0  0  0  0  0  0  0  0999 V2000
  -20.1313   10.3480  -14.8476 C   0  0  0  0  0  0  0  0  0  0  0  0
  -18.8728   10.2179  -14.4780 O   0  0  0  0  0  0  0  0  0  0  0  0
  -20.3670   11.5483  -15.5033 N   0  0  0  0  0  0  0  0  0  0  0  0
  -21.4746   12.2111  -16.1127 C   0  0  0  0  0  0  0  0  0  0  0  0
  -20.8715   12.5949  -17.4936 C   0  0  0  0  0  0  0  0  0  0  0  0
  -19.3950   12.8145  -17.1701 C   0  0  0  0  0  0  0  0  0  0  0  0
  -19.2881   12.5892  -15.7270 C   0  0  0  0  0  0  0  0  0  0  0  0
  -18.6140   11.9622  -18.0717 C   0  0  0  0  0  0  0  0  0  0  0  0
  -18.2526   10.6813  -17.8153 C   0  0  0  0  0  0  0  0  0  0  0  0
  -17.5107    9.9895  -18.7543 C   0  0  0  0  0  0  0  0  0  0  0  0
  -17.1155   10.5531  -19.9578 C   0  0  0  0  0  0  0  0  0  0  0  0
  -16.1716    9.6275  -21.1251 Cl  0  0  0  0  0  0  0  0  0  0  0  0
  -17.4922   11.8603  -20.2013 C   0  0  0  0  0  0  0  0  0  0  0  0
  -16.9847   12.5601  -21.7242 Cl  0  0  0  0  0  0  0  0  0  0  0  0
  -18.2362   12.5785  -19.2798 C   0  0  0  0  0  0  0  0  0  0  0  0
  -22.0283    7.9208  -12.7555 C   0  0  0  0  0  0  0  0  0  0  0  0
  -21.2415    8.9767  -13.1334 C   0  0  0  0  0  0  0  0  0  0  0  0
  -20.9385    9.2339  -14.4889 C   0  0  0  0  0  0  0  0  0  0  0  0
  -21.4791    8.3670  -15.3949 C   0  0  0  0  0  0  0  0  0  0  0  0
  -22.2850    7.2863  -14.9991 C   0  0  0  0  0  0  0  0  0  0  0  0
  -22.5665    7.0540  -13.6769 C   0  0  0  0  0  0  0  0  0  0  0  0
  -21.2503    7.4631  -10.5253 C   0  0  0  0  0  0  0  0  0  0  0  0
  -22.3194    7.6737  -11.4198 O   0  0  0  0  0  0  0  0  0  0  0  0
  -22.8236    6.4134  -15.9546 O   0  0  0  0  0  0  0  0  0  0  0  0
  -21.9736    5.4753  -16.5577 C   0  0  0  0  0  0  0  0  0  0  0  0
  -23.3623    5.9869  -13.2838 O   0  0  0  0  0  0  0  0  0  0  0  0
  -22.7271    4.7625  -12.9735 C   0  0  0  0  0  0  0  0  0  0  0  0
  -19.0766   14.2576  -17.6096 C   0  0  0  0  0  0  0  0  0  0  0  0
  -20.3366   15.0796  -17.6182 C   0  0  0  0  0  0  0  0  0  0  0  0
  -20.3338   15.9097  -18.8129 N   0  0  0  0  0  0  0  0  0  0  0  0
  -19.3553   16.9553  -18.7256 C   0  0  0  0  0  0  0  0  0  0  0  0
  -18.0728   16.5932  -19.3614 C   0  0  0  0  0  0  0  0  0  0  0  0
  -18.3759   16.4904  -20.8702 C   0  0  0  0  0  0  0  0  0  0  0  0
  -19.3854   15.4164  -21.0857 C   0  0  0  0  0  0  0  0  0  0  0  0
  -20.3462   15.1406  -20.0106 C   0  0  0  0  0  0  0  0  0  0  0  0
  -17.1050   16.1189  -21.5267 C   0  0  0  0  0  0  0  0  0  0  0  0
  -16.0790   16.0208  -20.7469 O   0  0  0  0  0  0  0  0  0  0  0  0
  -16.8995   15.8652  -22.8864 N   0  0  0  0  0  0  0  0  0  0  0  0
  -17.7458   15.8675  -24.0509 C   0  0  0  0  0  0  0  0  0  0  0  0
  -16.9378   16.8144  -24.9594 C   0  0  0  0  0  0  0  0  0  0  0  0
  -15.4855   16.5485  -24.5455 C   0  0  0  0  0  0  0  0  0  0  0  0
  -15.5777   15.4983  -23.4406 C   0  0  0  0  0  0  0  0  0  0  0  0
  -18.8228   17.8242  -21.2910 C   0  0  0  0  0  0  0  0  0  0  0  0
  -18.1269   18.9957  -21.0691 C   0  0  0  0  0  0  0  0  0  0  0  0
  -18.5512   20.2426  -21.4646 C   0  0  0  0  0  0  0  0  0  0  0  0
  -19.7552   20.3513  -22.1317 C   0  0  0  0  0  0  0  0  0  0  0  0
  -20.4723   19.1955  -22.3672 C   0  0  0  0  0  0  0  0  0  0  0  0
  -20.0250   17.9409  -21.9582 C   0  0  0  0  0  0  0  0  0  0  0  0
 22 23  1  0  0  0
 23 16  1  0  0  0
 16 17  2  0  0  0
 17 18  1  0  0  0
 18 19  2  0  0  0
 19 20  1  0  0  0
 20 24  1  0  0  0
 24 25  1  0  0  0
 20 21  2  0  0  0
 21 26  1  0  0  0
 26 27  1  0  0  0
 18  1  1  0  0  0
  1  2  2  0  0  0
  1  3  1  0  0  0
  3  4  1  0  0  0
  4  5  1  0  0  0
  5  6  1  0  0  0
  6 28  1  0  0  0
 28 29  1  0  0  0
 29 30  1  0  0  0
 30 31  1  0  0  0
 31 32  1  0  0  0
 32 33  1  0  0  0
 33 34  1  0  0  0
 34 35  1  0  0  0
 33 36  1  0  0  0
 36 37  2  0  0  0
 36 38  1  0  0  0
 38 39  1  0  0  0
 39 40  1  0  0  0
 40 41  1  0  0  0
 41 42  1  0  0  0
 33 43  1  0  0  0
 43 44  2  0  0  0
 44 45  1  0  0  0
 45 46  2  0  0  0
 46 47  1  0  0  0
 47 48  2  0  0  0
  6  7  1  0  0  0
  6  8  1  0  0  0
  8  9  2  0  0  0
  9 10  1  0  0  0
 10 11  2  0  0  0
 11 12  1  0  0  0
 11 13  1  0  0  0
 13 14  1  0  0  0
 13 15  2  0  0  0
 21 16  1  0  0  0
  7  3  1  0  0  0
 15  8  1  0  0  0
 35 30  1  0  0  0
 42 38  1  0  0  0
 48 43  1  0  0  0
M  END
> <minimizedAffinity>
-8.29837

> <CNNscore>
0.2355034947

> <CNNaffinity>
7.3859777451

> <CNN_VS>
1.7394235134

> <CNNaffinity_variance>
0.6044641137

$$$$
[H]c1c([H])c([H])c(C2(C(=O)N3C([H])([H])C([H])([H])C([H])([H])C3([H])[H])C([H])([H])C([H])([H])N(C([H])([H])C([H])([H])[C@@]3(c4c([H])c([H])c(Cl)c(Cl)c4[H])C([H])([H])N(C(=O)c4c([H])c(OC([H])([H])[H])c(OC([H])([H])[H])c(OC([H])([H])[H])c4[H])C([H])([H])C3([H])[H])C([H])([H])C2([H])[H])c([H])c1[H]


 48 53  0  0  0  0  0  0  0  0999 V2000
  -19.9029   15.3812  -19.7934 C   0  0  0  0  0  0  0  0  0  0  0  0
  -20.4062   14.7003  -20.8035 O   0  0  0  0  0  0  0  0  0  0  0  0
  -19.8684   14.6383  -18.6216 N   0  0  0  0  0  0  0  0  0  0  0  0
  -19.4442   14.8268  -17.2718 C   0  0  0  0  0  0  0  0  0  0  0  0
  -18.5650   13.5628  -17.0545 C   0  0  0  0  0  0  0  0  0  0  0  0
  -19.2391   12.5227  -17.9472 C   0  0  0  0  0  0  0  0  0  0  0  0
  -20.3878   13.2170  -18.5331 C   0  0  0  0  0  0  0  0  0  0  0  0
  -18.2148   11.9819  -18.8460 C   0  0  0  0  0  0  0  0  0  0  0  0
  -17.2577   11.0906  -18.4904 C   0  0  0  0  0  0  0  0  0  0  0  0
  -16.3484   10.6635  -19.4398 C   0  0  0  0  0  0  0  0  0  0  0  0
  -16.3716   11.1110  -20.7518 C   0  0  0  0  0  0  0  0  0  0  0  0
  -15.1905   10.5334  -21.9273 Cl  0  0  0  0  0  0  0  0  0  0  0  0
  -17.3539   12.0203  -21.0957 C   0  0  0  0  0  0  0  0  0  0  0  0
  -17.3704   12.5784  -22.7555 Cl  0  0  0  0  0  0  0  0  0  0  0  0
  -18.2792   12.4660  -20.1664 C   0  0  0  0  0  0  0  0  0  0  0  0
  -18.4398   18.2119  -21.7205 C   0  0  0  0  0  0  0  0  0  0  0  0
  -18.8122   16.9482  -21.3447 C   0  0  0  0  0  0  0  0  0  0  0  0
  -19.5179   16.7038  -20.1458 C   0  0  0  0  0  0  0  0  0  0  0  0
  -19.8052   17.8034  -19.3889 C   0  0  0  0  0  0  0  0  0  0  0  0
  -19.4195   19.0963  -19.7813 C   0  0  0  0  0  0  0  0  0  0  0  0
  -18.7340   19.3116  -20.9497 C   0  0  0  0  0  0  0  0  0  0  0  0
  -17.6630   17.4037  -23.8493 C   0  0  0  0  0  0  0  0  0  0  0  0
  -17.7438   18.4432  -22.9003 O   0  0  0  0  0  0  0  0  0  0  0  0
  -19.7287   20.2045  -18.9804 O   0  0  0  0  0  0  0  0  0  0  0  0
  -21.0778   20.4908  -18.7271 C   0  0  0  0  0  0  0  0  0  0  0  0
  -18.3520   20.5879  -21.3390 O   0  0  0  0  0  0  0  0  0  0  0  0
  -19.2590   21.3459  -22.1147 C   0  0  0  0  0  0  0  0  0  0  0  0
  -19.6153   11.3502  -17.0195 C   0  0  0  0  0  0  0  0  0  0  0  0
  -20.6679   11.7910  -16.0390 C   0  0  0  0  0  0  0  0  0  0  0  0
  -20.2185   11.4467  -14.6989 N   0  0  0  0  0  0  0  0  0  0  0  0
  -21.3135   11.3940  -13.7734 C   0  0  0  0  0  0  0  0  0  0  0  0
  -21.8498   10.0294  -13.5988 C   0  0  0  0  0  0  0  0  0  0  0  0
  -20.7299    9.2334  -12.8981 C   0  0  0  0  0  0  0  0  0  0  0  0
  -19.5303    9.2124  -13.7810 C   0  0  0  0  0  0  0  0  0  0  0  0
  -19.3190   10.3435  -14.6927 C   0  0  0  0  0  0  0  0  0  0  0  0
  -21.2428    7.8587  -12.7214 C   0  0  0  0  0  0  0  0  0  0  0  0
  -22.4810    7.6766  -13.0442 O   0  0  0  0  0  0  0  0  0  0  0  0
  -20.5371    6.7484  -12.2477 N   0  0  0  0  0  0  0  0  0  0  0  0
  -19.1882    6.5302  -11.7946 C   0  0  0  0  0  0  0  0  0  0  0  0
  -19.4737    5.8881  -10.4231 C   0  0  0  0  0  0  0  0  0  0  0  0
  -20.7879    5.1321  -10.6528 C   0  0  0  0  0  0  0  0  0  0  0  0
  -21.1514    5.4095  -12.1099 C   0  0  0  0  0  0  0  0  0  0  0  0
  -20.5079    9.8897  -11.6035 C   0  0  0  0  0  0  0  0  0  0  0  0
  -21.5085   10.3393  -10.7654 C   0  0  0  0  0  0  0  0  0  0  0  0
  -21.2945   10.9546   -9.5542 C   0  0  0  0  0  0  0  0  0  0  0  0
  -19.9947   11.1452   -9.1291 C   0  0  0  0  0  0  0  0  0  0  0  0
  -18.9741   10.7052   -9.9477 C   0  0  0  0  0  0  0  0  0  0  0  0
  -19.2118   10.0838  -11.1720 C   0  0  0  0  0  0  0  0  0  0  0  0
 22 23  1  0  0  0
 23 16  1  0  0  0
 16 17  2  0  0  0
 17 18  1  0  0  0
 18 19  2  0  0  0
 19 20  1  0  0  0
 20 24  1  0  0  0
 24 25  1  0  0  0
 20 21  2  0  0  0
 21 26  1  0  0  0
 26 27  1  0  0  0
 18  1  1  0  0  0
  1  2  2  0  0  0
  1  3  1  0  0  0
  3  4  1  0  0  0
  4  5  1  0  0  0
  5  6  1  0  0  0
  6 28  1  0  0  0
 28 29  1  0  0  0
 29 30  1  0  0  0
 30 31  1  0  0  0
 31 32  1  0  0  0
 32 33  1  0  0  0
 33 34  1  0  0  0
 34 35  1  0  0  0
 33 36  1  0  0  0
 36 37  2  0  0  0
 36 38  1  0  0  0
 38 39  1  0  0  0
 39 40  1  0  0  0
 40 41  1  0  0  0
 41 42  1  0  0  0
 33 43  1  0  0  0
 43 44  2  0  0  0
 44 45  1  0  0  0
 45 46  2  0  0  0
 46 47  1  0  0  0
 47 48  2  0  0  0
  6  7  1  0  0  0
  6  8  1  0  0  0
  8  9  2  0  0  0
  9 10  1  0  0  0
 10 11  2  0  0  0
 11 12  1  0  0  0
 11 13  1  0  0  0
 13 14  1  0  0  0
 13 15  2  0  0  0
 21 16  1  0  0  0
  7  3  1  0  0  0
 15  8  1  0  0  0
 35 30  1  0  0  0
 42 38  1  0  0  0
 48 43  1  0  0  0
M  END
> <minimizedAffinity>
-7.82439

> <CNNscore>
0.2212588191

> <CNNaffinity>
7.0977792740

> <CNN_VS>
1.5704462528

> <CNNaffinity_variance>
0.3643425107

$$$$
[H]c1c([H])c([H])c(C2(C(=O)N3C([H])([H])C([H])([H])C([H])([H])C3([H])[H])C([H])([H])C([H])([H])N(C([H])([H])C([H])([H])[C@@]3(c4c([H])c([H])c(Cl)c(Cl)c4[H])C([H])([H])N(C(=O)c4c([H])c(OC([H])([H])[H])c(OC([H])([H])[H])c(OC([H])([H])[H])c4[H])C([H])([H])C3([H])[H])C([H])([H])C2([H])[H])c([H])c1[H]


 48 53  0  0  0  0  0  0  0  0999 V2000
  -21.0280   15.8597  -19.0293 C   0  0  0  0  0  0  0  0  0  0  0  0
  -21.6606   15.2734  -20.0259 O   0  0  0  0  0  0  0  0  0  0  0  0
  -20.5297   14.9464  -18.1107 N   0  0  0  0  0  0  0  0  0  0  0  0
  -19.7856   14.9824  -16.8932 C   0  0  0  0  0  0  0  0  0  0  0  0
  -18.6640   13.9491  -17.1965 C   0  0  0  0  0  0  0  0  0  0  0  0
  -19.3585   12.9578  -18.1283 C   0  0  0  0  0  0  0  0  0  0  0  0
  -20.7327   13.4503  -18.2452 C   0  0  0  0  0  0  0  0  0  0  0  0
  -18.5467   12.8520  -19.3445 C   0  0  0  0  0  0  0  0  0  0  0  0
  -18.4478   13.8069  -20.3012 C   0  0  0  0  0  0  0  0  0  0  0  0
  -17.6459   13.5762  -21.4033 C   0  0  0  0  0  0  0  0  0  0  0  0
  -16.9322   12.4002  -21.5755 C   0  0  0  0  0  0  0  0  0  0  0  0
  -15.9200   12.1547  -22.9988 Cl  0  0  0  0  0  0  0  0  0  0  0  0
  -17.0462   11.4376  -20.5904 C   0  0  0  0  0  0  0  0  0  0  0  0
  -16.1409    9.9566  -20.8217 Cl  0  0  0  0  0  0  0  0  0  0  0  0
  -17.8413   11.6406  -19.4745 C   0  0  0  0  0  0  0  0  0  0  0  0
  -22.0626   19.4187  -18.6682 C   0  0  0  0  0  0  0  0  0  0  0  0
  -22.0593   18.0506  -18.5959 C   0  0  0  0  0  0  0  0  0  0  0  0
  -21.0075   17.2774  -19.1355 C   0  0  0  0  0  0  0  0  0  0  0  0
  -19.9976   17.9781  -19.7303 C   0  0  0  0  0  0  0  0  0  0  0  0
  -20.0085   19.3813  -19.8005 C   0  0  0  0  0  0  0  0  0  0  0  0
  -21.0404   20.1133  -19.2704 C   0  0  0  0  0  0  0  0  0  0  0  0
  -23.2419   20.2320  -16.7353 C   0  0  0  0  0  0  0  0  0  0  0  0
  -23.1022   20.1714  -18.1369 O   0  0  0  0  0  0  0  0  0  0  0  0
  -18.9566   20.0707  -20.4196 O   0  0  0  0  0  0  0  0  0  0  0  0
  -18.1857   19.3948  -21.3762 C   0  0  0  0  0  0  0  0  0  0  0  0
  -21.0532   21.4995  -19.3388 O   0  0  0  0  0  0  0  0  0  0  0  0
  -21.6907   22.1049  -20.4460 C   0  0  0  0  0  0  0  0  0  0  0  0
  -19.2366   11.5806  -17.4461 C   0  0  0  0  0  0  0  0  0  0  0  0
  -20.5332   11.2285  -16.7690 C   0  0  0  0  0  0  0  0  0  0  0  0
  -20.2299   10.4738  -15.5629 N   0  0  0  0  0  0  0  0  0  0  0  0
  -19.9875   11.3410  -14.4459 C   0  0  0  0  0  0  0  0  0  0  0  0
  -21.1922   11.5618  -13.6211 C   0  0  0  0  0  0  0  0  0  0  0  0
  -21.5037   10.1970  -12.9737 C   0  0  0  0  0  0  0  0  0  0  0  0
  -21.7843    9.2068  -14.0507 C   0  0  0  0  0  0  0  0  0  0  0  0
  -21.1344    9.3949  -15.3535 C   0  0  0  0  0  0  0  0  0  0  0  0
  -22.7143   10.3930  -12.1490 C   0  0  0  0  0  0  0  0  0  0  0  0
  -23.2974   11.5397  -12.2729 O   0  0  0  0  0  0  0  0  0  0  0  0
  -23.2878    9.4784  -11.2602 N   0  0  0  0  0  0  0  0  0  0  0  0
  -22.9626    8.1396  -10.8428 C   0  0  0  0  0  0  0  0  0  0  0  0
  -22.9397    8.3404   -9.3150 C   0  0  0  0  0  0  0  0  0  0  0  0
  -23.9881    9.4356   -9.0861 C   0  0  0  0  0  0  0  0  0  0  0  0
  -24.5085    9.7791  -10.4802 C   0  0  0  0  0  0  0  0  0  0  0  0
  -20.3410    9.8621  -12.1419 C   0  0  0  0  0  0  0  0  0  0  0  0
  -19.8345   10.6608  -11.1362 C   0  0  0  0  0  0  0  0  0  0  0  0
  -18.7441   10.3425  -10.3610 C   0  0  0  0  0  0  0  0  0  0  0  0
  -18.0968    9.1444  -10.5893 C   0  0  0  0  0  0  0  0  0  0  0  0
  -18.5821    8.3259  -11.5893 C   0  0  0  0  0  0  0  0  0  0  0  0
  -19.6889    8.6667  -12.3641 C   0  0  0  0  0  0  0  0  0  0  0  0
 22 23  1  0  0  0
 23 16  1  0  0  0
 16 17  2  0  0  0
 17 18  1  0  0  0
 18 19  2  0  0  0
 19 20  1  0  0  0
 20 24  1  0  0  0
 24 25  1  0  0  0
 20 21  2  0  0  0
 21 26  1  0  0  0
 26 27  1  0  0  0
 18  1  1  0  0  0
  1  2  2  0  0  0
  1  3  1  0  0  0
  3  4  1  0  0  0
  4  5  1  0  0  0
  5  6  1  0  0  0
  6 28  1  0  0  0
 28 29  1  0  0  0
 29 30  1  0  0  0
 30 31  1  0  0  0
 31 32  1  0  0  0
 32 33  1  0  0  0
 33 34  1  0  0  0
 34 35  1  0  0  0
 33 36  1  0  0  0
 36 37  2  0  0  0
 36 38  1  0  0  0
 38 39  1  0  0  0
 39 40  1  0  0  0
 40 41  1  0  0  0
 41 42  1  0  0  0
 33 43  1  0  0  0
 43 44  2  0  0  0
 44 45  1  0  0  0
 45 46  2  0  0  0
 46 47  1  0  0  0
 47 48  2  0  0  0
  6  7  1  0  0  0
  6  8  1  0  0  0
  8  9  2  0  0  0
  9 10  1  0  0  0
 10 11  2  0  0  0
 11 12  1  0  0  0
 11 13  1  0  0  0
 13 14  1  0  0  0
 13 15  2  0  0  0
 21 16  1  0  0  0
  7  3  1  0  0  0
 15  8  1  0  0  0
 35 30  1  0  0  0
 42 38  1  0  0  0
 48 43  1  0  0  0
M  END
> <minimizedAffinity>
-7.51175

> <CNNscore>
0.2122541815

> <CNNaffinity>
6.9428606033

> <CNN_VS>
1.4736511707

> <CNNaffinity_variance>
0.2957473695

$$$$
[H]c1c([H])c([H])c(C2(C(=O)N3C([H])([H])C([H])([H])C([H])([H])C3([H])[H])C([H])([H])C([H])([H])N(C([H])([H])C([H])([H])[C@@]3(c4c([H])c([H])c(Cl)c(Cl)c4[H])C([H])([H])N(C(=O)c4c([H])c(OC([H])([H])[H])c(OC([H])([H])[H])c(OC([H])([H])[H])c4[H])C([H])([H])C3([H])[H])C([H])([H])C2([H])[H])c([H])c1[H]


 48 53  0  0  0  0  0  0  0  0999 V2000
  -19.8741    8.9640  -14.4047 C   0  0  0  0  0  0  0  0  0  0  0  0
  -18.5962    9.0890  -14.1070 O   0  0  0  0  0  0  0  0  0  0  0  0
  -20.4212   10.1447  -14.8874 N   0  0  0  0  0  0  0  0  0  0  0  0
  -21.6901   10.5973  -15.3591 C   0  0  0  0  0  0  0  0  0  0  0  0
  -21.2880   11.2714  -16.7014 C   0  0  0  0  0  0  0  0  0  0  0  0
  -19.8807   11.7904  -16.4126 C   0  0  0  0  0  0  0  0  0  0  0  0
  -19.6248   11.4278  -15.0170 C   0  0  0  0  0  0  0  0  0  0  0  0
  -18.9920   11.2565  -17.4492 C   0  0  0  0  0  0  0  0  0  0  0  0
  -18.5366    9.9811  -17.5044 C   0  0  0  0  0  0  0  0  0  0  0  0
  -17.6986    9.6089  -18.5387 C   0  0  0  0  0  0  0  0  0  0  0  0
  -17.2987   10.4906  -19.5311 C   0  0  0  0  0  0  0  0  0  0  0  0
  -16.2298    9.9663  -20.8322 Cl  0  0  0  0  0  0  0  0  0  0  0  0
  -17.7721   11.7870  -19.4578 C   0  0  0  0  0  0  0  0  0  0  0  0
  -17.2577   12.8903  -20.7165 Cl  0  0  0  0  0  0  0  0  0  0  0  0
  -18.6137   12.1890  -18.4338 C   0  0  0  0  0  0  0  0  0  0  0  0
  -21.1377    5.9765  -12.5757 C   0  0  0  0  0  0  0  0  0  0  0  0
  -20.6359    7.2230  -12.8426 C   0  0  0  0  0  0  0  0  0  0  0  0
  -20.3807    7.6578  -14.1621 C   0  0  0  0  0  0  0  0  0  0  0  0
  -20.6663    6.7603  -15.1507 C   0  0  0  0  0  0  0  0  0  0  0  0
  -21.1807    5.4836  -14.8687 C   0  0  0  0  0  0  0  0  0  0  0  0
  -21.4208    5.0809  -13.5796 C   0  0  0  0  0  0  0  0  0  0  0  0
  -22.4529    6.1432  -10.5680 C   0  0  0  0  0  0  0  0  0  0  0  0
  -21.3837    5.5560  -11.2748 O   0  0  0  0  0  0  0  0  0  0  0  0
  -21.4619    4.5848  -15.9070 O   0  0  0  0  0  0  0  0  0  0  0  0
  -21.9978    5.0888  -17.1008 C   0  0  0  0  0  0  0  0  0  0  0  0
  -21.9288    3.8202  -13.2989 O   0  0  0  0  0  0  0  0  0  0  0  0
  -23.3327    3.6530  -13.3024 C   0  0  0  0  0  0  0  0  0  0  0  0
  -19.9294   13.3093  -16.6722 C   0  0  0  0  0  0  0  0  0  0  0  0
  -21.2940   13.8432  -16.3313 C   0  0  0  0  0  0  0  0  0  0  0  0
  -21.7611   14.6521  -17.4466 N   0  0  0  0  0  0  0  0  0  0  0  0
  -21.6110   16.0538  -17.1799 C   0  0  0  0  0  0  0  0  0  0  0  0
  -20.3532   16.6074  -17.7200 C   0  0  0  0  0  0  0  0  0  0  0  0
  -20.4956   16.5322  -19.2540 C   0  0  0  0  0  0  0  0  0  0  0  0
  -20.6501   15.1054  -19.6530 C   0  0  0  0  0  0  0  0  0  0  0  0
  -21.2783   14.1819  -18.7003 C   0  0  0  0  0  0  0  0  0  0  0  0
  -19.2409   17.0740  -19.8165 C   0  0  0  0  0  0  0  0  0  0  0  0
  -18.3341   17.3982  -18.9545 O   0  0  0  0  0  0  0  0  0  0  0  0
  -18.9361   17.2696  -21.1671 N   0  0  0  0  0  0  0  0  0  0  0  0
  -19.6428   17.0486  -22.4017 C   0  0  0  0  0  0  0  0  0  0  0  0
  -19.5162   18.4501  -23.0298 C   0  0  0  0  0  0  0  0  0  0  0  0
  -18.1650   18.9519  -22.5066 C   0  0  0  0  0  0  0  0  0  0  0  0
  -17.6414   17.8216  -21.6231 C   0  0  0  0  0  0  0  0  0  0  0  0
  -21.6442   17.3780  -19.6018 C   0  0  0  0  0  0  0  0  0  0  0  0
  -22.7180   16.9733  -20.3693 C   0  0  0  0  0  0  0  0  0  0  0  0
  -23.7908   17.7705  -20.6930 C   0  0  0  0  0  0  0  0  0  0  0  0
  -23.8139   19.0702  -20.2273 C   0  0  0  0  0  0  0  0  0  0  0  0
  -22.7527   19.5016  -19.4572 C   0  0  0  0  0  0  0  0  0  0  0  0
  -21.6745   18.6779  -19.1401 C   0  0  0  0  0  0  0  0  0  0  0  0
 22 23  1  0  0  0
 23 16  1  0  0  0
 16 17  2  0  0  0
 17 18  1  0  0  0
 18 19  2  0  0  0
 19 20  1  0  0  0
 20 24  1  0  0  0
 24 25  1  0  0  0
 20 21  2  0  0  0
 21 26  1  0  0  0
 26 27  1  0  0  0
 18  1  1  0  0  0
  1  2  2  0  0  0
  1  3  1  0  0  0
  3  4  1  0  0  0
  4  5  1  0  0  0
  5  6  1  0  0  0
  6 28  1  0  0  0
 28 29  1  0  0  0
 29 30  1  0  0  0
 30 31  1  0  0  0
 31 32  1  0  0  0
 32 33  1  0  0  0
 33 34  1  0  0  0
 34 35  1  0  0  0
 33 36  1  0  0  0
 36 37  2  0  0  0
 36 38  1  0  0  0
 38 39  1  0  0  0
 39 40  1  0  0  0
 40 41  1  0  0  0
 41 42  1  0  0  0
 33 43  1  0  0  0
 43 44  2  0  0  0
 44 45  1  0  0  0
 45 46  2  0  0  0
 46 47  1  0  0  0
 47 48  2  0  0  0
  6  7  1  0  0  0
  6  8  1  0  0  0
  8  9  2  0  0  0
  9 10  1  0  0  0
 10 11  2  0  0  0
 11 12  1  0  0  0
 11 13  1  0  0  0
 13 14  1  0  0  0
 13 15  2  0  0  0
 21 16  1  0  0  0
  7  3  1  0  0  0
 15  8  1  0  0  0
 35 30  1  0  0  0
 42 38  1  0  0  0
 48 43  1  0  0  0
M  END
> <minimizedAffinity>
-7.54049

> <CNNscore>
0.2078112215

> <CNNaffinity>
6.9303693771

> <CNN_VS>
1.4402085543

> <CNNaffinity_variance>
0.7602351904

$$$$
[H]c1c([H])c([H])c2c(c1[H])c(C(=O)OC1([H])C([H])([H])C3([H])N(C([H])([H])[H])C([H])(C([H])([H])C3([H])[H])C1([H])[H])c([H])n2C([H])([H])[H]


 22 25  0  0  0  0  0  0  0  0999 V2000
  -16.9777   11.2031  -20.7614 C   0  0  0  0  0  0  0  0  0  0  0  0
  -15.8356   10.6958  -20.9036 O   0  0  0  0  0  0  0  0  0  0  0  0
  -17.7225   10.9530  -19.5304 C   0  0  0  0  0  0  0  0  0  0  0  0
  -17.6308    9.8327  -18.7312 C   0  0  0  0  0  0  0  0  0  0  0  0
  -18.4561    9.9427  -17.6867 N   0  0  0  0  0  0  0  0  0  0  0  0
  -18.6098    8.9433  -16.6499 C   0  0  0  0  0  0  0  0  0  0  0  0
  -19.1141   11.1275  -17.7600 C   0  0  0  0  0  0  0  0  0  0  0  0
  -20.0601   11.7366  -16.9615 C   0  0  0  0  0  0  0  0  0  0  0  0
  -20.5816   12.9766  -17.2682 C   0  0  0  0  0  0  0  0  0  0  0  0
  -20.1299   13.6057  -18.4092 C   0  0  0  0  0  0  0  0  0  0  0  0
  -19.1735   12.9824  -19.2101 C   0  0  0  0  0  0  0  0  0  0  0  0
  -18.6555   11.7584  -18.9120 C   0  0  0  0  0  0  0  0  0  0  0  0
  -17.4667   11.9712  -21.7807 O   0  0  0  0  0  0  0  0  0  0  0  0
  -15.9427   16.4258  -24.5268 C   0  0  0  0  0  0  0  0  0  0  0  0
  -16.2477   15.2789  -23.7339 N   0  0  0  0  0  0  0  0  0  0  0  0
  -17.6803   15.1111  -23.5715 C   0  0  0  0  0  0  0  0  0  0  0  0
  -18.1782   14.4059  -24.8112 C   0  0  0  0  0  0  0  0  0  0  0  0
  -16.8971   14.0587  -25.5685 C   0  0  0  0  0  0  0  0  0  0  0  0
  -15.8945   14.0529  -24.4286 C   0  0  0  0  0  0  0  0  0  0  0  0
  -16.1595   12.8439  -23.5821 C   0  0  0  0  0  0  0  0  0  0  0  0
  -16.8323   13.1362  -22.2794 C   0  0  0  0  0  0  0  0  0  0  0  0
  -17.8465   14.2307  -22.3309 C   0  0  0  0  0  0  0  0  0  0  0  0
 14 15  1  0  0  0
 15 16  1  0  0  0
 16 17  1  0  0  0
 17 18  1  0  0  0
 18 19  1  0  0  0
 19 20  1  0  0  0
 20 21  1  0  0  0
 21 22  1  0  0  0
 21 13  1  0  0  0
 13  1  1  0  0  0
  1  2  2  0  0  0
  1  3  1  0  0  0
  3  4  2  0  0  0
  4  5  1  0  0  0
  5  6  1  0  0  0
  5  7  1  0  0  0
  7  8  2  0  0  0
  8  9  1  0  0  0
  9 10  2  0  0  0
 10 11  1  0  0  0
 11 12  2  0  0  0
 19 15  1  0  0  0
 12  3  1  0  0  0
 22 16  1  0  0  0
 12  7  1  0  0  0
M  END
> <minimizedAffinity>
-7.95690

> <CNNscore>
0.8601083755

> <CNNaffinity>
6.2564721107

> <CNN_VS>
5.3812441826

> <CNNaffinity_variance>
0.0505082719

$$$$
[H]c1c([H])c([H])c2c(c1[H])c(C(=O)OC1([H])C([H])([H])C3([H])N(C([H])([H])[H])C([H])(C([H])([H])C3([H])[H])C1([H])[H])c([H])n2C([H])([H])[H]


 22 25  0  0  0  0  0  0  0  0999 V2000
  -17.3653   11.5785  -20.1945 C   0  0  0  0  0  0  0  0  0  0  0  0
  -16.2890   10.9713  -19.9607 O   0  0  0  0  0  0  0  0  0  0  0  0
  -18.3380   11.7488  -19.1185 C   0  0  0  0  0  0  0  0  0  0  0  0
  -19.1113   12.8663  -18.8832 C   0  0  0  0  0  0  0  0  0  0  0  0
  -19.8888   12.6722  -17.8146 N   0  0  0  0  0  0  0  0  0  0  0  0
  -20.8248   13.6447  -17.2897 C   0  0  0  0  0  0  0  0  0  0  0  0
  -19.6578   11.4323  -17.3132 C   0  0  0  0  0  0  0  0  0  0  0  0
  -20.1745   10.7321  -16.2425 C   0  0  0  0  0  0  0  0  0  0  0  0
  -19.7578    9.4517  -15.9413 C   0  0  0  0  0  0  0  0  0  0  0  0
  -18.7974    8.8762  -16.7464 C   0  0  0  0  0  0  0  0  0  0  0  0
  -18.2809    9.5916  -17.8264 C   0  0  0  0  0  0  0  0  0  0  0  0
  -18.6887   10.8557  -18.1281 C   0  0  0  0  0  0  0  0  0  0  0  0
  -17.5693   12.0525  -21.4600 O   0  0  0  0  0  0  0  0  0  0  0  0
  -15.4585   16.1938  -24.3064 C   0  0  0  0  0  0  0  0  0  0  0  0
  -15.8979   15.0794  -23.5304 N   0  0  0  0  0  0  0  0  0  0  0  0
  -17.1240   15.3810  -22.8144 C   0  0  0  0  0  0  0  0  0  0  0  0
  -18.2590   15.1701  -23.7888 C   0  0  0  0  0  0  0  0  0  0  0  0
  -17.5736   14.5757  -25.0186 C   0  0  0  0  0  0  0  0  0  0  0  0
  -16.3282   13.9846  -24.3830 C   0  0  0  0  0  0  0  0  0  0  0  0
  -16.7396   12.7883  -23.5781 C   0  0  0  0  0  0  0  0  0  0  0  0
  -16.7408   13.0081  -22.0993 C   0  0  0  0  0  0  0  0  0  0  0  0
  -17.1836   14.3676  -21.6693 C   0  0  0  0  0  0  0  0  0  0  0  0
 14 15  1  0  0  0
 15 16  1  0  0  0
 16 17  1  0  0  0
 17 18  1  0  0  0
 18 19  1  0  0  0
 19 20  1  0  0  0
 20 21  1  0  0  0
 21 22  1  0  0  0
 21 13  1  0  0  0
 13  1  1  0  0  0
  1  2  2  0  0  0
  1  3  1  0  0  0
  3  4  2  0  0  0
  4  5  1  0  0  0
  5  6  1  0  0  0
  5  7  1  0  0  0
  7  8  2  0  0  0
  8  9  1  0  0  0
  9 10  2  0  0  0
 10 11  1  0  0  0
 11 12  2  0  0  0
 19 15  1  0  0  0
 12  3  1  0  0  0
 22 16  1  0  0  0
 12  7  1  0  0  0
M  END
> <minimizedAffinity>
-8.02732

> <CNNscore>
0.6560630798

> <CNNaffinity>
5.9060287476

> <CNN_VS>
3.8747274876

> <CNNaffinity_variance>
0.0483840033

$$$$
[H]c1c([H])c([H])c2c(c1[H])c(C(=O)OC1([H])C([H])([H])C3([H])N(C([H])([H])[H])C([H])(C([H])([H])C3([H])[H])C1([H])[H])c([H])n2C([H])([H])[H]


 22 25  0  0  0  0  0  0  0  0999 V2000
  -17.1196   12.4482  -21.9209 C   0  0  0  0  0  0  0  0  0  0  0  0
  -16.3273   11.5057  -21.6641 O   0  0  0  0  0  0  0  0  0  0  0  0
  -17.5652   13.3220  -20.8390 C   0  0  0  0  0  0  0  0  0  0  0  0
  -17.4953   14.6993  -20.8175 C   0  0  0  0  0  0  0  0  0  0  0  0
  -17.9942   15.1684  -19.6706 N   0  0  0  0  0  0  0  0  0  0  0  0
  -18.0737   16.5713  -19.3199 C   0  0  0  0  0  0  0  0  0  0  0  0
  -18.4064   14.1273  -18.9037 C   0  0  0  0  0  0  0  0  0  0  0  0
  -18.9846   14.0420  -17.6539 C   0  0  0  0  0  0  0  0  0  0  0  0
  -19.3153   12.8286  -17.0866 C   0  0  0  0  0  0  0  0  0  0  0  0
  -19.0512   11.6826  -17.8069 C   0  0  0  0  0  0  0  0  0  0  0  0
  -18.4665   11.7787  -19.0693 C   0  0  0  0  0  0  0  0  0  0  0  0
  -18.1382   12.9739  -19.6341 C   0  0  0  0  0  0  0  0  0  0  0  0
  -17.5263   12.6056  -23.2162 O   0  0  0  0  0  0  0  0  0  0  0  0
  -14.3890   15.7923  -26.3323 C   0  0  0  0  0  0  0  0  0  0  0  0
  -15.2075   14.8761  -25.6057 N   0  0  0  0  0  0  0  0  0  0  0  0
  -14.8846   14.8824  -24.1905 C   0  0  0  0  0  0  0  0  0  0  0  0
  -15.6241   16.0504  -23.5816 C   0  0  0  0  0  0  0  0  0  0  0  0
  -16.4935   16.5650  -24.7281 C   0  0  0  0  0  0  0  0  0  0  0  0
  -16.5923   15.3148  -25.5836 C   0  0  0  0  0  0  0  0  0  0  0  0
  -17.4706   14.3310  -24.8701 C   0  0  0  0  0  0  0  0  0  0  0  0
  -16.7372   13.1928  -24.2364 C   0  0  0  0  0  0  0  0  0  0  0  0
  -15.4121   13.5517  -23.6493 C   0  0  0  0  0  0  0  0  0  0  0  0
 14 15  1  0  0  0
 15 16  1  0  0  0
 16 17  1  0  0  0
 17 18  1  0  0  0
 18 19  1  0  0  0
 19 20  1  0  0  0
 20 21  1  0  0  0
 21 22  1  0  0  0
 21 13  1  0  0  0
 13  1  1  0  0  0
  1  2  2  0  0  0
  1  3  1  0  0  0
  3  4  2  0  0  0
  4  5  1  0  0  0
  5  6  1  0  0  0
  5  7  1  0  0  0
  7  8  2  0  0  0
  8  9  1  0  0  0
  9 10  2  0  0  0
 10 11  1  0  0  0
 11 12  2  0  0  0
 19 15  1  0  0  0
 12  3  1  0  0  0
 22 16  1  0  0  0
 12  7  1  0  0  0
M  END
> <minimizedAffinity>
-8.00871

> <CNNscore>
0.6029545069

> <CNNaffinity>
6.0733757019

> <CNN_VS>
3.6619691849

> <CNNaffinity_variance>
0.0262116138

$$$$
[H]c1c([H])c([H])c2c(c1[H])c(C(=O)OC1([H])C([H])([H])C3([H])N(C([H])([H])[H])C([H])(C([H])([H])C3([H])[H])C1([H])[H])c([H])n2C([H])([H])[H]


 22 25  0  0  0  0  0  0  0  0999 V2000
  -17.8119   14.9978  -21.4038 C   0  0  0  0  0  0  0  0  0  0  0  0
  -18.7021   15.0413  -22.2913 O   0  0  0  0  0  0  0  0  0  0  0  0
  -17.9644   14.0736  -20.2834 C   0  0  0  0  0  0  0  0  0  0  0  0
  -18.5102   14.3645  -19.0506 C   0  0  0  0  0  0  0  0  0  0  0  0
  -18.4893   13.2809  -18.2699 N   0  0  0  0  0  0  0  0  0  0  0  0
  -18.9856   13.2360  -16.9101 C   0  0  0  0  0  0  0  0  0  0  0  0
  -17.9348   12.2481  -18.9539 C   0  0  0  0  0  0  0  0  0  0  0  0
  -17.6740   10.9315  -18.6340 C   0  0  0  0  0  0  0  0  0  0  0  0
  -17.0869   10.0666  -19.5345 C   0  0  0  0  0  0  0  0  0  0  0  0
  -16.7602   10.5536  -20.7826 C   0  0  0  0  0  0  0  0  0  0  0  0
  -17.0275   11.8858  -21.0969 C   0  0  0  0  0  0  0  0  0  0  0  0
  -17.6069   12.7438  -20.2118 C   0  0  0  0  0  0  0  0  0  0  0  0
  -16.7354   15.8291  -21.5378 O   0  0  0  0  0  0  0  0  0  0  0  0
  -14.5492   15.6567  -26.5277 C   0  0  0  0  0  0  0  0  0  0  0  0
  -15.0139   15.7398  -25.1807 N   0  0  0  0  0  0  0  0  0  0  0  0
  -16.3791   16.2292  -25.1190 C   0  0  0  0  0  0  0  0  0  0  0  0
  -17.2779   15.0417  -25.3725 C   0  0  0  0  0  0  0  0  0  0  0  0
  -16.3118   13.8581  -25.4064 C   0  0  0  0  0  0  0  0  0  0  0  0
  -15.1584   14.4187  -24.5941 C   0  0  0  0  0  0  0  0  0  0  0  0
  -15.5930   14.4966  -23.1611 C   0  0  0  0  0  0  0  0  0  0  0  0
  -15.9010   15.8789  -22.6823 C   0  0  0  0  0  0  0  0  0  0  0  0
  -16.5544   16.7606  -23.6947 C   0  0  0  0  0  0  0  0  0  0  0  0
 14 15  1  0  0  0
 15 16  1  0  0  0
 16 17  1  0  0  0
 17 18  1  0  0  0
 18 19  1  0  0  0
 19 20  1  0  0  0
 20 21  1  0  0  0
 21 22  1  0  0  0
 21 13  1  0  0  0
 13  1  1  0  0  0
  1  2  2  0  0  0
  1  3  1  0  0  0
  3  4  2  0  0  0
  4  5  1  0  0  0
  5  6  1  0  0  0
  5  7  1  0  0  0
  7  8  2  0  0  0
  8  9  1  0  0  0
  9 10  2  0  0  0
 10 11  1  0  0  0
 11 12  2  0  0  0
 19 15  1  0  0  0
 12  3  1  0  0  0
 22 16  1  0  0  0
 12  7  1  0  0  0
M  END
> <minimizedAffinity>
-8.10878

> <CNNscore>
0.5424672365

> <CNNaffinity>
6.0246706009

> <CNN_VS>
3.2681863308

> <CNNaffinity_variance>
0.0935913771

$$$$
[H]c1c([H])c([H])c2c(c1[H])c(C(=O)OC1([H])C([H])([H])C3([H])N(C([H])([H])[H])C([H])(C([H])([H])C3([H])[H])C1([H])[H])c([H])n2C([H])([H])[H]


 22 25  0  0  0  0  0  0  0  0999 V2000
  -17.7768   12.0691  -19.4626 C   0  0  0  0  0  0  0  0  0  0  0  0
  -17.0755   11.1354  -19.9299 O   0  0  0  0  0  0  0  0  0  0  0  0
  -18.1131   13.2059  -20.3154 C   0  0  0  0  0  0  0  0  0  0  0  0
  -18.7697   14.3550  -19.9269 C   0  0  0  0  0  0  0  0  0  0  0  0
  -18.9076   15.1813  -20.9672 N   0  0  0  0  0  0  0  0  0  0  0  0
  -19.5517   16.4772  -20.9098 C   0  0  0  0  0  0  0  0  0  0  0  0
  -18.3524   14.6117  -22.0669 C   0  0  0  0  0  0  0  0  0  0  0  0
  -18.2177   15.0182  -23.3785 C   0  0  0  0  0  0  0  0  0  0  0  0
  -17.5952   14.2297  -24.3242 C   0  0  0  0  0  0  0  0  0  0  0  0
  -17.1017   13.0056  -23.9246 C   0  0  0  0  0  0  0  0  0  0  0  0
  -17.2425   12.6031  -22.5968 C   0  0  0  0  0  0  0  0  0  0  0  0
  -17.8561   13.3776  -21.6593 C   0  0  0  0  0  0  0  0  0  0  0  0
  -18.1918   11.9680  -18.1643 O   0  0  0  0  0  0  0  0  0  0  0  0
  -22.5191   10.0227  -15.4815 C   0  0  0  0  0  0  0  0  0  0  0  0
  -21.4356   10.4882  -16.2855 N   0  0  0  0  0  0  0  0  0  0  0  0
  -20.9588   11.7835  -15.8360 C   0  0  0  0  0  0  0  0  0  0  0  0
  -20.0144   11.5233  -14.6860 C   0  0  0  0  0  0  0  0  0  0  0  0
  -19.8879   10.0006  -14.6597 C   0  0  0  0  0  0  0  0  0  0  0  0
  -20.2519    9.6676  -16.0953 C   0  0  0  0  0  0  0  0  0  0  0  0
  -19.1243   10.1143  -16.9769 C   0  0  0  0  0  0  0  0  0  0  0  0
  -19.4046   11.3581  -17.7576 C   0  0  0  0  0  0  0  0  0  0  0  0
  -20.2182   12.3803  -17.0348 C   0  0  0  0  0  0  0  0  0  0  0  0
 14 15  1  0  0  0
 15 16  1  0  0  0
 16 17  1  0  0  0
 17 18  1  0  0  0
 18 19  1  0  0  0
 19 20  1  0  0  0
 20 21  1  0  0  0
 21 22  1  0  0  0
 21 13  1  0  0  0
 13  1  1  0  0  0
  1  2  2  0  0  0
  1  3  1  0  0  0
  3  4  2  0  0  0
  4  5  1  0  0  0
  5  6  1  0  0  0
  5  7  1  0  0  0
  7  8  2  0  0  0
  8  9  1  0  0  0
  9 10  2  0  0  0
 10 11  1  0  0  0
 11 12  2  0  0  0
 19 15  1  0  0  0
 12  3  1  0  0  0
 22 16  1  0  0  0
 12  7  1  0  0  0
M  END
> <minimizedAffinity>
-7.17229

> <CNNscore>
0.4618677199

> <CNNaffinity>
5.3131871223

> <CNN_VS>
2.4539895058

> <CNNaffinity_variance>
0.0507220924

$$$$
[H]c1c([H])c([H])c2c(c1[H])c(C(=O)OC1([H])C([H])([H])C3([H])N(C([H])([H])[H])C([H])(C([H])([H])C3([H])[H])C1([H])[H])c([H])n2C([H])([H])[H]


 22 25  0  0  0  0  0  0  0  0999 V2000
  -18.1411   14.6330  -21.5650 C   0  0  0  0  0  0  0  0  0  0  0  0
  -18.0511   15.6511  -20.8320 O   0  0  0  0  0  0  0  0  0  0  0  0
  -17.7688   13.3283  -21.0248 C   0  0  0  0  0  0  0  0  0  0  0  0
  -16.8389   12.4580  -21.5542 C   0  0  0  0  0  0  0  0  0  0  0  0
  -16.7544   11.3589  -20.7999 N   0  0  0  0  0  0  0  0  0  0  0  0
  -15.8742   10.2408  -21.0696 C   0  0  0  0  0  0  0  0  0  0  0  0
  -17.6167   11.4651  -19.7573 C   0  0  0  0  0  0  0  0  0  0  0  0
  -17.9291   10.6376  -18.6984 C   0  0  0  0  0  0  0  0  0  0  0  0
  -18.8677   10.9913  -17.7510 C   0  0  0  0  0  0  0  0  0  0  0  0
  -19.4983   12.2102  -17.8866 C   0  0  0  0  0  0  0  0  0  0  0  0
  -19.1760   13.0399  -18.9602 C   0  0  0  0  0  0  0  0  0  0  0  0
  -18.2503   12.6956  -19.8981 C   0  0  0  0  0  0  0  0  0  0  0  0
  -18.5884   14.8051  -22.8449 O   0  0  0  0  0  0  0  0  0  0  0  0
  -14.7957   15.6708  -26.6625 C   0  0  0  0  0  0  0  0  0  0  0  0
  -15.8480   15.5402  -25.7070 N   0  0  0  0  0  0  0  0  0  0  0  0
  -16.1684   14.1468  -25.4567 C   0  0  0  0  0  0  0  0  0  0  0  0
  -15.1655   13.6457  -24.4442 C   0  0  0  0  0  0  0  0  0  0  0  0
  -14.3956   14.9040  -24.0450 C   0  0  0  0  0  0  0  0  0  0  0  0
  -15.4159   15.9739  -24.3895 C   0  0  0  0  0  0  0  0  0  0  0  0
  -16.5305   15.8932  -23.3898 C   0  0  0  0  0  0  0  0  0  0  0  0
  -17.7890   15.2799  -23.9144 C   0  0  0  0  0  0  0  0  0  0  0  0
  -17.5837   14.1552  -24.8748 C   0  0  0  0  0  0  0  0  0  0  0  0
 14 15  1  0  0  0
 15 16  1  0  0  0
 16 17  1  0  0  0
 17 18  1  0  0  0
 18 19  1  0  0  0
 19 20  1  0  0  0
 20 21  1  0  0  0
 21 22  1  0  0  0
 21 13  1  0  0  0
 13  1  1  0  0  0
  1  2  2  0  0  0
  1  3  1  0  0  0
  3  4  2  0  0  0
  4  5  1  0  0  0
  5  6  1  0  0  0
  5  7  1  0  0  0
  7  8  2  0  0  0
  8  9  1  0  0  0
  9 10  2  0  0  0
 10 11  1  0  0  0
 11 12  2  0  0  0
 19 15  1  0  0  0
 12  3  1  0  0  0
 22 16  1  0  0  0
 12  7  1  0  0  0
M  END
> <minimizedAffinity>
-8.29870

> <CNNscore>
0.4605199397

> <CNNaffinity>
5.9658746719

> <CNN_VS>
2.7474043369

> <CNNaffinity_variance>
0.1794099659

$$$$
[H]c1c([H])c([H])c2c(c1[H])c(C(=O)OC1([H])C([H])([H])C3([H])N(C([H])([H])[H])C([H])(C([H])([H])C3([H])[H])C1([H])[H])c([H])n2C([H])([H])[H]


 22 25  0  0  0  0  0  0  0  0999 V2000
  -19.0703   14.1260  -19.9744 C   0  0  0  0  0  0  0  0  0  0  0  0
  -20.2841   14.2357  -20.2853 O   0  0  0  0  0  0  0  0  0  0  0  0
  -18.5308   12.8071  -19.6549 C   0  0  0  0  0  0  0  0  0  0  0  0
  -18.8928   12.0108  -18.5885 C   0  0  0  0  0  0  0  0  0  0  0  0
  -18.1956   10.8716  -18.6063 N   0  0  0  0  0  0  0  0  0  0  0  0
  -18.3276    9.8101  -17.6300 C   0  0  0  0  0  0  0  0  0  0  0  0
  -17.3581   10.8769  -19.6743 C   0  0  0  0  0  0  0  0  0  0  0  0
  -16.4349    9.9731  -20.1586 C   0  0  0  0  0  0  0  0  0  0  0  0
  -15.6939   10.2280  -21.2942 C   0  0  0  0  0  0  0  0  0  0  0  0
  -15.8985   11.4256  -21.9466 C   0  0  0  0  0  0  0  0  0  0  0  0
  -16.8337   12.3329  -21.4497 C   0  0  0  0  0  0  0  0  0  0  0  0
  -17.5679   12.0863  -20.3292 C   0  0  0  0  0  0  0  0  0  0  0  0
  -18.3116   15.2626  -19.9519 O   0  0  0  0  0  0  0  0  0  0  0  0
  -19.3895   18.3164  -15.5679 C   0  0  0  0  0  0  0  0  0  0  0  0
  -19.0085   17.5849  -16.7327 N   0  0  0  0  0  0  0  0  0  0  0  0
  -19.2804   16.1671  -16.5822 C   0  0  0  0  0  0  0  0  0  0  0  0
  -20.7404   15.9672  -16.9150 C   0  0  0  0  0  0  0  0  0  0  0  0
  -21.1883   17.3402  -17.4146 C   0  0  0  0  0  0  0  0  0  0  0  0
  -19.8584   17.9194  -17.8625 C   0  0  0  0  0  0  0  0  0  0  0  0
  -19.4317   17.1978  -19.1057 C   0  0  0  0  0  0  0  0  0  0  0  0
  -18.3258   16.2129  -18.9007 C   0  0  0  0  0  0  0  0  0  0  0  0
  -18.3803   15.4715  -17.6059 C   0  0  0  0  0  0  0  0  0  0  0  0
 14 15  1  0  0  0
 15 16  1  0  0  0
 16 17  1  0  0  0
 17 18  1  0  0  0
 18 19  1  0  0  0
 19 20  1  0  0  0
 20 21  1  0  0  0
 21 22  1  0  0  0
 21 13  1  0  0  0
 13  1  1  0  0  0
  1  2  2  0  0  0
  1  3  1  0  0  0
  3  4  2  0  0  0
  4  5  1  0  0  0
  5  6  1  0  0  0
  5  7  1  0  0  0
  7  8  2  0  0  0
  8  9  1  0  0  0
  9 10  2  0  0  0
 10 11  1  0  0  0
 11 12  2  0  0  0
 19 15  1  0  0  0
 12  3  1  0  0  0
 22 16  1  0  0  0
 12  7  1  0  0  0
M  END
> <minimizedAffinity>
-6.79190

> <CNNscore>
0.4475725889

> <CNNaffinity>
5.2569980621

> <CNN_VS>
2.3528883457

> <CNNaffinity_variance>
0.2023431957

$$$$
[H]c1c([H])c([H])c2c(c1[H])c(C(=O)OC1([H])C([H])([H])C3([H])N(C([H])([H])[H])C([H])(C([H])([H])C3([H])[H])C1([H])[H])c([H])n2C([H])([H])[H]


 22 25  0  0  0  0  0  0  0  0999 V2000
  -19.7271   13.7760  -18.8443 C   0  0  0  0  0  0  0  0  0  0  0  0
  -20.9676   13.8235  -19.0459 O   0  0  0  0  0  0  0  0  0  0  0  0
  -19.0704   12.4764  -18.7326 C   0  0  0  0  0  0  0  0  0  0  0  0
  -19.2925   11.5280  -17.7561 C   0  0  0  0  0  0  0  0  0  0  0  0
  -18.5174   10.4606  -17.9653 N   0  0  0  0  0  0  0  0  0  0  0  0
  -18.4981    9.2798  -17.1270 C   0  0  0  0  0  0  0  0  0  0  0  0
  -17.7648   10.6657  -19.0760 C   0  0  0  0  0  0  0  0  0  0  0  0
  -16.8169    9.9070  -19.7313 C   0  0  0  0  0  0  0  0  0  0  0  0
  -16.1835   10.3593  -20.8705 C   0  0  0  0  0  0  0  0  0  0  0  0
  -16.5231   11.6073  -21.3490 C   0  0  0  0  0  0  0  0  0  0  0  0
  -17.4823   12.3670  -20.6799 C   0  0  0  0  0  0  0  0  0  0  0  0
  -18.1106   11.9253  -19.5551 C   0  0  0  0  0  0  0  0  0  0  0  0
  -19.0515   14.9594  -18.7389 O   0  0  0  0  0  0  0  0  0  0  0  0
  -18.0990   18.4503  -22.8150 C   0  0  0  0  0  0  0  0  0  0  0  0
  -18.4539   17.5932  -21.7303 N   0  0  0  0  0  0  0  0  0  0  0  0
  -18.0394   16.2242  -21.9774 C   0  0  0  0  0  0  0  0  0  0  0  0
  -16.5816   16.1355  -21.5912 C   0  0  0  0  0  0  0  0  0  0  0  0
  -16.2901   17.4988  -20.9652 C   0  0  0  0  0  0  0  0  0  0  0  0
  -17.6871   17.9120  -20.5383 C   0  0  0  0  0  0  0  0  0  0  0  0
  -18.0916   17.0540  -19.3770 C   0  0  0  0  0  0  0  0  0  0  0  0
  -19.0872   15.9899  -19.7111 C   0  0  0  0  0  0  0  0  0  0  0  0
  -18.9083   15.3657  -21.0556 C   0  0  0  0  0  0  0  0  0  0  0  0
 14 15  1  0  0  0
 15 16  1  0  0  0
 16 17  1  0  0  0
 17 18  1  0  0  0
 18 19  1  0  0  0
 19 20  1  0  0  0
 20 21  1  0  0  0
 21 22  1  0  0  0
 21 13  1  0  0  0
 13  1  1  0  0  0
  1  2  2  0  0  0
  1  3  1  0  0  0
  3  4  2  0  0  0
  4  5  1  0  0  0
  5  6  1  0  0  0
  5  7  1  0  0  0
  7  8  2  0  0  0
  8  9  1  0  0  0
  9 10  2  0  0  0
 10 11  1  0  0  0
 11 12  2  0  0  0
 19 15  1  0  0  0
 12  3  1  0  0  0
 22 16  1  0  0  0
 12  7  1  0  0  0
M  END
> <minimizedAffinity>
-7.38288

> <CNNscore>
0.4304031134

> <CNNaffinity>
5.4755587578

> <CNN_VS>
2.3566975594

> <CNNaffinity_variance>
0.2287220061

$$$$
[H]c1c([H])c([H])c2c(c1[H])c(C(=O)OC1([H])C([H])([H])C3([H])N(C([H])([H])[H])C([H])(C([H])([H])C3([H])[H])C1([H])[H])c([H])n2C([H])([H])[H]


 22 25  0  0  0  0  0  0  0  0999 V2000
  -18.6411   14.2439  -21.3991 C   0  0  0  0  0  0  0  0  0  0  0  0
  -18.1762   14.8737  -22.3835 O   0  0  0  0  0  0  0  0  0  0  0  0
  -17.9964   13.0042  -20.9746 C   0  0  0  0  0  0  0  0  0  0  0  0
  -16.9665   12.3538  -21.6216 C   0  0  0  0  0  0  0  0  0  0  0  0
  -16.6251   11.2501  -20.9513 N   0  0  0  0  0  0  0  0  0  0  0  0
  -15.5787   10.3331  -21.3533 C   0  0  0  0  0  0  0  0  0  0  0  0
  -17.4099   11.1354  -19.8499 C   0  0  0  0  0  0  0  0  0  0  0  0
  -17.4838   10.2071  -18.8319 C   0  0  0  0  0  0  0  0  0  0  0  0
  -18.3959   10.3262  -17.8036 C   0  0  0  0  0  0  0  0  0  0  0  0
  -19.2471   11.4111  -17.8143 C   0  0  0  0  0  0  0  0  0  0  0  0
  -19.1650   12.3443  -18.8474 C   0  0  0  0  0  0  0  0  0  0  0  0
  -18.2666   12.2316  -19.8649 C   0  0  0  0  0  0  0  0  0  0  0  0
  -19.7397   14.7608  -20.7713 O   0  0  0  0  0  0  0  0  0  0  0  0
  -19.3044   18.3519  -16.6943 C   0  0  0  0  0  0  0  0  0  0  0  0
  -19.4491   17.5043  -17.8335 N   0  0  0  0  0  0  0  0  0  0  0  0
  -18.4357   16.4653  -17.8548 C   0  0  0  0  0  0  0  0  0  0  0  0
  -18.9280   15.3601  -16.9503 C   0  0  0  0  0  0  0  0  0  0  0  0
  -20.3430   15.8011  -16.5781 C   0  0  0  0  0  0  0  0  0  0  0  0
  -20.6651   16.7141  -17.7473 C   0  0  0  0  0  0  0  0  0  0  0  0
  -20.8553   15.8607  -18.9654 C   0  0  0  0  0  0  0  0  0  0  0  0
  -19.7186   15.9050  -19.9355 C   0  0  0  0  0  0  0  0  0  0  0  0
  -18.3659   15.9980  -19.3104 C   0  0  0  0  0  0  0  0  0  0  0  0
 14 15  1  0  0  0
 15 16  1  0  0  0
 16 17  1  0  0  0
 17 18  1  0  0  0
 18 19  1  0  0  0
 19 20  1  0  0  0
 20 21  1  0  0  0
 21 22  1  0  0  0
 21 13  1  0  0  0
 13  1  1  0  0  0
  1  2  2  0  0  0
  1  3  1  0  0  0
  3  4  2  0  0  0
  4  5  1  0  0  0
  5  6  1  0  0  0
  5  7  1  0  0  0
  7  8  2  0  0  0
  8  9  1  0  0  0
  9 10  2  0  0  0
 10 11  1  0  0  0
 11 12  2  0  0  0
 19 15  1  0  0  0
 12  3  1  0  0  0
 22 16  1  0  0  0
 12  7  1  0  0  0
M  END
> <minimizedAffinity>
-6.98949

> <CNNscore>
0.4269764423

> <CNNaffinity>
5.3799819946

> <CNN_VS>
2.2971255779

> <CNNaffinity_variance>
0.1194348708

$$$$
[H]O[C@]1([H])C([H])([H])[C@]2([H])[C@](C([H])([H])[H])(C([H])([H])C([H])([H])[C@@]1([H])C([H])([H])[H])[C@@]1([H])C([H])([H])C([H])([H])[C@]3(C([H])([H])[H])[C@@]([H])(C([H])([H])[H])C([H])([H])C([H])([H])C([H])([H])[C@@]3([H])[C@]1([H])C([H])([H])[C@@]2([H])C([H])([H])[H]


 26 29  0  0  0  0  0  0  0  0999 V2000
  -18.8928   15.5713  -19.1776 C   0  0  0  0  0  0  0  0  0  0  0  0
  -20.2545   16.1438  -19.5989 C   0  0  0  0  0  0  0  0  0  0  0  0
  -19.9877   17.4403  -20.2828 C   0  0  0  0  0  0  0  0  0  0  0  0
  -21.2252   18.2832  -20.4748 C   0  0  0  0  0  0  0  0  0  0  0  0
  -21.3696   18.5870  -21.9511 C   0  0  0  0  0  0  0  0  0  0  0  0
  -20.3340   19.6520  -22.2773 C   0  0  0  0  0  0  0  0  0  0  0  0
  -20.5487   20.2876  -23.6041 C   0  0  0  0  0  0  0  0  0  0  0  0
  -21.5651   19.6416  -24.4674 C   0  0  0  0  0  0  0  0  0  0  0  0
  -22.8227   19.2331  -23.7917 C   0  0  0  0  0  0  0  0  0  0  0  0
  -24.0243   20.0486  -24.2195 C   0  0  0  0  0  0  0  0  0  0  0  0
  -22.7210   19.1830  -22.2826 C   0  0  0  0  0  0  0  0  0  0  0  0
  -22.9638   20.5050  -21.6379 C   0  0  0  0  0  0  0  0  0  0  0  0
  -23.8006   18.2272  -21.8054 C   0  0  0  0  0  0  0  0  0  0  0  0
  -23.7195   18.1304  -20.2855 C   0  0  0  0  0  0  0  0  0  0  0  0
  -22.4033   17.5113  -19.9527 C   0  0  0  0  0  0  0  0  0  0  0  0
  -22.2108   17.2543  -18.4745 C   0  0  0  0  0  0  0  0  0  0  0  0
  -21.9506   18.6287  -17.8429 C   0  0  0  0  0  0  0  0  0  0  0  0
  -23.5055   16.7666  -17.9171 C   0  0  0  0  0  0  0  0  0  0  0  0
  -23.5033   16.2932  -16.5275 C   0  0  0  0  0  0  0  0  0  0  0  0
  -22.2032   16.0050  -15.8890 C   0  0  0  0  0  0  0  0  0  0  0  0
  -22.4841   15.6639  -14.4153 C   0  0  0  0  0  0  0  0  0  0  0  0
  -21.5078   14.7745  -16.4537 C   0  0  0  0  0  0  0  0  0  0  0  0
  -20.1778   14.8315  -16.0155 O   0  0  0  0  0  0  0  0  0  0  0  0
  -21.5047   14.9001  -17.9406 C   0  0  0  0  0  0  0  0  0  0  0  0
  -21.0636   16.3213  -18.3150 C   0  0  0  0  0  0  0  0  0  0  0  0
  -19.9309   15.7738  -15.7920 H   0  0  0  0  0  0  0  0  0  0  0  0
  1  2  1  0  0  0
  2  3  1  0  0  0
  3  4  1  0  0  0
  4  5  1  0  0  0
  5  6  1  0  0  0
  6  7  1  0  0  0
  7  8  1  0  0  0
  8  9  1  0  0  0
  9 10  1  0  0  0
  9 11  1  0  0  0
 11 12  1  0  0  0
 11 13  1  0  0  0
 13 14  1  0  0  0
 14 15  1  0  0  0
 15 16  1  0  0  0
 16 17  1  0  0  0
 16 18  1  0  0  0
 18 19  1  0  0  0
 19 20  1  0  0  0
 20 21  1  0  0  0
 20 22  1  0  0  0
 22 23  1  0  0  0
 22 24  1  0  0  0
 24 25  1  0  0  0
 25  2  1  0  0  0
 15  4  1  0  0  0
 25 16  1  0  0  0
 11  5  1  0  0  0
 23 26  1  0  0  0
M  END
> <minimizedAffinity>
-5.49022

> <CNNscore>
0.4001604021

> <CNNaffinity>
5.9039893150

> <CNN_VS>
2.3625426292

> <CNNaffinity_variance>
0.3404936492

$$$$
[H]O[C@]1([H])C([H])([H])[C@]2([H])[C@](C([H])([H])[H])(C([H])([H])C([H])([H])[C@@]1([H])C([H])([H])[H])[C@@]1([H])C([H])([H])C([H])([H])[C@]3(C([H])([H])[H])[C@@]([H])(C([H])([H])[H])C([H])([H])C([H])([H])C([H])([H])[C@@]3([H])[C@]1([H])C([H])([H])[C@@]2([H])C([H])([H])[H]


 26 29  0  0  0  0  0  0  0  0999 V2000
  -18.7961   16.2271  -17.1642 C   0  0  0  0  0  0  0  0  0  0  0  0
  -19.9833   16.9916  -17.7689 C   0  0  0  0  0  0  0  0  0  0  0  0
  -19.4963   17.6263  -19.0258 C   0  0  0  0  0  0  0  0  0  0  0  0
  -20.4385   18.6700  -19.5751 C   0  0  0  0  0  0  0  0  0  0  0  0
  -20.7987   18.2859  -20.9946 C   0  0  0  0  0  0  0  0  0  0  0  0
  -19.5885   18.6186  -21.8536 C   0  0  0  0  0  0  0  0  0  0  0  0
  -19.8835   18.5975  -23.3106 C   0  0  0  0  0  0  0  0  0  0  0  0
  -21.2062   18.0467  -23.6889 C   0  0  0  0  0  0  0  0  0  0  0  0
  -22.3531   18.4873  -22.8548 C   0  0  0  0  0  0  0  0  0  0  0  0
  -23.3205   19.3868  -23.5943 C   0  0  0  0  0  0  0  0  0  0  0  0
  -21.9501   19.1071  -21.5343 C   0  0  0  0  0  0  0  0  0  0  0  0
  -21.6451   20.5623  -21.6427 C   0  0  0  0  0  0  0  0  0  0  0  0
  -23.1364   18.9486  -20.5994 C   0  0  0  0  0  0  0  0  0  0  0  0
  -22.7643   19.5432  -19.2452 C   0  0  0  0  0  0  0  0  0  0  0  0
  -21.6522   18.7168  -18.6914 C   0  0  0  0  0  0  0  0  0  0  0  0
  -21.2329   19.1221  -17.2956 C   0  0  0  0  0  0  0  0  0  0  0  0
  -20.4471   20.4302  -17.4598 C   0  0  0  0  0  0  0  0  0  0  0  0
  -22.4632   19.4574  -16.5218 C   0  0  0  0  0  0  0  0  0  0  0  0
  -22.3041   19.7161  -15.0855 C   0  0  0  0  0  0  0  0  0  0  0  0
  -21.0433   19.3044  -14.4361 C   0  0  0  0  0  0  0  0  0  0  0  0
  -21.0904   19.8121  -12.9846 C   0  0  0  0  0  0  0  0  0  0  0  0
  -20.8828   17.7952  -14.3217 C   0  0  0  0  0  0  0  0  0  0  0  0
  -19.5343   17.5589  -14.0212 O   0  0  0  0  0  0  0  0  0  0  0  0
  -21.1610   17.2083  -15.6651 C   0  0  0  0  0  0  0  0  0  0  0  0
  -20.4084   18.0234  -16.7253 C   0  0  0  0  0  0  0  0  0  0  0  0
  -18.9767   18.3340  -14.3166 H   0  0  0  0  0  0  0  0  0  0  0  0
  1  2  1  0  0  0
  2  3  1  0  0  0
  3  4  1  0  0  0
  4  5  1  0  0  0
  5  6  1  0  0  0
  6  7  1  0  0  0
  7  8  1  0  0  0
  8  9  1  0  0  0
  9 10  1  0  0  0
  9 11  1  0  0  0
 11 12  1  0  0  0
 11 13  1  0  0  0
 13 14  1  0  0  0
 14 15  1  0  0  0
 15 16  1  0  0  0
 16 17  1  0  0  0
 16 18  1  0  0  0
 18 19  1  0  0  0
 19 20  1  0  0  0
 20 21  1  0  0  0
 20 22  1  0  0  0
 22 23  1  0  0  0
 22 24  1  0  0  0
 24 25  1  0  0  0
 25  2  1  0  0  0
 15  4  1  0  0  0
 25 16  1  0  0  0
 11  5  1  0  0  0
 23 26  1  0  0  0
M  END
> <minimizedAffinity>
-5.81110

> <CNNscore>
0.3496201634

> <CNNaffinity>
5.7907257080

> <CNN_VS>
2.0245544910

> <CNNaffinity_variance>
0.2795799375

$$$$
[H]O[C@]1([H])C([H])([H])[C@]2([H])[C@](C([H])([H])[H])(C([H])([H])C([H])([H])[C@@]1([H])C([H])([H])[H])[C@@]1([H])C([H])([H])C([H])([H])[C@]3(C([H])([H])[H])[C@@]([H])(C([H])([H])[H])C([H])([H])C([H])([H])C([H])([H])[C@@]3([H])[C@]1([H])C([H])([H])[C@@]2([H])C([H])([H])[H]


 26 29  0  0  0  0  0  0  0  0999 V2000
  -16.7498   16.3321  -18.7122 C   0  0  0  0  0  0  0  0  0  0  0  0
  -18.1554   16.3348  -19.3319 C   0  0  0  0  0  0  0  0  0  0  0  0
  -18.8702   17.5206  -18.7818 C   0  0  0  0  0  0  0  0  0  0  0  0
  -20.3580   17.4955  -19.0361 C   0  0  0  0  0  0  0  0  0  0  0  0
  -20.7358   18.7617  -19.7753 C   0  0  0  0  0  0  0  0  0  0  0  0
  -20.7141   19.8847  -18.7498 C   0  0  0  0  0  0  0  0  0  0  0  0
  -21.3620   21.1314  -19.2359 C   0  0  0  0  0  0  0  0  0  0  0  0
  -21.7070   21.1547  -20.6768 C   0  0  0  0  0  0  0  0  0  0  0  0
  -22.3216   19.9146  -21.2151 C   0  0  0  0  0  0  0  0  0  0  0  0
  -23.7749   20.0862  -21.6026 C   0  0  0  0  0  0  0  0  0  0  0  0
  -22.1457   18.7047  -20.3233 C   0  0  0  0  0  0  0  0  0  0  0  0
  -23.1923   18.6025  -19.2666 C   0  0  0  0  0  0  0  0  0  0  0  0
  -22.2671   17.4835  -21.2181 C   0  0  0  0  0  0  0  0  0  0  0  0
  -22.0742   16.2375  -20.3600 C   0  0  0  0  0  0  0  0  0  0  0  0
  -20.6744   16.2696  -19.8444 C   0  0  0  0  0  0  0  0  0  0  0  0
  -20.2930   15.0405  -19.0494 C   0  0  0  0  0  0  0  0  0  0  0  0
  -21.0070   15.1801  -17.6979 C   0  0  0  0  0  0  0  0  0  0  0  0
  -20.8862   13.8501  -19.7245 C   0  0  0  0  0  0  0  0  0  0  0  0
  -20.5013   12.5278  -19.2161 C   0  0  0  0  0  0  0  0  0  0  0  0
  -19.3243   12.4350  -18.3290 C   0  0  0  0  0  0  0  0  0  0  0  0
  -19.2330   10.9784  -17.8425 C   0  0  0  0  0  0  0  0  0  0  0  0
  -18.0045   12.6974  -19.0403 C   0  0  0  0  0  0  0  0  0  0  0  0
  -17.0487   12.9181  -18.0392 O   0  0  0  0  0  0  0  0  0  0  0  0
  -18.1537   13.9631  -19.8165 C   0  0  0  0  0  0  0  0  0  0  0  0
  -18.8117   15.0186  -18.9178 C   0  0  0  0  0  0  0  0  0  0  0  0
  -17.4974   13.2137  -17.1965 H   0  0  0  0  0  0  0  0  0  0  0  0
  1  2  1  0  0  0
  2  3  1  0  0  0
  3  4  1  0  0  0
  4  5  1  0  0  0
  5  6  1  0  0  0
  6  7  1  0  0  0
  7  8  1  0  0  0
  8  9  1  0  0  0
  9 10  1  0  0  0
  9 11  1  0  0  0
 11 12  1  0  0  0
 11 13  1  0  0  0
 13 14  1  0  0  0
 14 15  1  0  0  0
 15 16  1  0  0  0
 16 17  1  0  0  0
 16 18  1  0  0  0
 18 19  1  0  0  0
 19 20  1  0  0  0
 20 21  1  0  0  0
 20 22  1  0  0  0
 22 23  1  0  0  0
 22 24  1  0  0  0
 24 25  1  0  0  0
 25  2  1  0  0  0
 15  4  1  0  0  0
 25 16  1  0  0  0
 11  5  1  0  0  0
 23 26  1  0  0  0
M  END
> <minimizedAffinity>
-4.20729

> <CNNscore>
0.3489557207

> <CNNaffinity>
5.9738206863

> <CNN_VS>
2.0845990181

> <CNNaffinity_variance>
1.0949096680

$$$$
[H]O[C@]1([H])C([H])([H])[C@]2([H])[C@](C([H])([H])[H])(C([H])([H])C([H])([H])[C@@]1([H])C([H])([H])[H])[C@@]1([H])C([H])([H])C([H])([H])[C@]3(C([H])([H])[H])[C@@]([H])(C([H])([H])[H])C([H])([H])C([H])([H])C([H])([H])[C@@]3([H])[C@]1([H])C([H])([H])[C@@]2([H])C([H])([H])[H]


 26 29  0  0  0  0  0  0  0  0999 V2000
  -16.1004   13.8113  -22.1055 C   0  0  0  0  0  0  0  0  0  0  0  0
  -16.8803   14.2502  -20.8570 C   0  0  0  0  0  0  0  0  0  0  0  0
  -17.7799   13.1214  -20.4879 C   0  0  0  0  0  0  0  0  0  0  0  0
  -18.8398   13.5028  -19.4829 C   0  0  0  0  0  0  0  0  0  0  0  0
  -18.7133   12.5842  -18.2861 C   0  0  0  0  0  0  0  0  0  0  0  0
  -19.2923   11.2423  -18.7070 C   0  0  0  0  0  0  0  0  0  0  0  0
  -19.5328   10.3254  -17.5617 C   0  0  0  0  0  0  0  0  0  0  0  0
  -18.9722   10.7629  -16.2616 C   0  0  0  0  0  0  0  0  0  0  0  0
  -19.1592   12.1974  -15.9263 C   0  0  0  0  0  0  0  0  0  0  0  0
  -20.1131   12.4232  -14.7726 C   0  0  0  0  0  0  0  0  0  0  0  0
  -19.5386   13.0606  -17.1100 C   0  0  0  0  0  0  0  0  0  0  0  0
  -21.0053   13.0719  -17.3766 C   0  0  0  0  0  0  0  0  0  0  0  0
  -19.1171   14.4789  -16.7670 C   0  0  0  0  0  0  0  0  0  0  0  0
  -19.4631   15.3819  -17.9463 C   0  0  0  0  0  0  0  0  0  0  0  0
  -18.6271   14.9398  -19.1004 C   0  0  0  0  0  0  0  0  0  0  0  0
  -18.7832   15.8075  -20.3295 C   0  0  0  0  0  0  0  0  0  0  0  0
  -20.1514   15.4462  -20.9239 C   0  0  0  0  0  0  0  0  0  0  0  0
  -18.8729   17.2284  -19.8846 C   0  0  0  0  0  0  0  0  0  0  0  0
  -18.8591   18.2614  -20.9276 C   0  0  0  0  0  0  0  0  0  0  0  0
  -18.4210   17.8789  -22.2850 C   0  0  0  0  0  0  0  0  0  0  0  0
  -18.6330   19.1014  -23.1946 C   0  0  0  0  0  0  0  0  0  0  0  0
  -16.9337   17.5695  -22.3795 C   0  0  0  0  0  0  0  0  0  0  0  0
  -16.7413   16.9034  -23.5975 O   0  0  0  0  0  0  0  0  0  0  0  0
  -16.5999   16.6171  -21.2803 C   0  0  0  0  0  0  0  0  0  0  0  0
  -17.6570   15.5051  -21.2527 C   0  0  0  0  0  0  0  0  0  0  0  0
  -17.5969   16.4823  -23.8965 H   0  0  0  0  0  0  0  0  0  0  0  0
  1  2  1  0  0  0
  2  3  1  0  0  0
  3  4  1  0  0  0
  4  5  1  0  0  0
  5  6  1  0  0  0
  6  7  1  0  0  0
  7  8  1  0  0  0
  8  9  1  0  0  0
  9 10  1  0  0  0
  9 11  1  0  0  0
 11 12  1  0  0  0
 11 13  1  0  0  0
 13 14  1  0  0  0
 14 15  1  0  0  0
 15 16  1  0  0  0
 16 17  1  0  0  0
 16 18  1  0  0  0
 18 19  1  0  0  0
 19 20  1  0  0  0
 20 21  1  0  0  0
 20 22  1  0  0  0
 22 23  1  0  0  0
 22 24  1  0  0  0
 24 25  1  0  0  0
 25  2  1  0  0  0
 15  4  1  0  0  0
 25 16  1  0  0  0
 11  5  1  0  0  0
 23 26  1  0  0  0
M  END
> <minimizedAffinity>
-4.53804

> <CNNscore>
0.3407411277

> <CNNaffinity>
6.3174099922

> <CNN_VS>
2.1526014805

> <CNNaffinity_variance>
0.8659502268

$$$$
[H]O[C@]1([H])C([H])([H])[C@]2([H])[C@](C([H])([H])[H])(C([H])([H])C([H])([H])[C@@]1([H])C([H])([H])[H])[C@@]1([H])C([H])([H])C([H])([H])[C@]3(C([H])([H])[H])[C@@]([H])(C([H])([H])[H])C([H])([H])C([H])([H])C([H])([H])[C@@]3([H])[C@]1([H])C([H])([H])[C@@]2([H])C([H])([H])[H]


 26 29  0  0  0  0  0  0  0  0999 V2000
  -19.5214   17.7696  -23.5522 C   0  0  0  0  0  0  0  0  0  0  0  0
  -19.2808   16.4796  -22.7536 C   0  0  0  0  0  0  0  0  0  0  0  0
  -19.4197   16.8292  -21.3119 C   0  0  0  0  0  0  0  0  0  0  0  0
  -18.9032   15.7578  -20.3823 C   0  0  0  0  0  0  0  0  0  0  0  0
  -20.0246   15.3585  -19.4467 C   0  0  0  0  0  0  0  0  0  0  0  0
  -20.1575   16.4791  -18.4270 C   0  0  0  0  0  0  0  0  0  0  0  0
  -20.9940   16.1061  -17.2558 C   0  0  0  0  0  0  0  0  0  0  0  0
  -21.7308   14.8261  -17.3760 C   0  0  0  0  0  0  0  0  0  0  0  0
  -20.9645   13.6896  -17.9473 C   0  0  0  0  0  0  0  0  0  0  0  0
  -20.6742   12.5969  -16.9405 C   0  0  0  0  0  0  0  0  0  0  0  0
  -19.6991   14.1022  -18.6676 C   0  0  0  0  0  0  0  0  0  0  0  0
  -18.5312   14.2534  -17.7536 C   0  0  0  0  0  0  0  0  0  0  0  0
  -19.3781   12.9922  -19.6533 C   0  0  0  0  0  0  0  0  0  0  0  0
  -18.1167   13.3786  -20.4186 C   0  0  0  0  0  0  0  0  0  0  0  0
  -18.4409   14.5972  -21.2162 C   0  0  0  0  0  0  0  0  0  0  0  0
  -17.3118   15.0517  -22.1145 C   0  0  0  0  0  0  0  0  0  0  0  0
  -16.2717   15.6921  -21.1850 C   0  0  0  0  0  0  0  0  0  0  0  0
  -16.6707   13.8395  -22.7014 C   0  0  0  0  0  0  0  0  0  0  0  0
  -15.6550   14.0524  -23.7398 C   0  0  0  0  0  0  0  0  0  0  0  0
  -15.5734   15.3827  -24.3759 C   0  0  0  0  0  0  0  0  0  0  0  0
  -14.3528   15.3668  -25.3123 C   0  0  0  0  0  0  0  0  0  0  0  0
  -16.7584   15.6997  -25.2770 C   0  0  0  0  0  0  0  0  0  0  0  0
  -16.7184   17.0797  -25.5182 O   0  0  0  0  0  0  0  0  0  0  0  0
  -18.0024   15.4064  -24.5068 C   0  0  0  0  0  0  0  0  0  0  0  0
  -17.8687   16.0128  -23.1035 C   0  0  0  0  0  0  0  0  0  0  0  0
  -16.2066   17.5394  -24.7932 H   0  0  0  0  0  0  0  0  0  0  0  0
  1  2  1  0  0  0
  2  3  1  0  0  0
  3  4  1  0  0  0
  4  5  1  0  0  0
  5  6  1  0  0  0
  6  7  1  0  0  0
  7  8  1  0  0  0
  8  9  1  0  0  0
  9 10  1  0  0  0
  9 11  1  0  0  0
 11 12  1  0  0  0
 11 13  1  0  0  0
 13 14  1  0  0  0
 14 15  1  0  0  0
 15 16  1  0  0  0
 16 17  1  0  0  0
 16 18  1  0  0  0
 18 19  1  0  0  0
 19 20  1  0  0  0
 20 21  1  0  0  0
 20 22  1  0  0  0
 22 23  1  0  0  0
 22 24  1  0  0  0
 24 25  1  0  0  0
 25  2  1  0  0  0
 15  4  1  0  0  0
 25 16  1  0  0  0
 11  5  1  0  0  0
 23 26  1  0  0  0
M  END
> <minimizedAffinity>
-9.56143

> <CNNscore>
0.3379350007

> <CNNaffinity>
6.5335845947

> <CNN_VS>
2.2079269886

> <CNNaffinity_variance>
0.1487902105

$$$$
[H]O[C@]1([H])C([H])([H])[C@]2([H])[C@](C([H])([H])[H])(C([H])([H])C([H])([H])[C@@]1([H])C([H])([H])[H])[C@@]1([H])C([H])([H])C([H])([H])[C@]3(C([H])([H])[H])[C@@]([H])(C([H])([H])[H])C([H])([H])C([H])([H])C([H])([H])[C@@]3([H])[C@]1([H])C([H])([H])[C@@]2([H])C([H])([H])[H]


 26 29  0  0  0  0  0  0  0  0999 V2000
  -16.8541   16.4138  -18.1078 C   0  0  0  0  0  0  0  0  0  0  0  0
  -18.0696   16.4431  -19.0466 C   0  0  0  0  0  0  0  0  0  0  0  0
  -18.3661   17.8758  -19.3285 C   0  0  0  0  0  0  0  0  0  0  0  0
  -19.7145   18.0942  -19.9712 C   0  0  0  0  0  0  0  0  0  0  0  0
  -19.5055   18.8335  -21.2759 C   0  0  0  0  0  0  0  0  0  0  0  0
  -19.2068   20.2795  -20.9112 C   0  0  0  0  0  0  0  0  0  0  0  0
  -19.2864   21.2029  -22.0738 C   0  0  0  0  0  0  0  0  0  0  0  0
  -19.4112   20.5542  -23.4002 C   0  0  0  0  0  0  0  0  0  0  0  0
  -20.3618   19.4159  -23.4769 C   0  0  0  0  0  0  0  0  0  0  0  0
  -21.5895   19.7162  -24.3103 C   0  0  0  0  0  0  0  0  0  0  0  0
  -20.7560   18.8528  -22.1286 C   0  0  0  0  0  0  0  0  0  0  0  0
  -21.8938   19.5841  -21.5018 C   0  0  0  0  0  0  0  0  0  0  0  0
  -21.1993   17.4201  -22.3684 C   0  0  0  0  0  0  0  0  0  0  0  0
  -21.5866   16.8057  -21.0274 C   0  0  0  0  0  0  0  0  0  0  0  0
  -20.3504   16.7517  -20.1936 C   0  0  0  0  0  0  0  0  0  0  0  0
  -20.5496   16.0709  -18.8575 C   0  0  0  0  0  0  0  0  0  0  0  0
  -21.3302   17.0703  -17.9929 C   0  0  0  0  0  0  0  0  0  0  0  0
  -21.4448   14.8962  -19.0656 C   0  0  0  0  0  0  0  0  0  0  0  0
  -21.6381   13.9886  -17.9280 C   0  0  0  0  0  0  0  0  0  0  0  0
  -20.7006   14.0829  -16.7909 C   0  0  0  0  0  0  0  0  0  0  0  0
  -21.2108   13.1279  -15.6981 C   0  0  0  0  0  0  0  0  0  0  0  0
  -19.2966   13.5946  -17.1182 C   0  0  0  0  0  0  0  0  0  0  0  0
  -18.4631   14.0592  -16.0917 O   0  0  0  0  0  0  0  0  0  0  0  0
  -18.8723   14.2569  -18.3863 C   0  0  0  0  0  0  0  0  0  0  0  0
  -19.2087   15.7516  -18.2990 C   0  0  0  0  0  0  0  0  0  0  0  0
  -18.8769   14.8531  -15.6474 H   0  0  0  0  0  0  0  0  0  0  0  0
  1  2  1  0  0  0
  2  3  1  0  0  0
  3  4  1  0  0  0
  4  5  1  0  0  0
  5  6  1  0  0  0
  6  7  1  0  0  0
  7  8  1  0  0  0
  8  9  1  0  0  0
  9 10  1  0  0  0
  9 11  1  0  0  0
 11 12  1  0  0  0
 11 13  1  0  0  0
 13 14  1  0  0  0
 14 15  1  0  0  0
 15 16  1  0  0  0
 16 17  1  0  0  0
 16 18  1  0  0  0
 18 19  1  0  0  0
 19 20  1  0  0  0
 20 21  1  0  0  0
 20 22  1  0  0  0
 22 23  1  0  0  0
 22 24  1  0  0  0
 24 25  1  0  0  0
 25  2  1  0  0  0
 15  4  1  0  0  0
 25 16  1  0  0  0
 11  5  1  0  0  0
 23 26  1  0  0  0
M  END
> <minimizedAffinity>
-4.98198

> <CNNscore>
0.3311973810

> <CNNaffinity>
5.9985766411

> <CNN_VS>
1.9867129326

> <CNNaffinity_variance>
0.9317466021

$$$$
[H]O[C@]1([H])C([H])([H])[C@]2([H])[C@](C([H])([H])[H])(C([H])([H])C([H])([H])[C@@]1([H])C([H])([H])[H])[C@@]1([H])C([H])([H])C([H])([H])[C@]3(C([H])([H])[H])[C@@]([H])(C([H])([H])[H])C([H])([H])C([H])([H])C([H])([H])[C@@]3([H])[C@]1([H])C([H])([H])[C@@]2([H])C([H])([H])[H]


 26 29  0  0  0  0  0  0  0  0999 V2000
  -17.3883   12.4114  -22.0882 C   0  0  0  0  0  0  0  0  0  0  0  0
  -17.3375   13.9120  -21.7638 C   0  0  0  0  0  0  0  0  0  0  0  0
  -18.6546   14.2722  -21.1675 C   0  0  0  0  0  0  0  0  0  0  0  0
  -18.8894   15.7611  -21.0866 C   0  0  0  0  0  0  0  0  0  0  0  0
  -19.1743   16.1202  -19.6436 C   0  0  0  0  0  0  0  0  0  0  0  0
  -20.5967   15.6644  -19.3566 C   0  0  0  0  0  0  0  0  0  0  0  0
  -21.1427   16.2188  -18.0897 C   0  0  0  0  0  0  0  0  0  0  0  0
  -20.1652   16.9162  -17.2214 C   0  0  0  0  0  0  0  0  0  0  0  0
  -19.2211   17.8297  -17.9137 C   0  0  0  0  0  0  0  0  0  0  0  0
  -19.4585   19.2904  -17.5945 C   0  0  0  0  0  0  0  0  0  0  0  0
  -19.1446   17.6154  -19.4099 C   0  0  0  0  0  0  0  0  0  0  0  0
  -20.1986   18.3569  -20.1593 C   0  0  0  0  0  0  0  0  0  0  0  0
  -17.7942   18.1475  -19.8570 C   0  0  0  0  0  0  0  0  0  0  0  0
  -17.6662   17.9312  -21.3613 C   0  0  0  0  0  0  0  0  0  0  0  0
  -17.6599   16.4576  -21.5959 C   0  0  0  0  0  0  0  0  0  0  0  0
  -17.4378   16.0751  -23.0425 C   0  0  0  0  0  0  0  0  0  0  0  0
  -18.7566   16.3865  -23.7632 C   0  0  0  0  0  0  0  0  0  0  0  0
  -16.4122   16.9960  -23.6125 C   0  0  0  0  0  0  0  0  0  0  0  0
  -15.9175   16.6983  -24.9622 C   0  0  0  0  0  0  0  0  0  0  0  0
  -16.1870   15.3604  -25.5265 C   0  0  0  0  0  0  0  0  0  0  0  0
  -15.6852   15.3689  -26.9808 C   0  0  0  0  0  0  0  0  0  0  0  0
  -15.4067   14.2448  -24.8459 C   0  0  0  0  0  0  0  0  0  0  0  0
  -16.0101   13.0411  -25.2349 O   0  0  0  0  0  0  0  0  0  0  0  0
  -15.5952   14.3954  -23.3733 C   0  0  0  0  0  0  0  0  0  0  0  0
  -17.0844   14.6311  -23.0878 C   0  0  0  0  0  0  0  0  0  0  0  0
  -16.9543   13.2069  -25.5174 H   0  0  0  0  0  0  0  0  0  0  0  0
  1  2  1  0  0  0
  2  3  1  0  0  0
  3  4  1  0  0  0
  4  5  1  0  0  0
  5  6  1  0  0  0
  6  7  1  0  0  0
  7  8  1  0  0  0
  8  9  1  0  0  0
  9 10  1  0  0  0
  9 11  1  0  0  0
 11 12  1  0  0  0
 11 13  1  0  0  0
 13 14  1  0  0  0
 14 15  1  0  0  0
 15 16  1  0  0  0
 16 17  1  0  0  0
 16 18  1  0  0  0
 18 19  1  0  0  0
 19 20  1  0  0  0
 20 21  1  0  0  0
 20 22  1  0  0  0
 22 23  1  0  0  0
 22 24  1  0  0  0
 24 25  1  0  0  0
 25  2  1  0  0  0
 15  4  1  0  0  0
 25 16  1  0  0  0
 11  5  1  0  0  0
 23 26  1  0  0  0
M  END
> <minimizedAffinity>
-9.45882

> <CNNscore>
0.3173268735

> <CNNaffinity>
6.6143083572

> <CNN_VS>
2.0988976955

> <CNNaffinity_variance>
0.1467712671

$$$$
[H]O[C@]1([H])C([H])([H])[C@]2([H])[C@](C([H])([H])[H])(C([H])([H])C([H])([H])[C@@]1([H])C([H])([H])[H])[C@@]1([H])C([H])([H])C([H])([H])[C@]3(C([H])([H])[H])[C@@]([H])(C([H])([H])[H])C([H])([H])C([H])([H])C([H])([H])[C@@]3([H])[C@]1([H])C([H])([H])[C@@]2([H])C([H])([H])[H]


 26 29  0  0  0  0  0  0  0  0999 V2000
  -23.0451   17.1058  -21.1780 C   0  0  0  0  0  0  0  0  0  0  0  0
  -21.9494   17.5811  -20.2121 C   0  0  0  0  0  0  0  0  0  0  0  0
  -22.6351   18.0570  -18.9779 C   0  0  0  0  0  0  0  0  0  0  0  0
  -21.7360   18.8487  -18.0594 C   0  0  0  0  0  0  0  0  0  0  0  0
  -21.7406   18.1833  -16.6994 C   0  0  0  0  0  0  0  0  0  0  0  0
  -23.0704   18.5342  -16.0500 C   0  0  0  0  0  0  0  0  0  0  0  0
  -23.1092   18.2257  -14.5961 C   0  0  0  0  0  0  0  0  0  0  0  0
  -21.9668   17.4371  -14.0774 C   0  0  0  0  0  0  0  0  0  0  0  0
  -20.6247   17.8453  -14.5645 C   0  0  0  0  0  0  0  0  0  0  0  0
  -19.7582   18.4607  -13.4865 C   0  0  0  0  0  0  0  0  0  0  0  0
  -20.6594   18.7300  -15.7919 C   0  0  0  0  0  0  0  0  0  0  0  0
  -20.8300   20.1743  -15.4644 C   0  0  0  0  0  0  0  0  0  0  0  0
  -19.3181   18.5652  -16.4849 C   0  0  0  0  0  0  0  0  0  0  0  0
  -19.3180   19.4266  -17.7434 C   0  0  0  0  0  0  0  0  0  0  0  0
  -20.3585   18.8717  -18.6577 C   0  0  0  0  0  0  0  0  0  0  0  0
  -20.4143   19.5621  -20.0025 C   0  0  0  0  0  0  0  0  0  0  0  0
  -21.0787   20.9217  -19.7456 C   0  0  0  0  0  0  0  0  0  0  0  0
  -19.0155   19.8456  -20.4356 C   0  0  0  0  0  0  0  0  0  0  0  0
  -18.8250   20.3631  -21.7962 C   0  0  0  0  0  0  0  0  0  0  0  0
  -19.9460   20.2498  -22.7508 C   0  0  0  0  0  0  0  0  0  0  0  0
  -19.5268   20.9835  -24.0364 C   0  0  0  0  0  0  0  0  0  0  0  0
  -20.2311   18.8198  -23.1872 C   0  0  0  0  0  0  0  0  0  0  0  0
  -21.4963   18.8312  -23.7900 O   0  0  0  0  0  0  0  0  0  0  0  0
  -20.3190   17.9810  -21.9562 C   0  0  0  0  0  0  0  0  0  0  0  0
  -21.2002   18.7036  -20.9285 C   0  0  0  0  0  0  0  0  0  0  0  0
  -22.0231   19.6162  -23.4658 H   0  0  0  0  0  0  0  0  0  0  0  0
  1  2  1  0  0  0
  2  3  1  0  0  0
  3  4  1  0  0  0
  4  5  1  0  0  0
  5  6  1  0  0  0
  6  7  1  0  0  0
  7  8  1  0  0  0
  8  9  1  0  0  0
  9 10  1  0  0  0
  9 11  1  0  0  0
 11 12  1  0  0  0
 11 13  1  0  0  0
 13 14  1  0  0  0
 14 15  1  0  0  0
 15 16  1  0  0  0
 16 17  1  0  0  0
 16 18  1  0  0  0
 18 19  1  0  0  0
 19 20  1  0  0  0
 20 21  1  0  0  0
 20 22  1  0  0  0
 22 23  1  0  0  0
 22 24  1  0  0  0
 24 25  1  0  0  0
 25  2  1  0  0  0
 15  4  1  0  0  0
 25 16  1  0  0  0
 11  5  1  0  0  0
 23 26  1  0  0  0
M  END
> <minimizedAffinity>
-5.63170

> <CNNscore>
0.3134503365

> <CNNaffinity>
5.4902982712

> <CNN_VS>
1.7209358215

> <CNNaffinity_variance>
0.2351009399

$$$$
[H]O[C@]1([H])C([H])([H])[C@]2([H])[C@](C([H])([H])[H])(C([H])([H])C([H])([H])[C@@]1([H])C([H])([H])[H])[C@@]1([H])C([H])([H])C([H])([H])[C@]3(C([H])([H])[H])[C@@]([H])(C([H])([H])[H])C([H])([H])C([H])([H])C([H])([H])[C@@]3([H])[C@]1([H])C([H])([H])[C@@]2([H])C([H])([H])[H]


 26 29  0  0  0  0  0  0  0  0999 V2000
  -18.8594   12.7858  -18.8620 C   0  0  0  0  0  0  0  0  0  0  0  0
  -18.7687   13.9251  -19.8884 C   0  0  0  0  0  0  0  0  0  0  0  0
  -17.5323   13.6930  -20.6867 C   0  0  0  0  0  0  0  0  0  0  0  0
  -17.1237   14.8837  -21.5198 C   0  0  0  0  0  0  0  0  0  0  0  0
  -17.0360   14.4448  -22.9662 C   0  0  0  0  0  0  0  0  0  0  0  0
  -15.7510   13.6418  -23.0979 C   0  0  0  0  0  0  0  0  0  0  0  0
  -15.3538   13.4040  -24.5108 C   0  0  0  0  0  0  0  0  0  0  0  0
  -16.3624   13.7745  -25.5312 C   0  0  0  0  0  0  0  0  0  0  0  0
  -17.0539   15.0710  -25.3166 C   0  0  0  0  0  0  0  0  0  0  0  0
  -16.6856   16.1228  -26.3412 C   0  0  0  0  0  0  0  0  0  0  0  0
  -16.9104   15.6189  -23.9132 C   0  0  0  0  0  0  0  0  0  0  0  0
  -15.6607   16.4087  -23.7211 C   0  0  0  0  0  0  0  0  0  0  0  0
  -18.0888   16.5500  -23.6872 C   0  0  0  0  0  0  0  0  0  0  0  0
  -17.9945   17.1101  -22.2717 C   0  0  0  0  0  0  0  0  0  0  0  0
  -18.1524   15.9620  -21.3319 C   0  0  0  0  0  0  0  0  0  0  0  0
  -18.1811   16.3703  -19.8756 C   0  0  0  0  0  0  0  0  0  0  0  0
  -16.7327   16.7268  -19.5140 C   0  0  0  0  0  0  0  0  0  0  0  0
  -18.9715   17.6303  -19.7638 C   0  0  0  0  0  0  0  0  0  0  0  0
  -19.2717   18.1176  -18.4119 C   0  0  0  0  0  0  0  0  0  0  0  0
  -19.0881   17.1902  -17.2774 C   0  0  0  0  0  0  0  0  0  0  0  0
  -19.3387   17.9911  -15.9879 C   0  0  0  0  0  0  0  0  0  0  0  0
  -20.1071   16.0600  -17.2447 C   0  0  0  0  0  0  0  0  0  0  0  0
  -19.6085   15.0988  -16.3548 O   0  0  0  0  0  0  0  0  0  0  0  0
  -20.1454   15.4471  -18.6047 C   0  0  0  0  0  0  0  0  0  0  0  0
  -18.7056   15.2240  -19.0863 C   0  0  0  0  0  0  0  0  0  0  0  0
  -18.6173   15.1934  -16.2686 H   0  0  0  0  0  0  0  0  0  0  0  0
  1  2  1  0  0  0
  2  3  1  0  0  0
  3  4  1  0  0  0
  4  5  1  0  0  0
  5  6  1  0  0  0
  6  7  1  0  0  0
  7  8  1  0  0  0
  8  9  1  0  0  0
  9 10  1  0  0  0
  9 11  1  0  0  0
 11 12  1  0  0  0
 11 13  1  0  0  0
 13 14  1  0  0  0
 14 15  1  0  0  0
 15 16  1  0  0  0
 16 17  1  0  0  0
 16 18  1  0  0  0
 18 19  1  0  0  0
 19 20  1  0  0  0
 20 21  1  0  0  0
 20 22  1  0  0  0
 22 23  1  0  0  0
 22 24  1  0  0  0
 24 25  1  0  0  0
 25  2  1  0  0  0
 15  4  1  0  0  0
 25 16  1  0  0  0
 11  5  1  0  0  0
 23 26  1  0  0  0
M  END
> <minimizedAffinity>
-8.78844

> <CNNscore>
0.3107558489

> <CNNaffinity>
6.5359563828

> <CNN_VS>
2.0310866833

> <CNNaffinity_variance>
0.2386301011

$$$$
[H]c1c([H])c([H])c2c(c1[H])c(C([H])([H])[C@@]([H])(C(=O)N([H])[H])N([H])C(=O)[C@@]([H])(N([H])C(=O)[C@@]([H])(N([H])C(=O)C([H])([H])N([H])C(=O)[C@@]1([H])N(C(=O)[C@@]([H])(N([H])[H])C([H])([H])C([H])([H])C([H])([H])N=C(N([H])[H])N([H])[H])C([H])([H])C([H])([H])C1([H])[H])C([H])([H])c1c([H])n([H])c3c([H])c([H])c([H])c([H])c13)C([H])([H])C([H])(C([H])([H])[H])C([H])([H])[H])c([H])n2[H]


 73 77  0  0  0  0  0  0  0  0999 V2000
  -17.2646   15.2685  -23.0356 C   0  0  0  0  0  0  0  0  0  0  0  0
  -17.0184   15.6884  -21.6840 N   0  0  0  0  0  0  0  0  0  0  0  0
  -16.3767   16.8731  -21.2198 C   0  0  0  0  0  0  0  0  0  0  0  0
  -15.9181   17.7215  -22.0218 O   0  0  0  0  0  0  0  0  0  0  0  0
  -17.3589   15.0363  -20.8824 H   0  0  0  0  0  0  0  0  0  0  0  0
  -16.2685   17.0665  -19.7348 C   0  0  0  0  0  0  0  0  0  0  0  0
  -17.4440   16.6114  -19.0411 N   0  0  0  0  0  0  0  0  0  0  0  0
  -18.6307   17.3427  -19.0691 C   0  0  0  0  0  0  0  0  0  0  0  0
  -18.5741   18.4308  -19.7888 O   0  0  0  0  0  0  0  0  0  0  0  0
  -17.3682   15.7134  -18.5313 H   0  0  0  0  0  0  0  0  0  0  0  0
  -19.9125   17.1372  -18.4520 C   0  0  0  0  0  0  0  0  0  0  0  0
  -20.2744   18.4425  -17.6633 C   0  0  0  0  0  0  0  0  0  0  0  0
  -19.5563   18.2107  -16.3464 C   0  0  0  0  0  0  0  0  0  0  0  0
  -19.2711   16.7201  -16.2677 C   0  0  0  0  0  0  0  0  0  0  0  0
  -19.9793   16.1564  -17.4124 N   0  0  0  0  0  0  0  0  0  0  0  0
  -20.6072   14.8873  -17.4979 C   0  0  0  0  0  0  0  0  0  0  0  0
  -21.0512   14.4698  -18.5812 O   0  0  0  0  0  0  0  0  0  0  0  0
  -20.7147   14.0829  -16.2203 C   0  0  0  0  0  0  0  0  0  0  0  0
  -22.1477   13.7134  -16.1842 N   0  0  0  0  0  0  0  0  0  0  0  0
  -22.1774   12.7481  -16.6452 H   0  0  0  0  0  0  0  0  0  0  0  0
  -22.6416   14.3183  -16.8738 H   0  0  0  0  0  0  0  0  0  0  0  0
  -19.8390   12.8830  -16.2838 C   0  0  0  0  0  0  0  0  0  0  0  0
  -20.5854   11.5988  -16.3975 C   0  0  0  0  0  0  0  0  0  0  0  0
  -19.8466   10.3979  -16.8663 C   0  0  0  0  0  0  0  0  0  0  0  0
  -20.0827    9.2873  -15.9175 N   0  0  0  0  0  0  0  0  0  0  0  0
  -19.2022    8.3611  -15.7944 C   0  0  0  0  0  0  0  0  0  0  0  0
  -19.4180    7.2970  -14.8941 N   0  0  0  0  0  0  0  0  0  0  0  0
  -18.0182    8.4176  -16.5662 N   0  0  0  0  0  0  0  0  0  0  0  0
  -18.9910    7.3174  -13.9536 H   0  0  0  0  0  0  0  0  0  0  0  0
  -20.0005    6.4897  -15.1728 H   0  0  0  0  0  0  0  0  0  0  0  0
  -18.0495    8.0896  -17.5496 H   0  0  0  0  0  0  0  0  0  0  0  0
  -17.1492    8.7731  -16.1685 H   0  0  0  0  0  0  0  0  0  0  0  0
  -19.0706   17.0262  -22.6738 N   0  0  0  0  0  0  0  0  0  0  0  0
  -18.4465   16.0738  -23.4943 C   0  0  0  0  0  0  0  0  0  0  0  0
  -18.8896   15.9008  -24.6585 O   0  0  0  0  0  0  0  0  0  0  0  0
  -18.7197   17.1737  -21.6934 H   0  0  0  0  0  0  0  0  0  0  0  0
  -20.1913   17.8849  -23.0223 C   0  0  0  0  0  0  0  0  0  0  0  0
  -19.6413   19.2955  -23.1254 C   0  0  0  0  0  0  0  0  0  0  0  0
  -18.8606   19.5676  -24.0526 O   0  0  0  0  0  0  0  0  0  0  0  0
  -19.9968   20.2609  -22.2036 N   0  0  0  0  0  0  0  0  0  0  0  0
  -20.6539   20.0782  -21.4160 H   0  0  0  0  0  0  0  0  0  0  0  0
  -19.4935   21.6393  -22.2465 C   0  0  0  0  0  0  0  0  0  0  0  0
  -18.9758   22.0659  -20.9487 C   0  0  0  0  0  0  0  0  0  0  0  0
  -18.9140   21.2428  -19.7911 N   0  0  0  0  0  0  0  0  0  0  0  0
  -18.5489   23.2529  -20.8106 O   0  0  0  0  0  0  0  0  0  0  0  0
  -18.7437   21.5666  -18.8360 H   0  0  0  0  0  0  0  0  0  0  0  0
  -19.0581   20.2043  -19.9420 H   0  0  0  0  0  0  0  0  0  0  0  0
  -20.4067   22.5334  -22.9863 C   0  0  0  0  0  0  0  0  0  0  0  0
  -20.1918   22.7253  -24.3996 C   0  0  0  0  0  0  0  0  0  0  0  0
  -19.1968   23.5239  -24.9586 C   0  0  0  0  0  0  0  0  0  0  0  0
  -19.1667   23.4434  -26.2667 N   0  0  0  0  0  0  0  0  0  0  0  0
  -20.1474   22.5839  -26.6339 C   0  0  0  0  0  0  0  0  0  0  0  0
  -20.5059   22.1785  -27.8972 C   0  0  0  0  0  0  0  0  0  0  0  0
  -21.5363   21.3004  -28.0516 C   0  0  0  0  0  0  0  0  0  0  0  0
  -22.1969   20.8387  -26.9243 C   0  0  0  0  0  0  0  0  0  0  0  0
  -21.8286   21.2511  -25.6670 C   0  0  0  0  0  0  0  0  0  0  0  0
  -20.7952   22.1318  -25.4752 C   0  0  0  0  0  0  0  0  0  0  0  0
  -18.5025   23.9480  -26.9242 H   0  0  0  0  0  0  0  0  0  0  0  0
  -21.2907   17.9466  -22.0540 C   0  0  0  0  0  0  0  0  0  0  0  0
  -23.5609   19.0689  -22.0477 C   0  0  0  0  0  0  0  0  0  0  0  0
  -22.7005   17.9281  -22.5065 C   0  0  0  0  0  0  0  0  0  0  0  0
  -22.6260   17.9606  -24.0610 C   0  0  0  0  0  0  0  0  0  0  0  0
  -17.6401   13.7984  -23.0388 C   0  0  0  0  0  0  0  0  0  0  0  0
  -17.8883   13.2343  -21.7224 C   0  0  0  0  0  0  0  0  0  0  0  0
  -18.7969   13.6310  -20.7750 C   0  0  0  0  0  0  0  0  0  0  0  0
  -18.7244   12.8284  -19.6934 N   0  0  0  0  0  0  0  0  0  0  0  0
  -17.7543   11.8953  -19.9410 C   0  0  0  0  0  0  0  0  0  0  0  0
  -17.2666   10.8286  -19.1772 C   0  0  0  0  0  0  0  0  0  0  0  0
  -16.2733   10.0449  -19.6992 C   0  0  0  0  0  0  0  0  0  0  0  0
  -15.7265   10.2603  -20.9546 C   0  0  0  0  0  0  0  0  0  0  0  0
  -16.2169   11.3044  -21.6774 C   0  0  0  0  0  0  0  0  0  0  0  0
  -17.2273   12.1329  -21.1915 C   0  0  0  0  0  0  0  0  0  0  0  0
  -19.2952   12.8990  -18.8226 H   0  0  0  0  0  0  0  0  0  0  0  0
 60 61  1  0  0  0
 61 62  1  0  0  0
 61 59  1  0  0  0
 59 37  1  0  0  0
 37 33  1  0  0  0
 33 34  1  0  0  0
 34 35  2  0  0  0
 34  1  1  0  0  0
  1 63  1  0  0  0
 63 64  1  0  0  0
 64 65  2  0  0  0
 65 66  1  0  0  0
 66 67  1  0  0  0
 67 68  2  0  0  0
 68 69  1  0  0  0
 69 70  2  0  0  0
 70 71  1  0  0  0
 71 72  2  0  0  0
  1  2  1  0  0  0
  2  3  1  0  0  0
  3  4  2  0  0  0
  3  6  1  0  0  0
  6  7  1  0  0  0
  7  8  1  0  0  0
  8  9  2  0  0  0
  8 11  1  0  0  0
 11 12  1  0  0  0
 12 13  1  0  0  0
 13 14  1  0  0  0
 14 15  1  0  0  0
 15 16  1  0  0  0
 16 17  2  0  0  0
 16 18  1  0  0  0
 18 19  1  0  0  0
 18 22  1  0  0  0
 22 23  1  0  0  0
 23 24  1  0  0  0
 24 25  1  0  0  0
 25 26  2  0  0  0
 26 27  1  0  0  0
 26 28  1  0  0  0
 37 38  1  0  0  0
 38 39  2  0  0  0
 38 40  1  0  0  0
 40 42  1  0  0  0
 42 48  1  0  0  0
 48 49  1  0  0  0
 49 50  2  0  0  0
 50 51  1  0  0  0
 51 52  1  0  0  0
 52 53  2  0  0  0
 53 54  1  0  0  0
 54 55  2  0  0  0
 55 56  1  0  0  0
 56 57  2  0  0  0
 42 43  1  0  0  0
 43 44  1  0  0  0
 43 45  2  0  0  0
 72 64  1  0  0  0
 15 11  1  0  0  0
 57 49  1  0  0  0
 72 67  1  0  0  0
 57 52  1  0  0  0
 33 36  1  0  0  0
 66 73  1  0  0  0
  2  5  1  0  0  0
  7 10  1  0  0  0
 19 20  1  0  0  0
 19 21  1  0  0  0
 27 29  1  0  0  0
 27 30  1  0  0  0
 28 31  1  0  0  0
 28 32  1  0  0  0
 40 41  1  0  0  0
 51 58  1  0  0  0
 44 46  1  0  0  0
 44 47  1  0  0  0
M  END
> <minimizedAffinity>
-9.23376

> <CNNscore>
0.2877234519

> <CNNaffinity>
7.3574972153

> <CNN_VS>
2.1169245243

> <CNNaffinity_variance>
1.9224420786

$$$$
[H]c1c([H])c([H])c2c(c1[H])c(C([H])([H])[C@@]([H])(C(=O)N([H])[H])N([H])C(=O)[C@@]([H])(N([H])C(=O)[C@@]([H])(N([H])C(=O)C([H])([H])N([H])C(=O)[C@@]1([H])N(C(=O)[C@@]([H])(N([H])[H])C([H])([H])C([H])([H])C([H])([H])N=C(N([H])[H])N([H])[H])C([H])([H])C([H])([H])C1([H])[H])C([H])([H])c1c([H])n([H])c3c([H])c([H])c([H])c([H])c13)C([H])([H])C([H])(C([H])([H])[H])C([H])([H])[H])c([H])n2[H]


 73 77  0  0  0  0  0  0  0  0999 V2000
  -20.2369   12.6469  -17.6461 C   0  0  0  0  0  0  0  0  0  0  0  0
  -20.8545   13.9409  -17.5571 N   0  0  0  0  0  0  0  0  0  0  0  0
  -21.4681   14.7103  -18.5878 C   0  0  0  0  0  0  0  0  0  0  0  0
  -21.5150   14.2941  -19.7700 O   0  0  0  0  0  0  0  0  0  0  0  0
  -20.8753   14.4248  -16.5828 H   0  0  0  0  0  0  0  0  0  0  0  0
  -22.0547   16.0386  -18.2054 C   0  0  0  0  0  0  0  0  0  0  0  0
  -21.6361   17.0921  -19.0914 N   0  0  0  0  0  0  0  0  0  0  0  0
  -22.5627   17.9345  -19.7043 C   0  0  0  0  0  0  0  0  0  0  0  0
  -23.8043   17.6942  -19.3792 O   0  0  0  0  0  0  0  0  0  0  0  0
  -20.6174   17.1994  -19.2424 H   0  0  0  0  0  0  0  0  0  0  0  0
  -22.4205   19.0199  -20.6358 C   0  0  0  0  0  0  0  0  0  0  0  0
  -23.7134   19.0583  -21.5209 C   0  0  0  0  0  0  0  0  0  0  0  0
  -23.3777   18.0384  -22.5936 C   0  0  0  0  0  0  0  0  0  0  0  0
  -21.8690   17.8592  -22.5606 C   0  0  0  0  0  0  0  0  0  0  0  0
  -21.4039   18.8859  -21.6337 N   0  0  0  0  0  0  0  0  0  0  0  0
  -20.1860   19.6107  -21.6906 C   0  0  0  0  0  0  0  0  0  0  0  0
  -19.8458   20.3560  -20.7558 O   0  0  0  0  0  0  0  0  0  0  0  0
  -19.3381   19.4393  -22.9327 C   0  0  0  0  0  0  0  0  0  0  0  0
  -19.0483   20.8361  -23.3281 N   0  0  0  0  0  0  0  0  0  0  0  0
  -18.1055   21.0450  -22.8669 H   0  0  0  0  0  0  0  0  0  0  0  0
  -19.7071   21.4500  -22.8042 H   0  0  0  0  0  0  0  0  0  0  0  0
  -18.0945   18.6883  -22.6161 C   0  0  0  0  0  0  0  0  0  0  0  0
  -17.5226   17.9541  -23.7793 C   0  0  0  0  0  0  0  0  0  0  0  0
  -16.5558   16.8583  -23.5098 C   0  0  0  0  0  0  0  0  0  0  0  0
  -15.4141   16.9843  -24.4426 N   0  0  0  0  0  0  0  0  0  0  0  0
  -15.2650   16.1215  -25.3817 C   0  0  0  0  0  0  0  0  0  0  0  0
  -14.1792   16.2313  -26.2753 N   0  0  0  0  0  0  0  0  0  0  0  0
  -16.1960   15.0647  -25.5118 N   0  0  0  0  0  0  0  0  0  0  0  0
  -14.3111   16.6688  -27.2018 H   0  0  0  0  0  0  0  0  0  0  0  0
  -13.2478   15.8701  -26.0092 H   0  0  0  0  0  0  0  0  0  0  0  0
  -16.0950   14.2346  -24.8983 H   0  0  0  0  0  0  0  0  0  0  0  0
  -16.9530   15.1134  -26.1931 H   0  0  0  0  0  0  0  0  0  0  0  0
  -20.9057   12.5867  -15.1902 N   0  0  0  0  0  0  0  0  0  0  0  0
  -20.6526   11.9201  -16.3991 C   0  0  0  0  0  0  0  0  0  0  0  0
  -20.7918   10.6708  -16.4371 O   0  0  0  0  0  0  0  0  0  0  0  0
  -20.7817   13.6298  -15.1389 H   0  0  0  0  0  0  0  0  0  0  0  0
  -21.3465   11.9944  -13.9374 C   0  0  0  0  0  0  0  0  0  0  0  0
  -20.2981   10.9677  -13.5502 C   0  0  0  0  0  0  0  0  0  0  0  0
  -19.1256   11.3427  -13.3837 O   0  0  0  0  0  0  0  0  0  0  0  0
  -20.6373    9.6384  -13.3898 N   0  0  0  0  0  0  0  0  0  0  0  0
  -21.6089    9.2824  -13.5118 H   0  0  0  0  0  0  0  0  0  0  0  0
  -19.6680    8.5986  -13.0231 C   0  0  0  0  0  0  0  0  0  0  0  0
  -19.6147    7.5336  -14.0218 C   0  0  0  0  0  0  0  0  0  0  0  0
  -19.5619    6.1447  -13.7228 N   0  0  0  0  0  0  0  0  0  0  0  0
  -19.6073    7.8380  -15.2538 O   0  0  0  0  0  0  0  0  0  0  0  0
  -19.3291    5.3996  -14.3836 H   0  0  0  0  0  0  0  0  0  0  0  0
  -19.7852    5.8679  -12.7250 H   0  0  0  0  0  0  0  0  0  0  0  0
  -19.7625    8.2407  -11.5936 C   0  0  0  0  0  0  0  0  0  0  0  0
  -19.6505    9.2891  -10.6095 C   0  0  0  0  0  0  0  0  0  0  0  0
  -18.4561    9.8676  -10.1861 C   0  0  0  0  0  0  0  0  0  0  0  0
  -18.6493   10.8627   -9.3548 N   0  0  0  0  0  0  0  0  0  0  0  0
  -19.9882   10.9869   -9.1891 C   0  0  0  0  0  0  0  0  0  0  0  0
  -20.6778   11.8871   -8.4126 C   0  0  0  0  0  0  0  0  0  0  0  0
  -22.0392   11.8396   -8.3815 C   0  0  0  0  0  0  0  0  0  0  0  0
  -22.6930   10.8798   -9.1377 C   0  0  0  0  0  0  0  0  0  0  0  0
  -21.9922    9.9861   -9.9100 C   0  0  0  0  0  0  0  0  0  0  0  0
  -20.6222   10.0071   -9.9665 C   0  0  0  0  0  0  0  0  0  0  0  0
  -17.9062   11.4666   -8.8952 H   0  0  0  0  0  0  0  0  0  0  0  0
  -22.6253   11.2776  -13.9698 C   0  0  0  0  0  0  0  0  0  0  0  0
  -24.5950   10.7663  -12.4625 C   0  0  0  0  0  0  0  0  0  0  0  0
  -23.7977   11.7861  -13.2218 C   0  0  0  0  0  0  0  0  0  0  0  0
  -23.2151   12.8122  -12.2067 C   0  0  0  0  0  0  0  0  0  0  0  0
  -18.7290   12.8140  -17.6383 C   0  0  0  0  0  0  0  0  0  0  0  0
  -18.0365   12.1103  -18.7051 C   0  0  0  0  0  0  0  0  0  0  0  0
  -17.4888   10.8532  -18.6910 C   0  0  0  0  0  0  0  0  0  0  0  0
  -16.9541   10.5631  -19.8948 N   0  0  0  0  0  0  0  0  0  0  0  0
  -17.1574   11.6477  -20.7044 C   0  0  0  0  0  0  0  0  0  0  0  0
  -16.8181   11.8940  -22.0399 C   0  0  0  0  0  0  0  0  0  0  0  0
  -17.1637   13.0958  -22.5962 C   0  0  0  0  0  0  0  0  0  0  0  0
  -17.8368   14.0838  -21.8945 C   0  0  0  0  0  0  0  0  0  0  0  0
  -18.1546   13.8207  -20.5973 C   0  0  0  0  0  0  0  0  0  0  0  0
  -17.8251   12.6132  -19.9834 C   0  0  0  0  0  0  0  0  0  0  0  0
  -16.4701    9.6799  -20.1679 H   0  0  0  0  0  0  0  0  0  0  0  0
 60 61  1  0  0  0
 61 62  1  0  0  0
 61 59  1  0  0  0
 59 37  1  0  0  0
 37 33  1  0  0  0
 33 34  1  0  0  0
 34 35  2  0  0  0
 34  1  1  0  0  0
  1 63  1  0  0  0
 63 64  1  0  0  0
 64 65  2  0  0  0
 65 66  1  0  0  0
 66 67  1  0  0  0
 67 68  2  0  0  0
 68 69  1  0  0  0
 69 70  2  0  0  0
 70 71  1  0  0  0
 71 72  2  0  0  0
  1  2  1  0  0  0
  2  3  1  0  0  0
  3  4  2  0  0  0
  3  6  1  0  0  0
  6  7  1  0  0  0
  7  8  1  0  0  0
  8  9  2  0  0  0
  8 11  1  0  0  0
 11 12  1  0  0  0
 12 13  1  0  0  0
 13 14  1  0  0  0
 14 15  1  0  0  0
 15 16  1  0  0  0
 16 17  2  0  0  0
 16 18  1  0  0  0
 18 19  1  0  0  0
 18 22  1  0  0  0
 22 23  1  0  0  0
 23 24  1  0  0  0
 24 25  1  0  0  0
 25 26  2  0  0  0
 26 27  1  0  0  0
 26 28  1  0  0  0
 37 38  1  0  0  0
 38 39  2  0  0  0
 38 40  1  0  0  0
 40 42  1  0  0  0
 42 48  1  0  0  0
 48 49  1  0  0  0
 49 50  2  0  0  0
 50 51  1  0  0  0
 51 52  1  0  0  0
 52 53  2  0  0  0
 53 54  1  0  0  0
 54 55  2  0  0  0
 55 56  1  0  0  0
 56 57  2  0  0  0
 42 43  1  0  0  0
 43 44  1  0  0  0
 43 45  2  0  0  0
 72 64  1  0  0  0
 15 11  1  0  0  0
 57 49  1  0  0  0
 72 67  1  0  0  0
 57 52  1  0  0  0
 33 36  1  0  0  0
 66 73  1  0  0  0
  2  5  1  0  0  0
  7 10  1  0  0  0
 19 20  1  0  0  0
 19 21  1  0  0  0
 27 29  1  0  0  0
 27 30  1  0  0  0
 28 31  1  0  0  0
 28 32  1  0  0  0
 40 41  1  0  0  0
 51 58  1  0  0  0
 44 46  1  0  0  0
 44 47  1  0  0  0
M  END
> <minimizedAffinity>
-8.05826

> <CNNscore>
0.1900025308

> <CNNaffinity>
7.2557616234

> <CNN_VS>
1.3786131144

> <CNNaffinity_variance>
0.3883338571

$$$$
[H]c1c([H])c([H])c2c(c1[H])c(C([H])([H])[C@@]([H])(C(=O)N([H])[H])N([H])C(=O)[C@@]([H])(N([H])C(=O)[C@@]([H])(N([H])C(=O)C([H])([H])N([H])C(=O)[C@@]1([H])N(C(=O)[C@@]([H])(N([H])[H])C([H])([H])C([H])([H])C([H])([H])N=C(N([H])[H])N([H])[H])C([H])([H])C([H])([H])C1([H])[H])C([H])([H])c1c([H])n([H])c3c([H])c([H])c([H])c([H])c13)C([H])([H])C([H])(C([H])([H])[H])C([H])([H])[H])c([H])n2[H]


 73 77  0  0  0  0  0  0  0  0999 V2000
  -20.5849   12.7013  -17.0613 C   0  0  0  0  0  0  0  0  0  0  0  0
  -21.0560   13.6451  -16.0860 N   0  0  0  0  0  0  0  0  0  0  0  0
  -21.5129   14.9804  -16.2835 C   0  0  0  0  0  0  0  0  0  0  0  0
  -21.5329   15.4990  -17.4253 O   0  0  0  0  0  0  0  0  0  0  0  0
  -21.0826   13.3262  -15.0461 H   0  0  0  0  0  0  0  0  0  0  0  0
  -21.9677   15.7435  -15.0730 C   0  0  0  0  0  0  0  0  0  0  0  0
  -22.3029   14.8736  -13.9771 N   0  0  0  0  0  0  0  0  0  0  0  0
  -23.6240   14.5129  -13.7159 C   0  0  0  0  0  0  0  0  0  0  0  0
  -24.4919   15.0067  -14.5574 O   0  0  0  0  0  0  0  0  0  0  0  0
  -21.5172   14.5222  -13.4014 H   0  0  0  0  0  0  0  0  0  0  0  0
  -24.2250   13.7036  -12.6914 C   0  0  0  0  0  0  0  0  0  0  0  0
  -25.6295   14.3176  -12.3642 C   0  0  0  0  0  0  0  0  0  0  0  0
  -25.2637   15.3937  -11.3583 C   0  0  0  0  0  0  0  0  0  0  0  0
  -23.8808   15.0423  -10.8351 C   0  0  0  0  0  0  0  0  0  0  0  0
  -23.6041   13.7266  -11.4025 N   0  0  0  0  0  0  0  0  0  0  0  0
  -22.8621   12.6719  -10.8118 C   0  0  0  0  0  0  0  0  0  0  0  0
  -22.5778   11.6524  -11.4636 O   0  0  0  0  0  0  0  0  0  0  0  0
  -22.4472   12.8449   -9.3664 C   0  0  0  0  0  0  0  0  0  0  0  0
  -23.0643   11.6732   -8.7049 N   0  0  0  0  0  0  0  0  0  0  0  0
  -22.2880   10.9365   -8.7075 H   0  0  0  0  0  0  0  0  0  0  0  0
  -23.7658   11.2775   -9.3657 H   0  0  0  0  0  0  0  0  0  0  0  0
  -20.9656   12.8288   -9.2433 C   0  0  0  0  0  0  0  0  0  0  0  0
  -20.4059   11.4946   -8.8886 C   0  0  0  0  0  0  0  0  0  0  0  0
  -19.4261   10.8759   -9.8188 C   0  0  0  0  0  0  0  0  0  0  0  0
  -18.1983   10.5349   -9.0667 N   0  0  0  0  0  0  0  0  0  0  0  0
  -17.4306    9.6001   -9.4972 C   0  0  0  0  0  0  0  0  0  0  0  0
  -16.2587    9.2660   -8.7871 N   0  0  0  0  0  0  0  0  0  0  0  0
  -17.7692    8.9118  -10.6855 N   0  0  0  0  0  0  0  0  0  0  0  0
  -15.3452    9.6467   -9.0835 H   0  0  0  0  0  0  0  0  0  0  0  0
  -16.3076    8.6348   -7.9698 H   0  0  0  0  0  0  0  0  0  0  0  0
  -18.4691    8.1480  -10.6356 H   0  0  0  0  0  0  0  0  0  0  0  0
  -17.3369    9.1579  -11.5756 H   0  0  0  0  0  0  0  0  0  0  0  0
  -21.9459   10.8431  -15.9764 N   0  0  0  0  0  0  0  0  0  0  0  0
  -20.7123   11.3551  -16.4074 C   0  0  0  0  0  0  0  0  0  0  0  0
  -19.6814   10.6525  -16.2486 O   0  0  0  0  0  0  0  0  0  0  0  0
  -22.8153   11.4237  -16.0909 H   0  0  0  0  0  0  0  0  0  0  0  0
  -22.1929    9.5456  -15.3681 C   0  0  0  0  0  0  0  0  0  0  0  0
  -23.6764    9.2676  -15.5262 C   0  0  0  0  0  0  0  0  0  0  0  0
  -24.0332    8.1932  -16.0377 O   0  0  0  0  0  0  0  0  0  0  0  0
  -24.6157   10.1927  -15.1141 N   0  0  0  0  0  0  0  0  0  0  0  0
  -24.3609   11.1018  -14.6735 H   0  0  0  0  0  0  0  0  0  0  0  0
  -26.0629    9.9845  -15.2464 C   0  0  0  0  0  0  0  0  0  0  0  0
  -26.7389   11.1845  -15.7336 C   0  0  0  0  0  0  0  0  0  0  0  0
  -27.5800   11.2318  -16.8788 N   0  0  0  0  0  0  0  0  0  0  0  0
  -26.5788   12.2811  -15.1153 O   0  0  0  0  0  0  0  0  0  0  0  0
  -27.9019   12.0811  -17.3492 H   0  0  0  0  0  0  0  0  0  0  0  0
  -27.8956   10.3001  -17.2715 H   0  0  0  0  0  0  0  0  0  0  0  0
  -26.6217    9.2654  -14.0839 C   0  0  0  0  0  0  0  0  0  0  0  0
  -26.3015    9.7381  -12.7594 C   0  0  0  0  0  0  0  0  0  0  0  0
  -25.1700    9.3784  -12.0310 C   0  0  0  0  0  0  0  0  0  0  0  0
  -25.0782   10.0279  -10.8960 N   0  0  0  0  0  0  0  0  0  0  0  0
  -26.1522   10.8504  -10.8217 C   0  0  0  0  0  0  0  0  0  0  0  0
  -26.4943   11.7283   -9.8212 C   0  0  0  0  0  0  0  0  0  0  0  0
  -27.6321   12.4686   -9.9400 C   0  0  0  0  0  0  0  0  0  0  0  0
  -28.4159   12.3142  -11.0723 C   0  0  0  0  0  0  0  0  0  0  0  0
  -28.0628   11.4337  -12.0655 C   0  0  0  0  0  0  0  0  0  0  0  0
  -26.9237   10.6751  -11.9795 C   0  0  0  0  0  0  0  0  0  0  0  0
  -24.3110    9.9380  -10.1670 H   0  0  0  0  0  0  0  0  0  0  0  0
  -21.9085    9.4334  -13.9340 C   0  0  0  0  0  0  0  0  0  0  0  0
  -21.3572    7.5424  -12.3423 C   0  0  0  0  0  0  0  0  0  0  0  0
  -20.9042    8.4667  -13.4344 C   0  0  0  0  0  0  0  0  0  0  0  0
  -20.5154    7.6109  -14.6751 C   0  0  0  0  0  0  0  0  0  0  0  0
  -19.1198   12.9721  -17.3479 C   0  0  0  0  0  0  0  0  0  0  0  0
  -18.7744   12.9999  -18.7595 C   0  0  0  0  0  0  0  0  0  0  0  0
  -19.2200   13.8529  -19.7364 C   0  0  0  0  0  0  0  0  0  0  0  0
  -18.6392   13.5554  -20.9168 N   0  0  0  0  0  0  0  0  0  0  0  0
  -17.8027   12.4932  -20.7046 C   0  0  0  0  0  0  0  0  0  0  0  0
  -16.9579   11.7821  -21.5648 C   0  0  0  0  0  0  0  0  0  0  0  0
  -16.2209   10.7467  -21.0566 C   0  0  0  0  0  0  0  0  0  0  0  0
  -16.2734   10.3689  -19.7240 C   0  0  0  0  0  0  0  0  0  0  0  0
  -17.1032   11.0751  -18.9080 C   0  0  0  0  0  0  0  0  0  0  0  0
  -17.8753   12.1375  -19.3756 C   0  0  0  0  0  0  0  0  0  0  0  0
  -18.7940   14.0374  -21.8294 H   0  0  0  0  0  0  0  0  0  0  0  0
 60 61  1  0  0  0
 61 62  1  0  0  0
 61 59  1  0  0  0
 59 37  1  0  0  0
 37 33  1  0  0  0
 33 34  1  0  0  0
 34 35  2  0  0  0
 34  1  1  0  0  0
  1 63  1  0  0  0
 63 64  1  0  0  0
 64 65  2  0  0  0
 65 66  1  0  0  0
 66 67  1  0  0  0
 67 68  2  0  0  0
 68 69  1  0  0  0
 69 70  2  0  0  0
 70 71  1  0  0  0
 71 72  2  0  0  0
  1  2  1  0  0  0
  2  3  1  0  0  0
  3  4  2  0  0  0
  3  6  1  0  0  0
  6  7  1  0  0  0
  7  8  1  0  0  0
  8  9  2  0  0  0
  8 11  1  0  0  0
 11 12  1  0  0  0
 12 13  1  0  0  0
 13 14  1  0  0  0
 14 15  1  0  0  0
 15 16  1  0  0  0
 16 17  2  0  0  0
 16 18  1  0  0  0
 18 19  1  0  0  0
 18 22  1  0  0  0
 22 23  1  0  0  0
 23 24  1  0  0  0
 24 25  1  0  0  0
 25 26  2  0  0  0
 26 27  1  0  0  0
 26 28  1  0  0  0
 37 38  1  0  0  0
 38 39  2  0  0  0
 38 40  1  0  0  0
 40 42  1  0  0  0
 42 48  1  0  0  0
 48 49  1  0  0  0
 49 50  2  0  0  0
 50 51  1  0  0  0
 51 52  1  0  0  0
 52 53  2  0  0  0
 53 54  1  0  0  0
 54 55  2  0  0  0
 55 56  1  0  0  0
 56 57  2  0  0  0
 42 43  1  0  0  0
 43 44  1  0  0  0
 43 45  2  0  0  0
 72 64  1  0  0  0
 15 11  1  0  0  0
 57 49  1  0  0  0
 72 67  1  0  0  0
 57 52  1  0  0  0
 33 36  1  0  0  0
 66 73  1  0  0  0
  2  5  1  0  0  0
  7 10  1  0  0  0
 19 20  1  0  0  0
 19 21  1  0  0  0
 27 29  1  0  0  0
 27 30  1  0  0  0
 28 31  1  0  0  0
 28 32  1  0  0  0
 40 41  1  0  0  0
 51 58  1  0  0  0
 44 46  1  0  0  0
 44 47  1  0  0  0
M  END
> <minimizedAffinity>
-6.85679

> <CNNscore>
0.1841325611

> <CNNaffinity>
6.8946676254

> <CNN_VS>
1.2695327997

> <CNNaffinity_variance>
0.8399030566

$$$$
[H]c1c([H])c([H])c2c(c1[H])c(C([H])([H])[C@@]([H])(C(=O)N([H])[H])N([H])C(=O)[C@@]([H])(N([H])C(=O)[C@@]([H])(N([H])C(=O)C([H])([H])N([H])C(=O)[C@@]1([H])N(C(=O)[C@@]([H])(N([H])[H])C([H])([H])C([H])([H])C([H])([H])N=C(N([H])[H])N([H])[H])C([H])([H])C([H])([H])C1([H])[H])C([H])([H])c1c([H])n([H])c3c([H])c([H])c([H])c([H])c13)C([H])([H])C([H])(C([H])([H])[H])C([H])([H])[H])c([H])n2[H]


 73 77  0  0  0  0  0  0  0  0999 V2000
  -17.5807   15.7520  -22.0886 C   0  0  0  0  0  0  0  0  0  0  0  0
  -17.6436   17.0785  -21.5407 N   0  0  0  0  0  0  0  0  0  0  0  0
  -18.0800   18.2828  -22.1651 C   0  0  0  0  0  0  0  0  0  0  0  0
  -18.4692   18.2934  -23.3574 O   0  0  0  0  0  0  0  0  0  0  0  0
  -17.3242   17.2149  -20.5096 H   0  0  0  0  0  0  0  0  0  0  0  0
  -18.0546   19.5387  -21.3426 C   0  0  0  0  0  0  0  0  0  0  0  0
  -19.3728   20.0745  -21.1291 N   0  0  0  0  0  0  0  0  0  0  0  0
  -19.8624   20.3042  -19.8441 C   0  0  0  0  0  0  0  0  0  0  0  0
  -19.0186   20.0193  -18.8890 O   0  0  0  0  0  0  0  0  0  0  0  0
  -19.9328   20.2894  -21.9730 H   0  0  0  0  0  0  0  0  0  0  0  0
  -21.1248   20.7907  -19.3587 C   0  0  0  0  0  0  0  0  0  0  0  0
  -21.5518   19.8833  -18.1542 C   0  0  0  0  0  0  0  0  0  0  0  0
  -22.2250   18.7261  -18.8693 C   0  0  0  0  0  0  0  0  0  0  0  0
  -22.5629   19.2206  -20.2659 C   0  0  0  0  0  0  0  0  0  0  0  0
  -22.2510   20.6457  -20.2293 N   0  0  0  0  0  0  0  0  0  0  0  0
  -22.9156   21.6916  -20.9195 C   0  0  0  0  0  0  0  0  0  0  0  0
  -22.4579   22.8472  -20.9149 O   0  0  0  0  0  0  0  0  0  0  0  0
  -24.1959   21.3359  -21.6443 C   0  0  0  0  0  0  0  0  0  0  0  0
  -25.2155   22.1250  -20.9168 N   0  0  0  0  0  0  0  0  0  0  0  0
  -25.2951   23.0293  -21.4835 H   0  0  0  0  0  0  0  0  0  0  0  0
  -24.7825   22.4441  -20.0246 H   0  0  0  0  0  0  0  0  0  0  0  0
  -24.1127   21.7311  -23.0752 C   0  0  0  0  0  0  0  0  0  0  0  0
  -23.3483   20.7721  -23.9208 C   0  0  0  0  0  0  0  0  0  0  0  0
  -24.0011   19.4897  -24.2912 C   0  0  0  0  0  0  0  0  0  0  0  0
  -24.0396   19.3781  -25.7661 N   0  0  0  0  0  0  0  0  0  0  0  0
  -23.7014   18.2738  -26.3271 C   0  0  0  0  0  0  0  0  0  0  0  0
  -23.7329   18.1573  -27.7324 N   0  0  0  0  0  0  0  0  0  0  0  0
  -23.2993   17.1796  -25.5262 N   0  0  0  0  0  0  0  0  0  0  0  0
  -24.5430   17.7181  -28.1993 H   0  0  0  0  0  0  0  0  0  0  0  0
  -22.9434   18.5064  -28.3012 H   0  0  0  0  0  0  0  0  0  0  0  0
  -22.3258   17.1558  -25.1691 H   0  0  0  0  0  0  0  0  0  0  0  0
  -23.9496   16.4271  -25.3014 H   0  0  0  0  0  0  0  0  0  0  0  0
  -18.2178   13.4908  -21.1071 N   0  0  0  0  0  0  0  0  0  0  0  0
  -17.8364   14.8299  -20.9309 C   0  0  0  0  0  0  0  0  0  0  0  0
  -17.6938   15.2650  -19.7596 O   0  0  0  0  0  0  0  0  0  0  0  0
  -18.3532   13.1153  -22.0801 H   0  0  0  0  0  0  0  0  0  0  0  0
  -18.4548   12.5020  -20.0675 C   0  0  0  0  0  0  0  0  0  0  0  0
  -19.4622   13.1119  -19.1103 C   0  0  0  0  0  0  0  0  0  0  0  0
  -20.5874   13.4171  -19.5394 O   0  0  0  0  0  0  0  0  0  0  0  0
  -19.1354   13.3297  -17.7860 N   0  0  0  0  0  0  0  0  0  0  0  0
  -18.2071   13.0818  -17.3829 H   0  0  0  0  0  0  0  0  0  0  0  0
  -20.0632   13.9217  -16.8145 C   0  0  0  0  0  0  0  0  0  0  0  0
  -21.0259   12.9403  -16.3199 C   0  0  0  0  0  0  0  0  0  0  0  0
  -22.2767   13.2613  -15.7252 N   0  0  0  0  0  0  0  0  0  0  0  0
  -20.7525   11.7042  -16.4074 O   0  0  0  0  0  0  0  0  0  0  0  0
  -22.8722   12.6160  -15.2007 H   0  0  0  0  0  0  0  0  0  0  0  0
  -22.6125   14.2592  -15.8415 H   0  0  0  0  0  0  0  0  0  0  0  0
  -20.5468   15.2457  -17.2547 C   0  0  0  0  0  0  0  0  0  0  0  0
  -20.0330   16.4227  -16.5984 C   0  0  0  0  0  0  0  0  0  0  0  0
  -18.9205   17.1513  -17.0129 C   0  0  0  0  0  0  0  0  0  0  0  0
  -18.7314   18.2295  -16.2916 N   0  0  0  0  0  0  0  0  0  0  0  0
  -19.7154   18.2618  -15.3609 C   0  0  0  0  0  0  0  0  0  0  0  0
  -19.9389   19.1970  -14.3790 C   0  0  0  0  0  0  0  0  0  0  0  0
  -20.9948   19.0398  -13.5322 C   0  0  0  0  0  0  0  0  0  0  0  0
  -21.8176   17.9354  -13.6862 C   0  0  0  0  0  0  0  0  0  0  0  0
  -21.5838   17.0080  -14.6720 C   0  0  0  0  0  0  0  0  0  0  0  0
  -20.5321   17.1364  -15.5425 C   0  0  0  0  0  0  0  0  0  0  0  0
  -17.9597   18.9500  -16.4072 H   0  0  0  0  0  0  0  0  0  0  0  0
  -17.2965   12.1232  -19.2521 C   0  0  0  0  0  0  0  0  0  0  0  0
  -18.0344    9.9031  -18.2826 C   0  0  0  0  0  0  0  0  0  0  0  0
  -16.9823   10.6985  -18.9984 C   0  0  0  0  0  0  0  0  0  0  0  0
  -16.7669   10.0753  -20.4084 C   0  0  0  0  0  0  0  0  0  0  0  0
  -16.1819   15.4990  -22.6191 C   0  0  0  0  0  0  0  0  0  0  0  0
  -16.0470   15.6363  -24.0598 C   0  0  0  0  0  0  0  0  0  0  0  0
  -15.4541   16.6450  -24.7750 C   0  0  0  0  0  0  0  0  0  0  0  0
  -15.5223   16.3832  -26.0964 N   0  0  0  0  0  0  0  0  0  0  0  0
  -16.1691   15.1860  -26.2430 C   0  0  0  0  0  0  0  0  0  0  0  0
  -16.5088   14.4399  -27.3776 C   0  0  0  0  0  0  0  0  0  0  0  0
  -17.1643   13.2500  -27.2111 C   0  0  0  0  0  0  0  0  0  0  0  0
  -17.5082   12.7483  -25.9655 C   0  0  0  0  0  0  0  0  0  0  0  0
  -17.1678   13.4929  -24.8780 C   0  0  0  0  0  0  0  0  0  0  0  0
  -16.5004   14.7114  -24.9929 C   0  0  0  0  0  0  0  0  0  0  0  0
  -15.1560   16.9779  -26.8717 H   0  0  0  0  0  0  0  0  0  0  0  0
 60 61  1  0  0  0
 61 62  1  0  0  0
 61 59  1  0  0  0
 59 37  1  0  0  0
 37 33  1  0  0  0
 33 34  1  0  0  0
 34 35  2  0  0  0
 34  1  1  0  0  0
  1 63  1  0  0  0
 63 64  1  0  0  0
 64 65  2  0  0  0
 65 66  1  0  0  0
 66 67  1  0  0  0
 67 68  2  0  0  0
 68 69  1  0  0  0
 69 70  2  0  0  0
 70 71  1  0  0  0
 71 72  2  0  0  0
  1  2  1  0  0  0
  2  3  1  0  0  0
  3  4  2  0  0  0
  3  6  1  0  0  0
  6  7  1  0  0  0
  7  8  1  0  0  0
  8  9  2  0  0  0
  8 11  1  0  0  0
 11 12  1  0  0  0
 12 13  1  0  0  0
 13 14  1  0  0  0
 14 15  1  0  0  0
 15 16  1  0  0  0
 16 17  2  0  0  0
 16 18  1  0  0  0
 18 19  1  0  0  0
 18 22  1  0  0  0
 22 23  1  0  0  0
 23 24  1  0  0  0
 24 25  1  0  0  0
 25 26  2  0  0  0
 26 27  1  0  0  0
 26 28  1  0  0  0
 37 38  1  0  0  0
 38 39  2  0  0  0
 38 40  1  0  0  0
 40 42  1  0  0  0
 42 48  1  0  0  0
 48 49  1  0  0  0
 49 50  2  0  0  0
 50 51  1  0  0  0
 51 52  1  0  0  0
 52 53  2  0  0  0
 53 54  1  0  0  0
 54 55  2  0  0  0
 55 56  1  0  0  0
 56 57  2  0  0  0
 42 43  1  0  0  0
 43 44  1  0  0  0
 43 45  2  0  0  0
 72 64  1  0  0  0
 15 11  1  0  0  0
 57 49  1  0  0  0
 72 67  1  0  0  0
 57 52  1  0  0  0
 33 36  1  0  0  0
 66 73  1  0  0  0
  2  5  1  0  0  0
  7 10  1  0  0  0
 19 20  1  0  0  0
 19 21  1  0  0  0
 27 29  1  0  0  0
 27 30  1  0  0  0
 28 31  1  0  0  0
 28 32  1  0  0  0
 40 41  1  0  0  0
 51 58  1  0  0  0
 44 46  1  0  0  0
 44 47  1  0  0  0
M  END
> <minimizedAffinity>
-9.21792

> <CNNscore>
0.1659055352

> <CNNaffinity>
7.3403143883

> <CNN_VS>
1.2177988291

> <CNNaffinity_variance>
1.6761081219

$$$$
[H]c1c([H])c([H])c2c(c1[H])c(C([H])([H])[C@@]([H])(C(=O)N([H])[H])N([H])C(=O)[C@@]([H])(N([H])C(=O)[C@@]([H])(N([H])C(=O)C([H])([H])N([H])C(=O)[C@@]1([H])N(C(=O)[C@@]([H])(N([H])[H])C([H])([H])C([H])([H])C([H])([H])N=C(N([H])[H])N([H])[H])C([H])([H])C([H])([H])C1([H])[H])C([H])([H])c1c([H])n([H])c3c([H])c([H])c([H])c([H])c13)C([H])([H])C([H])(C([H])([H])[H])C([H])([H])[H])c([H])n2[H]


 73 77  0  0  0  0  0  0  0  0999 V2000
  -20.3382   15.5121  -16.8345 C   0  0  0  0  0  0  0  0  0  0  0  0
  -20.8143   14.4632  -15.9761 N   0  0  0  0  0  0  0  0  0  0  0  0
  -22.0911   14.3252  -15.3583 C   0  0  0  0  0  0  0  0  0  0  0  0
  -22.9855   15.1909  -15.5129 O   0  0  0  0  0  0  0  0  0  0  0  0
  -20.1319   13.6465  -15.7500 H   0  0  0  0  0  0  0  0  0  0  0  0
  -22.3246   13.1057  -14.5142 C   0  0  0  0  0  0  0  0  0  0  0  0
  -21.4327   12.0298  -14.8563 N   0  0  0  0  0  0  0  0  0  0  0  0
  -20.7231   11.3371  -13.8763 C   0  0  0  0  0  0  0  0  0  0  0  0
  -20.9658   11.7340  -12.6561 O   0  0  0  0  0  0  0  0  0  0  0  0
  -21.3523   11.7900  -15.8604 H   0  0  0  0  0  0  0  0  0  0  0  0
  -19.7646   10.2682  -13.9446 C   0  0  0  0  0  0  0  0  0  0  0  0
  -19.7558    9.7319  -15.4174 C   0  0  0  0  0  0  0  0  0  0  0  0
  -20.9123    8.7495  -15.3898 C   0  0  0  0  0  0  0  0  0  0  0  0
  -21.1733    8.4320  -13.9268 C   0  0  0  0  0  0  0  0  0  0  0  0
  -20.0734    9.0760  -13.2162 N   0  0  0  0  0  0  0  0  0  0  0  0
  -19.4318    8.6281  -12.0330 C   0  0  0  0  0  0  0  0  0  0  0  0
  -18.6029    9.3467  -11.4487 O   0  0  0  0  0  0  0  0  0  0  0  0
  -19.7966    7.2478  -11.5302 C   0  0  0  0  0  0  0  0  0  0  0  0
  -18.9639    6.3604  -12.3732 N   0  0  0  0  0  0  0  0  0  0  0  0
  -18.0816    6.2019  -11.7886 H   0  0  0  0  0  0  0  0  0  0  0  0
  -18.6163    6.9293  -13.1737 H   0  0  0  0  0  0  0  0  0  0  0  0
  -19.4597    7.1116  -10.0885 C   0  0  0  0  0  0  0  0  0  0  0  0
  -18.5962    5.9374   -9.7808 C   0  0  0  0  0  0  0  0  0  0  0  0
  -17.2001    6.1905   -9.3395 C   0  0  0  0  0  0  0  0  0  0  0  0
  -16.7616    7.5039   -9.8611 N   0  0  0  0  0  0  0  0  0  0  0  0
  -16.4096    8.4262   -9.0401 C   0  0  0  0  0  0  0  0  0  0  0  0
  -15.9915    9.6823   -9.5266 N   0  0  0  0  0  0  0  0  0  0  0  0
  -16.4442    8.1718   -7.6492 N   0  0  0  0  0  0  0  0  0  0  0  0
  -14.9848    9.8944   -9.6203 H   0  0  0  0  0  0  0  0  0  0  0  0
  -16.6903   10.3983   -9.7870 H   0  0  0  0  0  0  0  0  0  0  0  0
  -17.3519    8.2446   -7.1528 H   0  0  0  0  0  0  0  0  0  0  0  0
  -15.5967    7.9214   -7.1405 H   0  0  0  0  0  0  0  0  0  0  0  0
  -18.9917   14.9463  -18.9199 N   0  0  0  0  0  0  0  0  0  0  0  0
  -19.1295   14.9458  -17.5232 C   0  0  0  0  0  0  0  0  0  0  0  0
  -18.1994   14.4633  -16.8277 O   0  0  0  0  0  0  0  0  0  0  0  0
  -19.7661   15.3349  -19.5160 H   0  0  0  0  0  0  0  0  0  0  0  0
  -17.8570   14.4619  -19.6896 C   0  0  0  0  0  0  0  0  0  0  0  0
  -17.4352   15.5983  -20.6026 C   0  0  0  0  0  0  0  0  0  0  0  0
  -16.3225   15.5433  -21.1524 O   0  0  0  0  0  0  0  0  0  0  0  0
  -18.2691   16.6784  -20.8169 N   0  0  0  0  0  0  0  0  0  0  0  0
  -19.2126   16.7612  -20.3827 H   0  0  0  0  0  0  0  0  0  0  0  0
  -17.9149   17.8100  -21.6825 C   0  0  0  0  0  0  0  0  0  0  0  0
  -18.0742   19.0880  -20.9929 C   0  0  0  0  0  0  0  0  0  0  0  0
  -17.7746   19.3110  -19.6211 N   0  0  0  0  0  0  0  0  0  0  0  0
  -18.5157   20.0892  -21.6357 O   0  0  0  0  0  0  0  0  0  0  0  0
  -18.0569   20.1269  -19.0727 H   0  0  0  0  0  0  0  0  0  0  0  0
  -17.2086   18.5602  -19.1335 H   0  0  0  0  0  0  0  0  0  0  0  0
  -18.4665   17.6527  -23.0432 C   0  0  0  0  0  0  0  0  0  0  0  0
  -17.6330   17.0659  -24.0636 C   0  0  0  0  0  0  0  0  0  0  0  0
  -16.5527   17.6957  -24.6773 C   0  0  0  0  0  0  0  0  0  0  0  0
  -15.9114   16.9012  -25.4995 N   0  0  0  0  0  0  0  0  0  0  0  0
  -16.5435   15.7033  -25.4673 C   0  0  0  0  0  0  0  0  0  0  0  0
  -16.2423   14.5542  -26.1585 C   0  0  0  0  0  0  0  0  0  0  0  0
  -17.0159   13.4460  -25.9848 C   0  0  0  0  0  0  0  0  0  0  0  0
  -18.0900   13.5097  -25.1115 C   0  0  0  0  0  0  0  0  0  0  0  0
  -18.3802   14.6641  -24.4263 C   0  0  0  0  0  0  0  0  0  0  0  0
  -17.6215   15.7966  -24.5754 C   0  0  0  0  0  0  0  0  0  0  0  0
  -15.0559   17.1384  -26.0824 H   0  0  0  0  0  0  0  0  0  0  0  0
  -18.1055   13.3099  -20.5622 C   0  0  0  0  0  0  0  0  0  0  0  0
  -17.4653   11.0635  -19.5841 C   0  0  0  0  0  0  0  0  0  0  0  0
  -17.1792   12.1547  -20.5737 C   0  0  0  0  0  0  0  0  0  0  0  0
  -17.2915   11.5614  -22.0083 C   0  0  0  0  0  0  0  0  0  0  0  0
  -19.9113   16.6944  -15.9850 C   0  0  0  0  0  0  0  0  0  0  0  0
  -20.3218   17.9899  -16.5008 C   0  0  0  0  0  0  0  0  0  0  0  0
  -20.6155   18.3468  -17.7919 C   0  0  0  0  0  0  0  0  0  0  0  0
  -20.9769   19.6451  -17.8469 N   0  0  0  0  0  0  0  0  0  0  0  0
  -20.9179   20.1402  -16.5723 C   0  0  0  0  0  0  0  0  0  0  0  0
  -21.1876   21.4103  -16.0494 C   0  0  0  0  0  0  0  0  0  0  0  0
  -21.0427   21.6126  -14.7036 C   0  0  0  0  0  0  0  0  0  0  0  0
  -20.6395   20.6132  -13.8316 C   0  0  0  0  0  0  0  0  0  0  0  0
  -20.3823   19.3873  -14.3646 C   0  0  0  0  0  0  0  0  0  0  0  0
  -20.5139   19.1292  -15.7282 C   0  0  0  0  0  0  0  0  0  0  0  0
  -21.2498   20.1830  -18.6985 H   0  0  0  0  0  0  0  0  0  0  0  0
 60 61  1  0  0  0
 61 62  1  0  0  0
 61 59  1  0  0  0
 59 37  1  0  0  0
 37 33  1  0  0  0
 33 34  1  0  0  0
 34 35  2  0  0  0
 34  1  1  0  0  0
  1 63  1  0  0  0
 63 64  1  0  0  0
 64 65  2  0  0  0
 65 66  1  0  0  0
 66 67  1  0  0  0
 67 68  2  0  0  0
 68 69  1  0  0  0
 69 70  2  0  0  0
 70 71  1  0  0  0
 71 72  2  0  0  0
  1  2  1  0  0  0
  2  3  1  0  0  0
  3  4  2  0  0  0
  3  6  1  0  0  0
  6  7  1  0  0  0
  7  8  1  0  0  0
  8  9  2  0  0  0
  8 11  1  0  0  0
 11 12  1  0  0  0
 12 13  1  0  0  0
 13 14  1  0  0  0
 14 15  1  0  0  0
 15 16  1  0  0  0
 16 17  2  0  0  0
 16 18  1  0  0  0
 18 19  1  0  0  0
 18 22  1  0  0  0
 22 23  1  0  0  0
 23 24  1  0  0  0
 24 25  1  0  0  0
 25 26  2  0  0  0
 26 27  1  0  0  0
 26 28  1  0  0  0
 37 38  1  0  0  0
 38 39  2  0  0  0
 38 40  1  0  0  0
 40 42  1  0  0  0
 42 48  1  0  0  0
 48 49  1  0  0  0
 49 50  2  0  0  0
 50 51  1  0  0  0
 51 52  1  0  0  0
 52 53  2  0  0  0
 53 54  1  0  0  0
 54 55  2  0  0  0
 55 56  1  0  0  0
 56 57  2  0  0  0
 42 43  1  0  0  0
 43 44  1  0  0  0
 43 45  2  0  0  0
 72 64  1  0  0  0
 15 11  1  0  0  0
 57 49  1  0  0  0
 72 67  1  0  0  0
 57 52  1  0  0  0
 33 36  1  0  0  0
 66 73  1  0  0  0
  2  5  1  0  0  0
  7 10  1  0  0  0
 19 20  1  0  0  0
 19 21  1  0  0  0
 27 29  1  0  0  0
 27 30  1  0  0  0
 28 31  1  0  0  0
 28 32  1  0  0  0
 40 41  1  0  0  0
 51 58  1  0  0  0
 44 46  1  0  0  0
 44 47  1  0  0  0
M  END
> <minimizedAffinity>
-8.76262

> <CNNscore>
0.1576499343

> <CNNaffinity>
6.9886703491

> <CNN_VS>
1.1017633677

> <CNNaffinity_variance>
0.9868421555

$$$$
[H]c1c([H])c([H])c2c(c1[H])c(C([H])([H])[C@@]([H])(C(=O)N([H])[H])N([H])C(=O)[C@@]([H])(N([H])C(=O)[C@@]([H])(N([H])C(=O)C([H])([H])N([H])C(=O)[C@@]1([H])N(C(=O)[C@@]([H])(N([H])[H])C([H])([H])C([H])([H])C([H])([H])N=C(N([H])[H])N([H])[H])C([H])([H])C([H])([H])C1([H])[H])C([H])([H])c1c([H])n([H])c3c([H])c([H])c([H])c([H])c13)C([H])([H])C([H])(C([H])([H])[H])C([H])([H])[H])c([H])n2[H]


 73 77  0  0  0  0  0  0  0  0999 V2000
  -20.8879   13.4354  -17.3881 C   0  0  0  0  0  0  0  0  0  0  0  0
  -20.5336   14.7901  -17.0668 N   0  0  0  0  0  0  0  0  0  0  0  0
  -19.2651   15.3145  -16.6840 C   0  0  0  0  0  0  0  0  0  0  0  0
  -18.2611   14.5713  -16.5709 O   0  0  0  0  0  0  0  0  0  0  0  0
  -21.3178   15.5427  -17.1161 H   0  0  0  0  0  0  0  0  0  0  0  0
  -19.1762   16.7898  -16.4192 C   0  0  0  0  0  0  0  0  0  0  0  0
  -19.9540   17.5571  -17.3554 N   0  0  0  0  0  0  0  0  0  0  0  0
  -19.4260   17.9529  -18.5835 C   0  0  0  0  0  0  0  0  0  0  0  0
  -18.2046   17.5445  -18.7997 O   0  0  0  0  0  0  0  0  0  0  0  0
  -20.9237   17.7906  -17.0775 H   0  0  0  0  0  0  0  0  0  0  0  0
  -19.9624   18.7335  -19.6647 C   0  0  0  0  0  0  0  0  0  0  0  0
  -21.5172   18.5355  -19.6673 C   0  0  0  0  0  0  0  0  0  0  0  0
  -21.6589   17.2533  -20.4670 C   0  0  0  0  0  0  0  0  0  0  0  0
  -20.3573   17.0760  -21.2310 C   0  0  0  0  0  0  0  0  0  0  0  0
  -19.6266   18.3162  -20.9915 N   0  0  0  0  0  0  0  0  0  0  0  0
  -18.7476   18.9846  -21.8819 C   0  0  0  0  0  0  0  0  0  0  0  0
  -18.0756   19.9580  -21.5001 O   0  0  0  0  0  0  0  0  0  0  0  0
  -18.6769   18.4648  -23.3018 C   0  0  0  0  0  0  0  0  0  0  0  0
  -18.7240   19.7052  -24.1085 N   0  0  0  0  0  0  0  0  0  0  0  0
  -17.6944   19.9423  -24.2783 H   0  0  0  0  0  0  0  0  0  0  0  0
  -19.0411   20.4726  -23.4794 H   0  0  0  0  0  0  0  0  0  0  0  0
  -17.4120   17.7145  -23.5205 C   0  0  0  0  0  0  0  0  0  0  0  0
  -17.5223   16.2553  -23.2419 C   0  0  0  0  0  0  0  0  0  0  0  0
  -16.2925   15.5232  -22.8424 C   0  0  0  0  0  0  0  0  0  0  0  0
  -15.2031   15.8632  -23.7841 N   0  0  0  0  0  0  0  0  0  0  0  0
  -14.6452   14.9324  -24.4704 C   0  0  0  0  0  0  0  0  0  0  0  0
  -13.6048   15.2454  -25.3697 N   0  0  0  0  0  0  0  0  0  0  0  0
  -15.0823   13.5959  -24.3173 N   0  0  0  0  0  0  0  0  0  0  0  0
  -13.8052   15.3595  -26.3767 H   0  0  0  0  0  0  0  0  0  0  0  0
  -12.6361   15.3572  -25.0262 H   0  0  0  0  0  0  0  0  0  0  0  0
  -14.7295   13.0466  -23.5114 H   0  0  0  0  0  0  0  0  0  0  0  0
  -15.7311   13.1767  -24.9829 H   0  0  0  0  0  0  0  0  0  0  0  0
  -21.9021   11.5394  -16.0248 N   0  0  0  0  0  0  0  0  0  0  0  0
  -21.5396   12.8894  -16.1498 C   0  0  0  0  0  0  0  0  0  0  0  0
  -21.7598   13.6630  -15.1830 O   0  0  0  0  0  0  0  0  0  0  0  0
  -21.7358   10.8825  -16.8291 H   0  0  0  0  0  0  0  0  0  0  0  0
  -22.5012   10.8956  -14.8667 C   0  0  0  0  0  0  0  0  0  0  0  0
  -21.5635    9.7737  -14.4604 C   0  0  0  0  0  0  0  0  0  0  0  0
  -22.0490    8.6919  -14.0899 O   0  0  0  0  0  0  0  0  0  0  0  0
  -20.1941    9.9505  -14.4962 N   0  0  0  0  0  0  0  0  0  0  0  0
  -19.7448   10.8375  -14.8076 H   0  0  0  0  0  0  0  0  0  0  0  0
  -19.2369    8.9066  -14.1096 C   0  0  0  0  0  0  0  0  0  0  0  0
  -19.0129    7.9515  -15.1922 C   0  0  0  0  0  0  0  0  0  0  0  0
  -18.1618    8.1773  -16.3083 N   0  0  0  0  0  0  0  0  0  0  0  0
  -19.6117    6.8329  -15.1666 O   0  0  0  0  0  0  0  0  0  0  0  0
  -18.1386    7.6188  -17.1648 H   0  0  0  0  0  0  0  0  0  0  0  0
  -17.4969    8.9987  -16.2364 H   0  0  0  0  0  0  0  0  0  0  0  0
  -19.4976    8.4016  -12.7467 C   0  0  0  0  0  0  0  0  0  0  0  0
  -18.7484    8.9592  -11.6477 C   0  0  0  0  0  0  0  0  0  0  0  0
  -18.8753   10.2612  -11.1689 C   0  0  0  0  0  0  0  0  0  0  0  0
  -18.1448   10.4753  -10.1017 N   0  0  0  0  0  0  0  0  0  0  0  0
  -17.4969    9.3179   -9.8257 C   0  0  0  0  0  0  0  0  0  0  0  0
  -16.6178    9.0479   -8.8044 C   0  0  0  0  0  0  0  0  0  0  0  0
  -16.0667    7.8057   -8.7060 C   0  0  0  0  0  0  0  0  0  0  0  0
  -16.4102    6.8449   -9.6437 C   0  0  0  0  0  0  0  0  0  0  0  0
  -17.2904    7.1271  -10.6595 C   0  0  0  0  0  0  0  0  0  0  0  0
  -17.8652    8.3656  -10.7869 C   0  0  0  0  0  0  0  0  0  0  0  0
  -18.0696   11.3785   -9.5479 H   0  0  0  0  0  0  0  0  0  0  0  0
  -23.8134   10.2745  -15.0725 C   0  0  0  0  0  0  0  0  0  0  0  0
  -24.9981   12.1966  -13.9257 C   0  0  0  0  0  0  0  0  0  0  0  0
  -25.0020   10.7511  -14.3290 C   0  0  0  0  0  0  0  0  0  0  0  0
  -26.2027   10.5104  -15.2899 C   0  0  0  0  0  0  0  0  0  0  0  0
  -19.6241   12.6442  -17.6684 C   0  0  0  0  0  0  0  0  0  0  0  0
  -19.1399   12.7415  -19.0355 C   0  0  0  0  0  0  0  0  0  0  0  0
  -19.5610   13.5761  -20.0388 C   0  0  0  0  0  0  0  0  0  0  0  0
  -18.8368   13.3649  -21.1569 N   0  0  0  0  0  0  0  0  0  0  0  0
  -17.9306   12.3783  -20.8767 C   0  0  0  0  0  0  0  0  0  0  0  0
  -16.9391   11.7709  -21.6559 C   0  0  0  0  0  0  0  0  0  0  0  0
  -16.1643   10.7940  -21.0915 C   0  0  0  0  0  0  0  0  0  0  0  0
  -16.3175   10.3772  -19.7783 C   0  0  0  0  0  0  0  0  0  0  0  0
  -17.2892   10.9823  -19.0416 C   0  0  0  0  0  0  0  0  0  0  0  0
  -18.1055   11.9818  -19.5690 C   0  0  0  0  0  0  0  0  0  0  0  0
  -18.9418   13.8550  -22.0722 H   0  0  0  0  0  0  0  0  0  0  0  0
 60 61  1  0  0  0
 61 62  1  0  0  0
 61 59  1  0  0  0
 59 37  1  0  0  0
 37 33  1  0  0  0
 33 34  1  0  0  0
 34 35  2  0  0  0
 34  1  1  0  0  0
  1 63  1  0  0  0
 63 64  1  0  0  0
 64 65  2  0  0  0
 65 66  1  0  0  0
 66 67  1  0  0  0
 67 68  2  0  0  0
 68 69  1  0  0  0
 69 70  2  0  0  0
 70 71  1  0  0  0
 71 72  2  0  0  0
  1  2  1  0  0  0
  2  3  1  0  0  0
  3  4  2  0  0  0
  3  6  1  0  0  0
  6  7  1  0  0  0
  7  8  1  0  0  0
  8  9  2  0  0  0
  8 11  1  0  0  0
 11 12  1  0  0  0
 12 13  1  0  0  0
 13 14  1  0  0  0
 14 15  1  0  0  0
 15 16  1  0  0  0
 16 17  2  0  0  0
 16 18  1  0  0  0
 18 19  1  0  0  0
 18 22  1  0  0  0
 22 23  1  0  0  0
 23 24  1  0  0  0
 24 25  1  0  0  0
 25 26  2  0  0  0
 26 27  1  0  0  0
 26 28  1  0  0  0
 37 38  1  0  0  0
 38 39  2  0  0  0
 38 40  1  0  0  0
 40 42  1  0  0  0
 42 48  1  0  0  0
 48 49  1  0  0  0
 49 50  2  0  0  0
 50 51  1  0  0  0
 51 52  1  0  0  0
 52 53  2  0  0  0
 53 54  1  0  0  0
 54 55  2  0  0  0
 55 56  1  0  0  0
 56 57  2  0  0  0
 42 43  1  0  0  0
 43 44  1  0  0  0
 43 45  2  0  0  0
 72 64  1  0  0  0
 15 11  1  0  0  0
 57 49  1  0  0  0
 72 67  1  0  0  0
 57 52  1  0  0  0
 33 36  1  0  0  0
 66 73  1  0  0  0
  2  5  1  0  0  0
  7 10  1  0  0  0
 19 20  1  0  0  0
 19 21  1  0  0  0
 27 29  1  0  0  0
 27 30  1  0  0  0
 28 31  1  0  0  0
 28 32  1  0  0  0
 40 41  1  0  0  0
 51 58  1  0  0  0
 44 46  1  0  0  0
 44 47  1  0  0  0
M  END
> <minimizedAffinity>
-9.65219

> <CNNscore>
0.1557971686

> <CNNaffinity>
7.1402769089

> <CNN_VS>
1.1124349833

> <CNNaffinity_variance>
1.2132434845

$$$$
[H]c1c([H])c([H])c2c(c1[H])c(C([H])([H])[C@@]([H])(C(=O)N([H])[H])N([H])C(=O)[C@@]([H])(N([H])C(=O)[C@@]([H])(N([H])C(=O)C([H])([H])N([H])C(=O)[C@@]1([H])N(C(=O)[C@@]([H])(N([H])[H])C([H])([H])C([H])([H])C([H])([H])N=C(N([H])[H])N([H])[H])C([H])([H])C([H])([H])C1([H])[H])C([H])([H])c1c([H])n([H])c3c([H])c([H])c([H])c([H])c13)C([H])([H])C([H])(C([H])([H])[H])C([H])([H])[H])c([H])n2[H]


 73 77  0  0  0  0  0  0  0  0999 V2000
  -20.4050   12.8478  -17.3104 C   0  0  0  0  0  0  0  0  0  0  0  0
  -21.0026   14.1452  -17.4630 N   0  0  0  0  0  0  0  0  0  0  0  0
  -21.5505   14.7438  -18.6344 C   0  0  0  0  0  0  0  0  0  0  0  0
  -21.5465   14.1424  -19.7350 O   0  0  0  0  0  0  0  0  0  0  0  0
  -21.0627   14.7806  -16.5817 H   0  0  0  0  0  0  0  0  0  0  0  0
  -22.1311   16.1222  -18.5017 C   0  0  0  0  0  0  0  0  0  0  0  0
  -21.5850   17.0366  -19.4691 N   0  0  0  0  0  0  0  0  0  0  0  0
  -22.2350   18.2281  -19.7876 C   0  0  0  0  0  0  0  0  0  0  0  0
  -23.3376   18.4338  -19.1189 O   0  0  0  0  0  0  0  0  0  0  0  0
  -20.6849   16.7720  -19.9070 H   0  0  0  0  0  0  0  0  0  0  0  0
  -21.9322   19.2804  -20.7188 C   0  0  0  0  0  0  0  0  0  0  0  0
  -23.2745   19.7062  -21.4070 C   0  0  0  0  0  0  0  0  0  0  0  0
  -23.3781   18.6874  -22.5272 C   0  0  0  0  0  0  0  0  0  0  0  0
  -21.9849   18.1102  -22.7149 C   0  0  0  0  0  0  0  0  0  0  0  0
  -21.1364   18.9287  -21.8547 N   0  0  0  0  0  0  0  0  0  0  0  0
  -19.7871   19.3036  -22.0800 C   0  0  0  0  0  0  0  0  0  0  0  0
  -19.1330   19.8841  -21.1967 O   0  0  0  0  0  0  0  0  0  0  0  0
  -19.1955   18.9729  -23.4334 C   0  0  0  0  0  0  0  0  0  0  0  0
  -19.1171   20.2972  -24.0902 N   0  0  0  0  0  0  0  0  0  0  0  0
  -18.1230   20.6322  -23.8785 H   0  0  0  0  0  0  0  0  0  0  0  0
  -19.7086   20.9531  -23.5377 H   0  0  0  0  0  0  0  0  0  0  0  0
  -17.8519   18.3554  -23.2789 C   0  0  0  0  0  0  0  0  0  0  0  0
  -17.8893   16.9449  -22.8010 C   0  0  0  0  0  0  0  0  0  0  0  0
  -16.6453   16.1384  -22.8992 C   0  0  0  0  0  0  0  0  0  0  0  0
  -16.9576   14.8511  -23.5586 N   0  0  0  0  0  0  0  0  0  0  0  0
  -16.0003   14.1054  -23.9781 C   0  0  0  0  0  0  0  0  0  0  0  0
  -16.2871   12.8772  -24.6095 N   0  0  0  0  0  0  0  0  0  0  0  0
  -14.6611   14.5248  -23.8014 N   0  0  0  0  0  0  0  0  0  0  0  0
  -16.2451   11.9951  -24.0734 H   0  0  0  0  0  0  0  0  0  0  0  0
  -16.5356   12.8534  -25.6127 H   0  0  0  0  0  0  0  0  0  0  0  0
  -14.2612   15.2074  -24.4720 H   0  0  0  0  0  0  0  0  0  0  0  0
  -14.0964   14.1664  -23.0317 H   0  0  0  0  0  0  0  0  0  0  0  0
  -20.6715   11.0322  -15.5455 N   0  0  0  0  0  0  0  0  0  0  0  0
  -20.8469   12.3616  -15.9597 C   0  0  0  0  0  0  0  0  0  0  0  0
  -21.3833   13.1736  -15.1630 O   0  0  0  0  0  0  0  0  0  0  0  0
  -20.2358   10.3382  -16.2047 H   0  0  0  0  0  0  0  0  0  0  0  0
  -21.0245   10.4615  -14.2554 C   0  0  0  0  0  0  0  0  0  0  0  0
  -20.1044    9.2740  -14.0399 C   0  0  0  0  0  0  0  0  0  0  0  0
  -18.8768    9.4446  -14.1240 O   0  0  0  0  0  0  0  0  0  0  0  0
  -20.6197    8.0235  -13.7599 N   0  0  0  0  0  0  0  0  0  0  0  0
  -21.6412    7.8376  -13.6727 H   0  0  0  0  0  0  0  0  0  0  0  0
  -19.7823    6.8363  -13.5484 C   0  0  0  0  0  0  0  0  0  0  0  0
  -19.9927    5.8343  -14.5905 C   0  0  0  0  0  0  0  0  0  0  0  0
  -20.8805    5.9842  -15.6908 N   0  0  0  0  0  0  0  0  0  0  0  0
  -19.3566    4.7377  -14.5345 O   0  0  0  0  0  0  0  0  0  0  0  0
  -21.1903    5.2355  -16.3151 H   0  0  0  0  0  0  0  0  0  0  0  0
  -21.2476    6.9612  -15.8715 H   0  0  0  0  0  0  0  0  0  0  0  0
  -19.7783    6.4134  -12.1336 C   0  0  0  0  0  0  0  0  0  0  0  0
  -18.6284    6.7270  -11.3215 C   0  0  0  0  0  0  0  0  0  0  0  0
  -17.5600    5.8671  -11.0776 C   0  0  0  0  0  0  0  0  0  0  0  0
  -16.6051    6.4394  -10.3854 N   0  0  0  0  0  0  0  0  0  0  0  0
  -17.0020    7.7108  -10.1377 C   0  0  0  0  0  0  0  0  0  0  0  0
  -16.3403    8.6986   -9.4482 C   0  0  0  0  0  0  0  0  0  0  0  0
  -16.9230    9.9221   -9.3071 C   0  0  0  0  0  0  0  0  0  0  0  0
  -18.1728   10.1368   -9.8658 C   0  0  0  0  0  0  0  0  0  0  0  0
  -18.8236    9.1415  -10.5530 C   0  0  0  0  0  0  0  0  0  0  0  0
  -18.2655    7.8996  -10.7160 C   0  0  0  0  0  0  0  0  0  0  0  0
  -15.6886    6.0015  -10.0750 H   0  0  0  0  0  0  0  0  0  0  0  0
  -22.3910    9.9467  -14.1225 C   0  0  0  0  0  0  0  0  0  0  0  0
  -23.5970    8.5098  -15.8237 C   0  0  0  0  0  0  0  0  0  0  0  0
  -23.2930    9.8810  -15.2950 C   0  0  0  0  0  0  0  0  0  0  0  0
  -24.6240   10.5317  -14.8175 C   0  0  0  0  0  0  0  0  0  0  0  0
  -18.8947   12.9929  -17.3109 C   0  0  0  0  0  0  0  0  0  0  0  0
  -18.2901   13.0239  -18.6324 C   0  0  0  0  0  0  0  0  0  0  0  0
  -18.1949   14.0740  -19.5092 C   0  0  0  0  0  0  0  0  0  0  0  0
  -17.5390   13.6932  -20.6245 N   0  0  0  0  0  0  0  0  0  0  0  0
  -17.2020   12.3757  -20.4708 C   0  0  0  0  0  0  0  0  0  0  0  0
  -16.5180   11.4824  -21.3036 C   0  0  0  0  0  0  0  0  0  0  0  0
  -16.3207   10.1988  -20.8715 C   0  0  0  0  0  0  0  0  0  0  0  0
  -16.7689    9.7416  -19.6420 C   0  0  0  0  0  0  0  0  0  0  0  0
  -17.4321   10.6290  -18.8509 C   0  0  0  0  0  0  0  0  0  0  0  0
  -17.6598   11.9469  -19.2442 C   0  0  0  0  0  0  0  0  0  0  0  0
  -17.3254   14.2845  -21.4574 H   0  0  0  0  0  0  0  0  0  0  0  0
 60 61  1  0  0  0
 61 62  1  0  0  0
 61 59  1  0  0  0
 59 37  1  0  0  0
 37 33  1  0  0  0
 33 34  1  0  0  0
 34 35  2  0  0  0
 34  1  1  0  0  0
  1 63  1  0  0  0
 63 64  1  0  0  0
 64 65  2  0  0  0
 65 66  1  0  0  0
 66 67  1  0  0  0
 67 68  2  0  0  0
 68 69  1  0  0  0
 69 70  2  0  0  0
 70 71  1  0  0  0
 71 72  2  0  0  0
  1  2  1  0  0  0
  2  3  1  0  0  0
  3  4  2  0  0  0
  3  6  1  0  0  0
  6  7  1  0  0  0
  7  8  1  0  0  0
  8  9  2  0  0  0
  8 11  1  0  0  0
 11 12  1  0  0  0
 12 13  1  0  0  0
 13 14  1  0  0  0
 14 15  1  0  0  0
 15 16  1  0  0  0
 16 17  2  0  0  0
 16 18  1  0  0  0
 18 19  1  0  0  0
 18 22  1  0  0  0
 22 23  1  0  0  0
 23 24  1  0  0  0
 24 25  1  0  0  0
 25 26  2  0  0  0
 26 27  1  0  0  0
 26 28  1  0  0  0
 37 38  1  0  0  0
 38 39  2  0  0  0
 38 40  1  0  0  0
 40 42  1  0  0  0
 42 48  1  0  0  0
 48 49  1  0  0  0
 49 50  2  0  0  0
 50 51  1  0  0  0
 51 52  1  0  0  0
 52 53  2  0  0  0
 53 54  1  0  0  0
 54 55  2  0  0  0
 55 56  1  0  0  0
 56 57  2  0  0  0
 42 43  1  0  0  0
 43 44  1  0  0  0
 43 45  2  0  0  0
 72 64  1  0  0  0
 15 11  1  0  0  0
 57 49  1  0  0  0
 72 67  1  0  0  0
 57 52  1  0  0  0
 33 36  1  0  0  0
 66 73  1  0  0  0
  2  5  1  0  0  0
  7 10  1  0  0  0
 19 20  1  0  0  0
 19 21  1  0  0  0
 27 29  1  0  0  0
 27 30  1  0  0  0
 28 31  1  0  0  0
 28 32  1  0  0  0
 40 41  1  0  0  0
 51 58  1  0  0  0
 44 46  1  0  0  0
 44 47  1  0  0  0
M  END
> <minimizedAffinity>
-8.60463

> <CNNscore>
0.1485578418

> <CNNaffinity>
6.9666109085

> <CNN_VS>
1.0349446535

> <CNNaffinity_variance>
1.0633449554

$$$$
[H]c1c([H])c([H])c2c(c1[H])c(C([H])([H])[C@@]([H])(C(=O)N([H])[H])N([H])C(=O)[C@@]([H])(N([H])C(=O)[C@@]([H])(N([H])C(=O)C([H])([H])N([H])C(=O)[C@@]1([H])N(C(=O)[C@@]([H])(N([H])[H])C([H])([H])C([H])([H])C([H])([H])N=C(N([H])[H])N([H])[H])C([H])([H])C([H])([H])C1([H])[H])C([H])([H])c1c([H])n([H])c3c([H])c([H])c([H])c([H])c13)C([H])([H])C([H])(C([H])([H])[H])C([H])([H])[H])c([H])n2[H]


 73 77  0  0  0  0  0  0  0  0999 V2000
  -20.3670   12.2390  -17.3871 C   0  0  0  0  0  0  0  0  0  0  0  0
  -20.9558   13.5323  -17.1761 N   0  0  0  0  0  0  0  0  0  0  0  0
  -21.4916   14.4372  -18.1377 C   0  0  0  0  0  0  0  0  0  0  0  0
  -21.4831   14.1655  -19.3622 O   0  0  0  0  0  0  0  0  0  0  0  0
  -21.0187   13.8980  -16.1533 H   0  0  0  0  0  0  0  0  0  0  0  0
  -22.0650   15.7288  -17.6301 C   0  0  0  0  0  0  0  0  0  0  0  0
  -21.4820   16.8734  -18.2784 N   0  0  0  0  0  0  0  0  0  0  0  0
  -22.2569   17.9750  -18.6385 C   0  0  0  0  0  0  0  0  0  0  0  0
  -23.5172   17.8750  -18.3117 O   0  0  0  0  0  0  0  0  0  0  0  0
  -20.4621   16.8427  -18.4539 H   0  0  0  0  0  0  0  0  0  0  0  0
  -21.9412   19.2063  -19.3096 C   0  0  0  0  0  0  0  0  0  0  0  0
  -23.1749   19.5942  -20.1950 C   0  0  0  0  0  0  0  0  0  0  0  0
  -22.9093   18.7906  -21.4549 C   0  0  0  0  0  0  0  0  0  0  0  0
  -21.4359   18.4195  -21.4266 C   0  0  0  0  0  0  0  0  0  0  0  0
  -20.8993   19.1595  -20.2891 N   0  0  0  0  0  0  0  0  0  0  0  0
  -19.6029   19.7204  -20.1596 C   0  0  0  0  0  0  0  0  0  0  0  0
  -19.2239   20.2016  -19.0781 O   0  0  0  0  0  0  0  0  0  0  0  0
  -18.7205   19.7103  -21.3895 C   0  0  0  0  0  0  0  0  0  0  0  0
  -18.1260   21.0660  -21.3784 N   0  0  0  0  0  0  0  0  0  0  0  0
  -17.1959   20.9361  -20.8651 H   0  0  0  0  0  0  0  0  0  0  0  0
  -18.6825   21.6435  -20.7134 H   0  0  0  0  0  0  0  0  0  0  0  0
  -17.6810   18.6532  -21.2774 C   0  0  0  0  0  0  0  0  0  0  0  0
  -17.9793   17.4295  -22.0728 C   0  0  0  0  0  0  0  0  0  0  0  0
  -18.0699   17.5587  -23.5503 C   0  0  0  0  0  0  0  0  0  0  0  0
  -17.8380   16.2324  -24.1640 N   0  0  0  0  0  0  0  0  0  0  0  0
  -16.7983   16.0450  -24.8937 C   0  0  0  0  0  0  0  0  0  0  0  0
  -16.5685   14.7851  -25.4848 N   0  0  0  0  0  0  0  0  0  0  0  0
  -15.8888   17.1088  -25.0979 N   0  0  0  0  0  0  0  0  0  0  0  0
  -15.9227   14.1125  -25.0400 H   0  0  0  0  0  0  0  0  0  0  0  0
  -17.0414   14.5309  -26.3682 H   0  0  0  0  0  0  0  0  0  0  0  0
  -16.1133   17.8244  -25.8143 H   0  0  0  0  0  0  0  0  0  0  0  0
  -15.0288   17.1754  -24.5542 H   0  0  0  0  0  0  0  0  0  0  0  0
  -20.4864   10.0418  -16.1064 N   0  0  0  0  0  0  0  0  0  0  0  0
  -20.8465   11.3913  -16.2436 C   0  0  0  0  0  0  0  0  0  0  0  0
  -21.5879   11.9075  -15.3687 O   0  0  0  0  0  0  0  0  0  0  0  0
  -19.8772    9.5922  -16.8364 H   0  0  0  0  0  0  0  0  0  0  0  0
  -20.8584    9.1398  -15.0281 C   0  0  0  0  0  0  0  0  0  0  0  0
  -19.6040    8.9049  -14.2068 C   0  0  0  0  0  0  0  0  0  0  0  0
  -18.5105    8.8309  -14.7916 O   0  0  0  0  0  0  0  0  0  0  0  0
  -19.6741    8.7704  -12.8339 N   0  0  0  0  0  0  0  0  0  0  0  0
  -20.5683    8.8334  -12.3029 H   0  0  0  0  0  0  0  0  0  0  0  0
  -18.4984    8.5354  -11.9868 C   0  0  0  0  0  0  0  0  0  0  0  0
  -18.3739    7.1283  -11.6140 C   0  0  0  0  0  0  0  0  0  0  0  0
  -17.1743    6.5130  -11.1629 N   0  0  0  0  0  0  0  0  0  0  0  0
  -19.3906    6.3729  -11.6937 O   0  0  0  0  0  0  0  0  0  0  0  0
  -17.0117    5.5062  -11.0850 H   0  0  0  0  0  0  0  0  0  0  0  0
  -16.3857    7.1633  -10.8852 H   0  0  0  0  0  0  0  0  0  0  0  0
  -18.3584    9.5713  -10.9438 C   0  0  0  0  0  0  0  0  0  0  0  0
  -19.3729    9.6662   -9.9231 C   0  0  0  0  0  0  0  0  0  0  0  0
  -20.4915   10.4946   -9.9782 C   0  0  0  0  0  0  0  0  0  0  0  0
  -21.2995   10.3125   -8.9622 N   0  0  0  0  0  0  0  0  0  0  0  0
  -20.7477    9.3506   -8.1839 C   0  0  0  0  0  0  0  0  0  0  0  0
  -21.2231    8.8181   -7.0095 C   0  0  0  0  0  0  0  0  0  0  0  0
  -20.5044    7.8508   -6.3735 C   0  0  0  0  0  0  0  0  0  0  0  0
  -19.3083    7.4293   -6.9321 C   0  0  0  0  0  0  0  0  0  0  0  0
  -18.8443    7.9691   -8.1067 C   0  0  0  0  0  0  0  0  0  0  0  0
  -19.5430    8.9422   -8.7741 C   0  0  0  0  0  0  0  0  0  0  0  0
  -22.2167   10.8145   -8.7755 H   0  0  0  0  0  0  0  0  0  0  0  0
  -21.3391    7.8127  -15.4252 C   0  0  0  0  0  0  0  0  0  0  0  0
  -22.3564    6.2867  -13.6788 C   0  0  0  0  0  0  0  0  0  0  0  0
  -22.5628    7.2383  -14.8207 C   0  0  0  0  0  0  0  0  0  0  0  0
  -23.3703    8.4637  -14.3017 C   0  0  0  0  0  0  0  0  0  0  0  0
  -18.8568   12.3616  -17.3089 C   0  0  0  0  0  0  0  0  0  0  0  0
  -18.1383   11.6776  -18.3714 C   0  0  0  0  0  0  0  0  0  0  0  0
  -17.6522   10.3955  -18.3927 C   0  0  0  0  0  0  0  0  0  0  0  0
  -17.0636   10.1389  -19.5789 N   0  0  0  0  0  0  0  0  0  0  0  0
  -17.1688   11.2709  -20.3409 C   0  0  0  0  0  0  0  0  0  0  0  0
  -16.7424   11.5655  -21.6411 C   0  0  0  0  0  0  0  0  0  0  0  0
  -16.9984   12.8091  -22.1521 C   0  0  0  0  0  0  0  0  0  0  0  0
  -17.6634   13.7937  -21.4380 C   0  0  0  0  0  0  0  0  0  0  0  0
  -18.0670   13.4830  -20.1756 C   0  0  0  0  0  0  0  0  0  0  0  0
  -17.8305   12.2318  -19.6083 C   0  0  0  0  0  0  0  0  0  0  0  0
  -16.6069    9.2471  -19.8707 H   0  0  0  0  0  0  0  0  0  0  0  0
 60 61  1  0  0  0
 61 62  1  0  0  0
 61 59  1  0  0  0
 59 37  1  0  0  0
 37 33  1  0  0  0
 33 34  1  0  0  0
 34 35  2  0  0  0
 34  1  1  0  0  0
  1 63  1  0  0  0
 63 64  1  0  0  0
 64 65  2  0  0  0
 65 66  1  0  0  0
 66 67  1  0  0  0
 67 68  2  0  0  0
 68 69  1  0  0  0
 69 70  2  0  0  0
 70 71  1  0  0  0
 71 72  2  0  0  0
  1  2  1  0  0  0
  2  3  1  0  0  0
  3  4  2  0  0  0
  3  6  1  0  0  0
  6  7  1  0  0  0
  7  8  1  0  0  0
  8  9  2  0  0  0
  8 11  1  0  0  0
 11 12  1  0  0  0
 12 13  1  0  0  0
 13 14  1  0  0  0
 14 15  1  0  0  0
 15 16  1  0  0  0
 16 17  2  0  0  0
 16 18  1  0  0  0
 18 19  1  0  0  0
 18 22  1  0  0  0
 22 23  1  0  0  0
 23 24  1  0  0  0
 24 25  1  0  0  0
 25 26  2  0  0  0
 26 27  1  0  0  0
 26 28  1  0  0  0
 37 38  1  0  0  0
 38 39  2  0  0  0
 38 40  1  0  0  0
 40 42  1  0  0  0
 42 48  1  0  0  0
 48 49  1  0  0  0
 49 50  2  0  0  0
 50 51  1  0  0  0
 51 52  1  0  0  0
 52 53  2  0  0  0
 53 54  1  0  0  0
 54 55  2  0  0  0
 55 56  1  0  0  0
 56 57  2  0  0  0
 42 43  1  0  0  0
 43 44  1  0  0  0
 43 45  2  0  0  0
 72 64  1  0  0  0
 15 11  1  0  0  0
 57 49  1  0  0  0
 72 67  1  0  0  0
 57 52  1  0  0  0
 33 36  1  0  0  0
 66 73  1  0  0  0
  2  5  1  0  0  0
  7 10  1  0  0  0
 19 20  1  0  0  0
 19 21  1  0  0  0
 27 29  1  0  0  0
 27 30  1  0  0  0
 28 31  1  0  0  0
 28 32  1  0  0  0
 40 41  1  0  0  0
 51 58  1  0  0  0
 44 46  1  0  0  0
 44 47  1  0  0  0
M  END
> <minimizedAffinity>
-7.76838

> <CNNscore>
0.1435679048

> <CNNaffinity>
7.0571432114

> <CNN_VS>
1.0131793022

> <CNNaffinity_variance>
0.4179165363

$$$$
[H]c1c([H])c([H])c2c(c1[H])c(C([H])([H])[C@@]([H])(C(=O)N([H])[H])N([H])C(=O)[C@@]([H])(N([H])C(=O)[C@@]([H])(N([H])C(=O)C([H])([H])N([H])C(=O)[C@@]1([H])N(C(=O)[C@@]([H])(N([H])[H])C([H])([H])C([H])([H])C([H])([H])N=C(N([H])[H])N([H])[H])C([H])([H])C([H])([H])C1([H])[H])C([H])([H])c1c([H])n([H])c3c([H])c([H])c([H])c([H])c13)C([H])([H])C([H])(C([H])([H])[H])C([H])([H])[H])c([H])n2[H]


 73 77  0  0  0  0  0  0  0  0999 V2000
  -19.4814   13.1884  -16.5442 C   0  0  0  0  0  0  0  0  0  0  0  0
  -20.0049   14.5187  -16.6854 N   0  0  0  0  0  0  0  0  0  0  0  0
  -21.0052   14.9942  -17.5822 C   0  0  0  0  0  0  0  0  0  0  0  0
  -21.5551   14.2278  -18.4089 O   0  0  0  0  0  0  0  0  0  0  0  0
  -19.6060   15.2908  -16.0308 H   0  0  0  0  0  0  0  0  0  0  0  0
  -21.3747   16.4473  -17.5012 C   0  0  0  0  0  0  0  0  0  0  0  0
  -20.4649   17.1933  -16.6730 N   0  0  0  0  0  0  0  0  0  0  0  0
  -20.7864   18.4681  -16.2091 C   0  0  0  0  0  0  0  0  0  0  0  0
  -21.9697   18.8877  -16.5683 O   0  0  0  0  0  0  0  0  0  0  0  0
  -19.5686   16.7346  -16.4315 H   0  0  0  0  0  0  0  0  0  0  0  0
  -20.0644   19.4220  -15.4123 C   0  0  0  0  0  0  0  0  0  0  0  0
  -19.3543   18.6353  -14.2575 C   0  0  0  0  0  0  0  0  0  0  0  0
  -20.4622   18.5474  -13.2239 C   0  0  0  0  0  0  0  0  0  0  0  0
  -21.4803   19.6140  -13.5917 C   0  0  0  0  0  0  0  0  0  0  0  0
  -20.8434   20.3643  -14.6691 N   0  0  0  0  0  0  0  0  0  0  0  0
  -20.9674   21.7502  -14.9447 C   0  0  0  0  0  0  0  0  0  0  0  0
  -20.4854   22.2374  -15.9817 O   0  0  0  0  0  0  0  0  0  0  0  0
  -21.6985   22.5945  -13.9231 C   0  0  0  0  0  0  0  0  0  0  0  0
  -23.0177   21.9294  -13.8307 N   0  0  0  0  0  0  0  0  0  0  0  0
  -22.9094   21.2536  -13.0080 H   0  0  0  0  0  0  0  0  0  0  0  0
  -23.1014   21.2909  -14.6497 H   0  0  0  0  0  0  0  0  0  0  0  0
  -20.9810   22.5758  -12.6210 C   0  0  0  0  0  0  0  0  0  0  0  0
  -20.0484   23.7219  -12.4315 C   0  0  0  0  0  0  0  0  0  0  0  0
  -19.9782   24.3537  -11.0884 C   0  0  0  0  0  0  0  0  0  0  0  0
  -18.5801   24.7559  -10.8187 N   0  0  0  0  0  0  0  0  0  0  0  0
  -18.0070   24.3690   -9.7368 C   0  0  0  0  0  0  0  0  0  0  0  0
  -16.6750   24.7481   -9.4691 N   0  0  0  0  0  0  0  0  0  0  0  0
  -18.7204   23.5621   -8.8201 N   0  0  0  0  0  0  0  0  0  0  0  0
  -15.8985   24.0986   -9.6755 H   0  0  0  0  0  0  0  0  0  0  0  0
  -16.4700   25.6754   -9.0607 H   0  0  0  0  0  0  0  0  0  0  0  0
  -19.3802   24.0196   -8.1635 H   0  0  0  0  0  0  0  0  0  0  0  0
  -18.5923   22.5507   -8.8013 H   0  0  0  0  0  0  0  0  0  0  0  0
  -18.2980   13.8648  -18.6946 N   0  0  0  0  0  0  0  0  0  0  0  0
  -18.8381   12.8709  -17.8638 C   0  0  0  0  0  0  0  0  0  0  0  0
  -18.7677   11.6720  -18.2370 O   0  0  0  0  0  0  0  0  0  0  0  0
  -18.3601   14.8732  -18.4024 H   0  0  0  0  0  0  0  0  0  0  0  0
  -17.6228   13.6722  -19.9681 C   0  0  0  0  0  0  0  0  0  0  0  0
  -17.4805   15.0465  -20.5959 C   0  0  0  0  0  0  0  0  0  0  0  0
  -16.3839   15.3731  -21.0798 O   0  0  0  0  0  0  0  0  0  0  0  0
  -18.5478   15.9227  -20.6261 N   0  0  0  0  0  0  0  0  0  0  0  0
  -19.4861   15.6869  -20.2394 H   0  0  0  0  0  0  0  0  0  0  0  0
  -18.4703   17.2662  -21.2127 C   0  0  0  0  0  0  0  0  0  0  0  0
  -18.9232   18.2916  -20.2756 C   0  0  0  0  0  0  0  0  0  0  0  0
  -18.4217   18.4613  -18.9562 N   0  0  0  0  0  0  0  0  0  0  0  0
  -19.8333   19.1005  -20.6332 O   0  0  0  0  0  0  0  0  0  0  0  0
  -18.8493   19.0323  -18.2232 H   0  0  0  0  0  0  0  0  0  0  0  0
  -17.5258   17.9471  -18.7219 H   0  0  0  0  0  0  0  0  0  0  0  0
  -18.9724   17.2879  -22.6012 C   0  0  0  0  0  0  0  0  0  0  0  0
  -18.0486   17.0156  -23.6748 C   0  0  0  0  0  0  0  0  0  0  0  0
  -17.0663   17.8923  -24.1296 C   0  0  0  0  0  0  0  0  0  0  0  0
  -16.3041   17.3552  -25.0511 N   0  0  0  0  0  0  0  0  0  0  0  0
  -16.7517   16.0920  -25.2494 C   0  0  0  0  0  0  0  0  0  0  0  0
  -16.2748   15.1376  -26.1157 C   0  0  0  0  0  0  0  0  0  0  0  0
  -16.8774   13.9165  -26.1646 C   0  0  0  0  0  0  0  0  0  0  0  0
  -17.9597   13.6705  -25.3349 C   0  0  0  0  0  0  0  0  0  0  0  0
  -18.4265   14.6326  -24.4730 C   0  0  0  0  0  0  0  0  0  0  0  0
  -17.8425   15.8709  -24.3963 C   0  0  0  0  0  0  0  0  0  0  0  0
  -15.4862   17.8119  -25.5517 H   0  0  0  0  0  0  0  0  0  0  0  0
  -18.3200   12.8435  -20.9566 C   0  0  0  0  0  0  0  0  0  0  0  0
  -16.4408   12.3069  -22.5671 C   0  0  0  0  0  0  0  0  0  0  0  0
  -17.5896   11.8172  -21.7349 C   0  0  0  0  0  0  0  0  0  0  0  0
  -17.0398   10.8207  -20.6730 C   0  0  0  0  0  0  0  0  0  0  0  0
  -20.6297   12.2242  -16.3123 C   0  0  0  0  0  0  0  0  0  0  0  0
  -20.6947   11.6724  -14.9692 C   0  0  0  0  0  0  0  0  0  0  0  0
  -20.0156   10.6019  -14.4463 C   0  0  0  0  0  0  0  0  0  0  0  0
  -20.3445   10.4281  -13.1498 N   0  0  0  0  0  0  0  0  0  0  0  0
  -21.2509   11.4005  -12.8242 C   0  0  0  0  0  0  0  0  0  0  0  0
  -21.9176   11.6946  -11.6291 C   0  0  0  0  0  0  0  0  0  0  0  0
  -22.7820   12.7554  -11.6011 C   0  0  0  0  0  0  0  0  0  0  0  0
  -23.0281   13.5547  -12.7066 C   0  0  0  0  0  0  0  0  0  0  0  0
  -22.3684   13.2477  -13.8570 C   0  0  0  0  0  0  0  0  0  0  0  0
  -21.4783   12.1779  -13.9386 C   0  0  0  0  0  0  0  0  0  0  0  0
  -19.9832    9.6905  -12.5062 H   0  0  0  0  0  0  0  0  0  0  0  0
 60 61  1  0  0  0
 61 62  1  0  0  0
 61 59  1  0  0  0
 59 37  1  0  0  0
 37 33  1  0  0  0
 33 34  1  0  0  0
 34 35  2  0  0  0
 34  1  1  0  0  0
  1 63  1  0  0  0
 63 64  1  0  0  0
 64 65  2  0  0  0
 65 66  1  0  0  0
 66 67  1  0  0  0
 67 68  2  0  0  0
 68 69  1  0  0  0
 69 70  2  0  0  0
 70 71  1  0  0  0
 71 72  2  0  0  0
  1  2  1  0  0  0
  2  3  1  0  0  0
  3  4  2  0  0  0
  3  6  1  0  0  0
  6  7  1  0  0  0
  7  8  1  0  0  0
  8  9  2  0  0  0
  8 11  1  0  0  0
 11 12  1  0  0  0
 12 13  1  0  0  0
 13 14  1  0  0  0
 14 15  1  0  0  0
 15 16  1  0  0  0
 16 17  2  0  0  0
 16 18  1  0  0  0
 18 19  1  0  0  0
 18 22  1  0  0  0
 22 23  1  0  0  0
 23 24  1  0  0  0
 24 25  1  0  0  0
 25 26  2  0  0  0
 26 27  1  0  0  0
 26 28  1  0  0  0
 37 38  1  0  0  0
 38 39  2  0  0  0
 38 40  1  0  0  0
 40 42  1  0  0  0
 42 48  1  0  0  0
 48 49  1  0  0  0
 49 50  2  0  0  0
 50 51  1  0  0  0
 51 52  1  0  0  0
 52 53  2  0  0  0
 53 54  1  0  0  0
 54 55  2  0  0  0
 55 56  1  0  0  0
 56 57  2  0  0  0
 42 43  1  0  0  0
 43 44  1  0  0  0
 43 45  2  0  0  0
 72 64  1  0  0  0
 15 11  1  0  0  0
 57 49  1  0  0  0
 72 67  1  0  0  0
 57 52  1  0  0  0
 33 36  1  0  0  0
 66 73  1  0  0  0
  2  5  1  0  0  0
  7 10  1  0  0  0
 19 20  1  0  0  0
 19 21  1  0  0  0
 27 29  1  0  0  0
 27 30  1  0  0  0
 28 31  1  0  0  0
 28 32  1  0  0  0
 40 41  1  0  0  0
 51 58  1  0  0  0
 44 46  1  0  0  0
 44 47  1  0  0  0
M  END
> <minimizedAffinity>
-8.88948

> <CNNscore>
0.1342113614

> <CNNaffinity>
6.9192337990

> <CNN_VS>
0.9286397696

> <CNNaffinity_variance>
0.9080439806

$$$$
[H]c1c([H])c([H])c2c(c1[H])c(C1=C(c3c([H])n(C([H])([H])[H])c4c([H])c([H])c(Cl)c([H])c34)C(=O)N([H])C1=O)c([H])n2C([H])([H])[H]


 29 33  0  0  0  0  0  0  0  0999 V2000
  -17.4404   12.5495  -21.2407 C   0  0  0  0  0  0  0  0  0  0  0  0
  -17.0270   13.4488  -22.1347 C   0  0  0  0  0  0  0  0  0  0  0  0
  -16.0246   12.8367  -23.0000 C   0  0  0  0  0  0  0  0  0  0  0  0
  -15.3828   13.3159  -23.9649 O   0  0  0  0  0  0  0  0  0  0  0  0
  -15.8597   11.4996  -22.5614 N   0  0  0  0  0  0  0  0  0  0  0  0
  -16.7343   11.2928  -21.4594 C   0  0  0  0  0  0  0  0  0  0  0  0
  -16.8864   10.2405  -20.7866 O   0  0  0  0  0  0  0  0  0  0  0  0
  -15.2168   10.8001  -22.9701 H   0  0  0  0  0  0  0  0  0  0  0  0
  -21.0836   14.9012  -18.8510 C   0  0  0  0  0  0  0  0  0  0  0  0
  -20.0930   13.8878  -19.1500 N   0  0  0  0  0  0  0  0  0  0  0  0
  -19.2790   13.9188  -20.1892 C   0  0  0  0  0  0  0  0  0  0  0  0
  -18.4336   12.8021  -20.2110 C   0  0  0  0  0  0  0  0  0  0  0  0
  -18.7901   12.0799  -19.1039 C   0  0  0  0  0  0  0  0  0  0  0  0
  -18.3378   10.8979  -18.5939 C   0  0  0  0  0  0  0  0  0  0  0  0
  -18.9223   10.4077  -17.4300 C   0  0  0  0  0  0  0  0  0  0  0  0
  -18.3806    8.9088  -16.7441 Cl  0  0  0  0  0  0  0  0  0  0  0  0
  -19.9444   11.0974  -16.7923 C   0  0  0  0  0  0  0  0  0  0  0  0
  -20.3986   12.2883  -17.3101 C   0  0  0  0  0  0  0  0  0  0  0  0
  -19.8130   12.7600  -18.4591 C   0  0  0  0  0  0  0  0  0  0  0  0
  -17.5207   14.8090  -22.2724 C   0  0  0  0  0  0  0  0  0  0  0  0
  -18.5107   15.1866  -23.1535 C   0  0  0  0  0  0  0  0  0  0  0  0
  -18.7156   16.5033  -23.0009 N   0  0  0  0  0  0  0  0  0  0  0  0
  -19.6881   17.2830  -23.7571 C   0  0  0  0  0  0  0  0  0  0  0  0
  -17.9097   17.0004  -22.0663 C   0  0  0  0  0  0  0  0  0  0  0  0
  -17.7588   18.2737  -21.5670 C   0  0  0  0  0  0  0  0  0  0  0  0
  -16.8259   18.4938  -20.5738 C   0  0  0  0  0  0  0  0  0  0  0  0
  -16.0483   17.4809  -20.0733 C   0  0  0  0  0  0  0  0  0  0  0  0
  -16.2159   16.1955  -20.5931 C   0  0  0  0  0  0  0  0  0  0  0  0
  -17.1353   15.9446  -21.5825 C   0  0  0  0  0  0  0  0  0  0  0  0
  9 10  1  0  0  0
 10 11  1  0  0  0
 11 12  2  0  0  0
 12  1  1  0  0  0
  1  2  2  0  0  0
  2  3  1  0  0  0
  3  4  2  0  0  0
  3  5  1  0  0  0
  5  6  1  0  0  0
  6  7  2  0  0  0
  2 20  1  0  0  0
 20 21  2  0  0  0
 21 22  1  0  0  0
 22 23  1  0  0  0
 22 24  1  0  0  0
 24 25  2  0  0  0
 25 26  1  0  0  0
 26 27  2  0  0  0
 27 28  1  0  0  0
 28 29  2  0  0  0
 12 13  1  0  0  0
 13 14  2  0  0  0
 14 15  1  0  0  0
 15 16  1  0  0  0
 15 17  2  0  0  0
 17 18  1  0  0  0
 18 19  2  0  0  0
 19 10  1  0  0  0
  6  1  1  0  0  0
 29 20  1  0  0  0
 19 13  1  0  0  0
 29 24  1  0  0  0
  5  8  1  0  0  0
M  END
> <minimizedAffinity>
-9.25595

> <CNNscore>
0.7396304607

> <CNNaffinity>
7.0401368141

> <CNN_VS>
5.2070994377

> <CNNaffinity_variance>
0.1236705631

$$$$
[H]c1c([H])c([H])c2c(c1[H])c(C1=C(c3c([H])n(C([H])([H])[H])c4c([H])c([H])c(Cl)c([H])c34)C(=O)N([H])C1=O)c([H])n2C([H])([H])[H]


 29 33  0  0  0  0  0  0  0  0999 V2000
  -17.0461   12.0089  -20.8085 C   0  0  0  0  0  0  0  0  0  0  0  0
  -17.9547   11.7095  -19.8791 C   0  0  0  0  0  0  0  0  0  0  0  0
  -17.6672   10.3852  -19.3388 C   0  0  0  0  0  0  0  0  0  0  0  0
  -18.2595    9.7228  -18.4540 O   0  0  0  0  0  0  0  0  0  0  0  0
  -16.5177    9.9036  -20.0126 N   0  0  0  0  0  0  0  0  0  0  0  0
  -16.1080   10.9007  -20.9400 C   0  0  0  0  0  0  0  0  0  0  0  0
  -15.1310   10.8582  -21.7318 O   0  0  0  0  0  0  0  0  0  0  0  0
  -16.0598    8.9893  -19.8574 H   0  0  0  0  0  0  0  0  0  0  0  0
  -16.7068   16.8769  -21.6462 C   0  0  0  0  0  0  0  0  0  0  0  0
  -16.8517   15.4621  -21.9202 N   0  0  0  0  0  0  0  0  0  0  0  0
  -16.8587   14.5169  -20.9982 C   0  0  0  0  0  0  0  0  0  0  0  0
  -17.0161   13.2470  -21.5680 C   0  0  0  0  0  0  0  0  0  0  0  0
  -17.1054   13.4831  -22.9137 C   0  0  0  0  0  0  0  0  0  0  0  0
  -17.2565   12.6503  -23.9838 C   0  0  0  0  0  0  0  0  0  0  0  0
  -17.3051   13.2063  -25.2587 C   0  0  0  0  0  0  0  0  0  0  0  0
  -17.4962   12.1874  -26.6501 Cl  0  0  0  0  0  0  0  0  0  0  0  0
  -17.2031   14.5774  -25.4502 C   0  0  0  0  0  0  0  0  0  0  0  0
  -17.0496   15.4138  -24.3688 C   0  0  0  0  0  0  0  0  0  0  0  0
  -17.0030   14.8516  -23.1168 C   0  0  0  0  0  0  0  0  0  0  0  0
  -19.0346   12.5715  -19.4279 C   0  0  0  0  0  0  0  0  0  0  0  0
  -19.7142   13.4504  -20.2432 C   0  0  0  0  0  0  0  0  0  0  0  0
  -20.6433   14.0670  -19.4979 N   0  0  0  0  0  0  0  0  0  0  0  0
  -21.5706   15.0748  -19.9976 C   0  0  0  0  0  0  0  0  0  0  0  0
  -20.6021   13.6340  -18.2405 C   0  0  0  0  0  0  0  0  0  0  0  0
  -21.3474   13.9630  -17.1316 C   0  0  0  0  0  0  0  0  0  0  0  0
  -21.0761   13.3310  -15.9349 C   0  0  0  0  0  0  0  0  0  0  0  0
  -20.0870   12.3876  -15.8222 C   0  0  0  0  0  0  0  0  0  0  0  0
  -19.3412   12.0675  -16.9587 C   0  0  0  0  0  0  0  0  0  0  0  0
  -19.5865   12.6794  -18.1639 C   0  0  0  0  0  0  0  0  0  0  0  0
  9 10  1  0  0  0
 10 11  1  0  0  0
 11 12  2  0  0  0
 12  1  1  0  0  0
  1  2  2  0  0  0
  2  3  1  0  0  0
  3  4  2  0  0  0
  3  5  1  0  0  0
  5  6  1  0  0  0
  6  7  2  0  0  0
  2 20  1  0  0  0
 20 21  2  0  0  0
 21 22  1  0  0  0
 22 23  1  0  0  0
 22 24  1  0  0  0
 24 25  2  0  0  0
 25 26  1  0  0  0
 26 27  2  0  0  0
 27 28  1  0  0  0
 28 29  2  0  0  0
 12 13  1  0  0  0
 13 14  2  0  0  0
 14 15  1  0  0  0
 15 16  1  0  0  0
 15 17  2  0  0  0
 17 18  1  0  0  0
 18 19  2  0  0  0
 19 10  1  0  0  0
  6  1  1  0  0  0
 29 20  1  0  0  0
 19 13  1  0  0  0
 29 24  1  0  0  0
  5  8  1  0  0  0
M  END
> <minimizedAffinity>
-9.20832

> <CNNscore>
0.6859084964

> <CNNaffinity>
6.9184675217

> <CNN_VS>
4.7454357147

> <CNNaffinity_variance>
0.1217236146

$$$$
[H]c1c([H])c([H])c2c(c1[H])c(C1=C(c3c([H])n(C([H])([H])[H])c4c([H])c([H])c(Cl)c([H])c34)C(=O)N([H])C1=O)c([H])n2C([H])([H])[H]


 29 33  0  0  0  0  0  0  0  0999 V2000
  -17.6658   12.9886  -20.0261 C   0  0  0  0  0  0  0  0  0  0  0  0
  -18.4409   13.0950  -18.9458 C   0  0  0  0  0  0  0  0  0  0  0  0
  -18.5246   11.7957  -18.2878 C   0  0  0  0  0  0  0  0  0  0  0  0
  -19.1374   11.4487  -17.2502 O   0  0  0  0  0  0  0  0  0  0  0  0
  -17.7441   10.8934  -19.0519 N   0  0  0  0  0  0  0  0  0  0  0  0
  -17.1950   11.6142  -20.1479 C   0  0  0  0  0  0  0  0  0  0  0  0
  -16.4472   11.1742  -21.0591 O   0  0  0  0  0  0  0  0  0  0  0  0
  -17.6009    9.8895  -18.8484 H   0  0  0  0  0  0  0  0  0  0  0  0
  -16.3060   17.5301  -21.4543 C   0  0  0  0  0  0  0  0  0  0  0  0
  -16.7291   16.1486  -21.5544 N   0  0  0  0  0  0  0  0  0  0  0  0
  -16.9610   15.3590  -20.5217 C   0  0  0  0  0  0  0  0  0  0  0  0
  -17.3567   14.0800  -20.9337 C   0  0  0  0  0  0  0  0  0  0  0  0
  -17.3504   14.1426  -22.3014 C   0  0  0  0  0  0  0  0  0  0  0  0
  -17.6335   13.2181  -23.2641 C   0  0  0  0  0  0  0  0  0  0  0  0
  -17.5241   13.5928  -24.5999 C   0  0  0  0  0  0  0  0  0  0  0  0
  -17.8737   12.4515  -25.8593 Cl  0  0  0  0  0  0  0  0  0  0  0  0
  -17.1363   14.8767  -24.9578 C   0  0  0  0  0  0  0  0  0  0  0  0
  -16.8506   15.8058  -23.9843 C   0  0  0  0  0  0  0  0  0  0  0  0
  -16.9625   15.4224  -22.6705 C   0  0  0  0  0  0  0  0  0  0  0  0
  -19.0686   14.3122  -18.4586 C   0  0  0  0  0  0  0  0  0  0  0  0
  -18.6770   14.9813  -17.3194 C   0  0  0  0  0  0  0  0  0  0  0  0
  -19.4651   16.0582  -17.1845 N   0  0  0  0  0  0  0  0  0  0  0  0
  -19.3674   17.0248  -16.0975 C   0  0  0  0  0  0  0  0  0  0  0  0
  -20.3484   16.1230  -18.1773 C   0  0  0  0  0  0  0  0  0  0  0  0
  -21.3418   17.0308  -18.4643 C   0  0  0  0  0  0  0  0  0  0  0  0
  -22.1146   16.8388  -19.5917 C   0  0  0  0  0  0  0  0  0  0  0  0
  -21.9194   15.7711  -20.4302 C   0  0  0  0  0  0  0  0  0  0  0  0
  -20.9066   14.8604  -20.1219 C   0  0  0  0  0  0  0  0  0  0  0  0
  -20.1211   15.0235  -19.0068 C   0  0  0  0  0  0  0  0  0  0  0  0
  9 10  1  0  0  0
 10 11  1  0  0  0
 11 12  2  0  0  0
 12  1  1  0  0  0
  1  2  2  0  0  0
  2  3  1  0  0  0
  3  4  2  0  0  0
  3  5  1  0  0  0
  5  6  1  0  0  0
  6  7  2  0  0  0
  2 20  1  0  0  0
 20 21  2  0  0  0
 21 22  1  0  0  0
 22 23  1  0  0  0
 22 24  1  0  0  0
 24 25  2  0  0  0
 25 26  1  0  0  0
 26 27  2  0  0  0
 27 28  1  0  0  0
 28 29  2  0  0  0
 12 13  1  0  0  0
 13 14  2  0  0  0
 14 15  1  0  0  0
 15 16  1  0  0  0
 15 17  2  0  0  0
 17 18  1  0  0  0
 18 19  2  0  0  0
 19 10  1  0  0  0
  6  1  1  0  0  0
 29 20  1  0  0  0
 19 13  1  0  0  0
 29 24  1  0  0  0
  5  8  1  0  0  0
M  END
> <minimizedAffinity>
-8.77456

> <CNNscore>
0.6400089264

> <CNNaffinity>
6.8549065590

> <CNN_VS>
4.3872013092

> <CNNaffinity_variance>
0.1718386412

$$$$
[H]c1c([H])c([H])c2c(c1[H])c(C1=C(c3c([H])n(C([H])([H])[H])c4c([H])c([H])c(Cl)c([H])c34)C(=O)N([H])C1=O)c([H])n2C([H])([H])[H]


 29 33  0  0  0  0  0  0  0  0999 V2000
  -17.6428   12.3933  -20.4934 C   0  0  0  0  0  0  0  0  0  0  0  0
  -18.5036   12.7045  -19.5233 C   0  0  0  0  0  0  0  0  0  0  0  0
  -18.4467   11.6795  -18.4868 C   0  0  0  0  0  0  0  0  0  0  0  0
  -19.0785   11.5791  -17.4082 O   0  0  0  0  0  0  0  0  0  0  0  0
  -17.4886   10.7224  -18.9030 N   0  0  0  0  0  0  0  0  0  0  0  0
  -16.9696   11.1443  -20.1579 C   0  0  0  0  0  0  0  0  0  0  0  0
  -16.0999   10.5689  -20.8620 O   0  0  0  0  0  0  0  0  0  0  0  0
  -17.2167    9.8689  -18.3858 H   0  0  0  0  0  0  0  0  0  0  0  0
  -17.4855   13.4500  -25.3279 C   0  0  0  0  0  0  0  0  0  0  0  0
  -17.3730   13.6371  -23.8961 N   0  0  0  0  0  0  0  0  0  0  0  0
  -17.6269   12.7048  -22.9962 C   0  0  0  0  0  0  0  0  0  0  0  0
  -17.4284   13.1822  -21.6943 C   0  0  0  0  0  0  0  0  0  0  0  0
  -17.0325   14.4821  -21.8619 C   0  0  0  0  0  0  0  0  0  0  0  0
  -16.7033   15.4634  -20.9729 C   0  0  0  0  0  0  0  0  0  0  0  0
  -16.3424   16.7141  -21.4652 C   0  0  0  0  0  0  0  0  0  0  0  0
  -15.9158   17.9934  -20.3733 Cl  0  0  0  0  0  0  0  0  0  0  0  0
  -16.3141   16.9699  -22.8293 C   0  0  0  0  0  0  0  0  0  0  0  0
  -16.6478   15.9782  -23.7225 C   0  0  0  0  0  0  0  0  0  0  0  0
  -17.0021   14.7492  -23.2229 C   0  0  0  0  0  0  0  0  0  0  0  0
  -19.3360   13.8948  -19.4663 C   0  0  0  0  0  0  0  0  0  0  0  0
  -20.4196   14.1203  -20.2872 C   0  0  0  0  0  0  0  0  0  0  0  0
  -20.9521   15.3037  -19.9484 N   0  0  0  0  0  0  0  0  0  0  0  0
  -22.1182   15.9006  -20.5881 C   0  0  0  0  0  0  0  0  0  0  0  0
  -20.2702   15.8585  -18.9497 C   0  0  0  0  0  0  0  0  0  0  0  0
  -20.4360   17.0449  -18.2728 C   0  0  0  0  0  0  0  0  0  0  0  0
  -19.5581   17.3600  -17.2554 C   0  0  0  0  0  0  0  0  0  0  0  0
  -18.5286   16.5251  -16.9028 C   0  0  0  0  0  0  0  0  0  0  0  0
  -18.3765   15.3257  -17.6017 C   0  0  0  0  0  0  0  0  0  0  0  0
  -19.2334   14.9841  -18.6197 C   0  0  0  0  0  0  0  0  0  0  0  0
  9 10  1  0  0  0
 10 11  1  0  0  0
 11 12  2  0  0  0
 12  1  1  0  0  0
  1  2  2  0  0  0
  2  3  1  0  0  0
  3  4  2  0  0  0
  3  5  1  0  0  0
  5  6  1  0  0  0
  6  7  2  0  0  0
  2 20  1  0  0  0
 20 21  2  0  0  0
 21 22  1  0  0  0
 22 23  1  0  0  0
 22 24  1  0  0  0
 24 25  2  0  0  0
 25 26  1  0  0  0
 26 27  2  0  0  0
 27 28  1  0  0  0
 28 29  2  0  0  0
 12 13  1  0  0  0
 13 14  2  0  0  0
 14 15  1  0  0  0
 15 16  1  0  0  0
 15 17  2  0  0  0
 17 18  1  0  0  0
 18 19  2  0  0  0
 19 10  1  0  0  0
  6  1  1  0  0  0
 29 20  1  0  0  0
 19 13  1  0  0  0
 29 24  1  0  0  0
  5  8  1  0  0  0
M  END
> <minimizedAffinity>
-8.76671

> <CNNscore>
0.6317563057

> <CNNaffinity>
6.8870096207

> <CNN_VS>
4.3509116173

> <CNNaffinity_variance>
0.2055865824

$$$$
[H]c1c([H])c([H])c2c(c1[H])c(C1=C(c3c([H])n(C([H])([H])[H])c4c([H])c([H])c(Cl)c([H])c34)C(=O)N([H])C1=O)c([H])n2C([H])([H])[H]


 29 33  0  0  0  0  0  0  0  0999 V2000
  -17.8150   12.9150  -20.6345 C   0  0  0  0  0  0  0  0  0  0  0  0
  -16.9500   12.6604  -21.6173 C   0  0  0  0  0  0  0  0  0  0  0  0
  -16.3300   11.3607  -21.3834 C   0  0  0  0  0  0  0  0  0  0  0  0
  -15.4719   10.7379  -22.0530 O   0  0  0  0  0  0  0  0  0  0  0  0
  -16.8823   10.8481  -20.1837 N   0  0  0  0  0  0  0  0  0  0  0  0
  -17.8153   11.8022  -19.6925 C   0  0  0  0  0  0  0  0  0  0  0  0
  -18.5158   11.7253  -18.6500 O   0  0  0  0  0  0  0  0  0  0  0  0
  -16.6473    9.9419  -19.7441 H   0  0  0  0  0  0  0  0  0  0  0  0
  -21.8897   15.7081  -20.3036 C   0  0  0  0  0  0  0  0  0  0  0  0
  -20.4841   15.3657  -20.3733 N   0  0  0  0  0  0  0  0  0  0  0  0
  -20.0170   14.1358  -20.4853 C   0  0  0  0  0  0  0  0  0  0  0  0
  -18.6170   14.1218  -20.5297 C   0  0  0  0  0  0  0  0  0  0  0  0
  -18.2573   15.4396  -20.4361 C   0  0  0  0  0  0  0  0  0  0  0  0
  -17.0425   16.0604  -20.4155 C   0  0  0  0  0  0  0  0  0  0  0  0
  -17.0052   17.4468  -20.2996 C   0  0  0  0  0  0  0  0  0  0  0  0
  -15.4838   18.2806  -20.2689 Cl  0  0  0  0  0  0  0  0  0  0  0  0
  -18.1720   18.1929  -20.2062 C   0  0  0  0  0  0  0  0  0  0  0  0
  -19.3950   17.5632  -20.2262 C   0  0  0  0  0  0  0  0  0  0  0  0
  -19.4170   16.1950  -20.3408 C   0  0  0  0  0  0  0  0  0  0  0  0
  -16.6905   13.5064  -22.7704 C   0  0  0  0  0  0  0  0  0  0  0  0
  -16.0667   14.7334  -22.7042 C   0  0  0  0  0  0  0  0  0  0  0  0
  -15.9872   15.2212  -23.9510 N   0  0  0  0  0  0  0  0  0  0  0  0
  -15.3912   16.5047  -24.3015 C   0  0  0  0  0  0  0  0  0  0  0  0
  -16.5272   14.3744  -24.8236 C   0  0  0  0  0  0  0  0  0  0  0  0
  -16.6740   14.4343  -26.1904 C   0  0  0  0  0  0  0  0  0  0  0  0
  -17.2826   13.3808  -26.8422 C   0  0  0  0  0  0  0  0  0  0  0  0
  -17.7432   12.2800  -26.1660 C   0  0  0  0  0  0  0  0  0  0  0  0
  -17.5854   12.2377  -24.7790 C   0  0  0  0  0  0  0  0  0  0  0  0
  -16.9846   13.2708  -24.1016 C   0  0  0  0  0  0  0  0  0  0  0  0
  9 10  1  0  0  0
 10 11  1  0  0  0
 11 12  2  0  0  0
 12  1  1  0  0  0
  1  2  2  0  0  0
  2  3  1  0  0  0
  3  4  2  0  0  0
  3  5  1  0  0  0
  5  6  1  0  0  0
  6  7  2  0  0  0
  2 20  1  0  0  0
 20 21  2  0  0  0
 21 22  1  0  0  0
 22 23  1  0  0  0
 22 24  1  0  0  0
 24 25  2  0  0  0
 25 26  1  0  0  0
 26 27  2  0  0  0
 27 28  1  0  0  0
 28 29  2  0  0  0
 12 13  1  0  0  0
 13 14  2  0  0  0
 14 15  1  0  0  0
 15 16  1  0  0  0
 15 17  2  0  0  0
 17 18  1  0  0  0
 18 19  2  0  0  0
 19 10  1  0  0  0
  6  1  1  0  0  0
 29 20  1  0  0  0
 19 13  1  0  0  0
 29 24  1  0  0  0
  5  8  1  0  0  0
M  END
> <minimizedAffinity>
-9.05767

> <CNNscore>
0.5431367159

> <CNNaffinity>
7.0317201614

> <CNN_VS>
3.8191854954

> <CNNaffinity_variance>
0.2192675322

$$$$
[H]c1c([H])c([H])c2c(c1[H])c(C1=C(c3c([H])n(C([H])([H])[H])c4c([H])c([H])c(Cl)c([H])c34)C(=O)N([H])C1=O)c([H])n2C([H])([H])[H]


 29 33  0  0  0  0  0  0  0  0999 V2000
  -17.4475   12.4661  -20.2259 C   0  0  0  0  0  0  0  0  0  0  0  0
  -16.7529   11.9692  -21.2505 C   0  0  0  0  0  0  0  0  0  0  0  0
  -15.9940   10.8093  -20.7956 C   0  0  0  0  0  0  0  0  0  0  0  0
  -15.2195   10.0484  -21.4231 O   0  0  0  0  0  0  0  0  0  0  0  0
  -16.2789   10.6422  -19.4179 N   0  0  0  0  0  0  0  0  0  0  0  0
  -17.1865   11.6676  -19.0344 C   0  0  0  0  0  0  0  0  0  0  0  0
  -17.6812   11.8687  -17.8950 O   0  0  0  0  0  0  0  0  0  0  0  0
  -15.8940    9.9060  -18.8018 H   0  0  0  0  0  0  0  0  0  0  0  0
  -21.6751   15.0415  -20.3193 C   0  0  0  0  0  0  0  0  0  0  0  0
  -20.2519   14.7730  -20.3338 N   0  0  0  0  0  0  0  0  0  0  0  0
  -19.7157   13.5684  -20.2635 C   0  0  0  0  0  0  0  0  0  0  0  0
  -18.3167   13.6278  -20.3011 C   0  0  0  0  0  0  0  0  0  0  0  0
  -18.0321   14.9634  -20.3998 C   0  0  0  0  0  0  0  0  0  0  0  0
  -16.8542   15.6486  -20.4662 C   0  0  0  0  0  0  0  0  0  0  0  0
  -16.8955   17.0369  -20.5539 C   0  0  0  0  0  0  0  0  0  0  0  0
  -15.4235   17.9515  -20.6406 Cl  0  0  0  0  0  0  0  0  0  0  0  0
  -18.1031   17.7212  -20.5741 C   0  0  0  0  0  0  0  0  0  0  0  0
  -19.2888   17.0268  -20.5058 C   0  0  0  0  0  0  0  0  0  0  0  0
  -19.2331   15.6575  -20.4194 C   0  0  0  0  0  0  0  0  0  0  0  0
  -16.7749   12.4601  -22.6184 C   0  0  0  0  0  0  0  0  0  0  0  0
  -17.7522   12.1445  -23.5373 C   0  0  0  0  0  0  0  0  0  0  0  0
  -17.4591   12.7784  -24.6824 N   0  0  0  0  0  0  0  0  0  0  0  0
  -18.2558   12.6981  -25.9006 C   0  0  0  0  0  0  0  0  0  0  0  0
  -16.3419   13.4895  -24.5546 C   0  0  0  0  0  0  0  0  0  0  0  0
  -15.6595   14.2936  -25.4384 C   0  0  0  0  0  0  0  0  0  0  0  0
  -14.5066   14.9226  -25.0135 C   0  0  0  0  0  0  0  0  0  0  0  0
  -14.0251   14.7679  -23.7386 C   0  0  0  0  0  0  0  0  0  0  0  0
  -14.7314   13.9476  -22.8563 C   0  0  0  0  0  0  0  0  0  0  0  0
  -15.8815   13.3073  -23.2494 C   0  0  0  0  0  0  0  0  0  0  0  0
  9 10  1  0  0  0
 10 11  1  0  0  0
 11 12  2  0  0  0
 12  1  1  0  0  0
  1  2  2  0  0  0
  2  3  1  0  0  0
  3  4  2  0  0  0
  3  5  1  0  0  0
  5  6  1  0  0  0
  6  7  2  0  0  0
  2 20  1  0  0  0
 20 21  2  0  0  0
 21 22  1  0  0  0
 22 23  1  0  0  0
 22 24  1  0  0  0
 24 25  2  0  0  0
 25 26  1  0  0  0
 26 27  2  0  0  0
 27 28  1  0  0  0
 28 29  2  0  0  0
 12 13  1  0  0  0
 13 14  2  0  0  0
 14 15  1  0  0  0
 15 16  1  0  0  0
 15 17  2  0  0  0
 17 18  1  0  0  0
 18 19  2  0  0  0
 19 10  1  0  0  0
  6  1  1  0  0  0
 29 20  1  0  0  0
 19 13  1  0  0  0
 29 24  1  0  0  0
  5  8  1  0  0  0
M  END
> <minimizedAffinity>
-8.08221

> <CNNscore>
0.5364894867

> <CNNaffinity>
6.9098510742

> <CNN_VS>
3.7070624828

> <CNNaffinity_variance>
0.2156831771

$$$$
[H]c1c([H])c([H])c2c(c1[H])c(C1=C(c3c([H])n(C([H])([H])[H])c4c([H])c([H])c(Cl)c([H])c34)C(=O)N([H])C1=O)c([H])n2C([H])([H])[H]


 29 33  0  0  0  0  0  0  0  0999 V2000
  -17.9285   11.7375  -19.9390 C   0  0  0  0  0  0  0  0  0  0  0  0
  -17.0695   12.0696  -20.9037 C   0  0  0  0  0  0  0  0  0  0  0  0
  -16.1350   10.9688  -21.1113 C   0  0  0  0  0  0  0  0  0  0  0  0
  -15.1774   10.8565  -21.9132 O   0  0  0  0  0  0  0  0  0  0  0  0
  -16.4906    9.9457  -20.1980 N   0  0  0  0  0  0  0  0  0  0  0  0
  -17.6110   10.4012  -19.4500 C   0  0  0  0  0  0  0  0  0  0  0  0
  -18.2254    9.7899  -18.5379 O   0  0  0  0  0  0  0  0  0  0  0  0
  -16.0182    9.0315  -20.0942 H   0  0  0  0  0  0  0  0  0  0  0  0
  -21.4939   15.1691  -20.1000 C   0  0  0  0  0  0  0  0  0  0  0  0
  -20.6200   14.1480  -19.5602 N   0  0  0  0  0  0  0  0  0  0  0  0
  -19.6834   13.5223  -20.2491 C   0  0  0  0  0  0  0  0  0  0  0  0
  -19.0015   12.5899  -19.4567 C   0  0  0  0  0  0  0  0  0  0  0  0
  -19.5912   12.6896  -18.2251 C   0  0  0  0  0  0  0  0  0  0  0  0
  -19.3723   12.0372  -17.0469 C   0  0  0  0  0  0  0  0  0  0  0  0
  -20.1618   12.3637  -15.9483 C   0  0  0  0  0  0  0  0  0  0  0  0
  -19.9205   11.5609  -14.4291 Cl  0  0  0  0  0  0  0  0  0  0  0  0
  -21.1538   13.3306  -16.0369 C   0  0  0  0  0  0  0  0  0  0  0  0
  -21.3723   13.9855  -17.2268 C   0  0  0  0  0  0  0  0  0  0  0  0
  -20.5862   13.6532  -18.3026 C   0  0  0  0  0  0  0  0  0  0  0  0
  -17.0785   13.3042  -21.6708 C   0  0  0  0  0  0  0  0  0  0  0  0
  -16.9258   14.5579  -21.1196 C   0  0  0  0  0  0  0  0  0  0  0  0
  -16.9746   15.4535  -22.1168 N   0  0  0  0  0  0  0  0  0  0  0  0
  -16.8518   16.8956  -21.9414 C   0  0  0  0  0  0  0  0  0  0  0  0
  -17.1512   14.8462  -23.2873 C   0  0  0  0  0  0  0  0  0  0  0  0
  -17.2578   15.3360  -24.5687 C   0  0  0  0  0  0  0  0  0  0  0  0
  -17.4347   14.4469  -25.6095 C   0  0  0  0  0  0  0  0  0  0  0  0
  -17.5069   13.0932  -25.4011 C   0  0  0  0  0  0  0  0  0  0  0  0
  -17.3969   12.6153  -24.0934 C   0  0  0  0  0  0  0  0  0  0  0  0
  -17.2211   13.4748  -23.0363 C   0  0  0  0  0  0  0  0  0  0  0  0
  9 10  1  0  0  0
 10 11  1  0  0  0
 11 12  2  0  0  0
 12  1  1  0  0  0
  1  2  2  0  0  0
  2  3  1  0  0  0
  3  4  2  0  0  0
  3  5  1  0  0  0
  5  6  1  0  0  0
  6  7  2  0  0  0
  2 20  1  0  0  0
 20 21  2  0  0  0
 21 22  1  0  0  0
 22 23  1  0  0  0
 22 24  1  0  0  0
 24 25  2  0  0  0
 25 26  1  0  0  0
 26 27  2  0  0  0
 27 28  1  0  0  0
 28 29  2  0  0  0
 12 13  1  0  0  0
 13 14  2  0  0  0
 14 15  1  0  0  0
 15 16  1  0  0  0
 15 17  2  0  0  0
 17 18  1  0  0  0
 18 19  2  0  0  0
 19 10  1  0  0  0
  6  1  1  0  0  0
 29 20  1  0  0  0
 19 13  1  0  0  0
 29 24  1  0  0  0
  5  8  1  0  0  0
M  END
> <minimizedAffinity>
-9.10940

> <CNNscore>
0.5251876712

> <CNNaffinity>
6.7352347374

> <CNN_VS>
3.5372622013

> <CNNaffinity_variance>
0.1556428224

$$$$
[H]c1c([H])c([H])c2c(c1[H])c(C1=C(c3c([H])n(C([H])([H])[H])c4c([H])c([H])c(Cl)c([H])c34)C(=O)N([H])C1=O)c([H])n2C([H])([H])[H]


 29 33  0  0  0  0  0  0  0  0999 V2000
  -17.8822   11.6882  -19.8102 C   0  0  0  0  0  0  0  0  0  0  0  0
  -17.1066   11.9137  -20.8715 C   0  0  0  0  0  0  0  0  0  0  0  0
  -16.1165   10.8473  -20.9752 C   0  0  0  0  0  0  0  0  0  0  0  0
  -15.2039   10.6652  -21.8157 O   0  0  0  0  0  0  0  0  0  0  0  0
  -16.3488    9.9600  -19.8953 N   0  0  0  0  0  0  0  0  0  0  0  0
  -17.4493   10.4634  -19.1485 C   0  0  0  0  0  0  0  0  0  0  0  0
  -17.9663    9.9677  -18.1139 O   0  0  0  0  0  0  0  0  0  0  0  0
  -15.8124    9.1005  -19.6879 H   0  0  0  0  0  0  0  0  0  0  0  0
  -21.4789   15.0693  -20.1925 C   0  0  0  0  0  0  0  0  0  0  0  0
  -20.6094   14.0786  -19.5925 N   0  0  0  0  0  0  0  0  0  0  0  0
  -19.6471   13.4398  -20.2325 C   0  0  0  0  0  0  0  0  0  0  0  0
  -18.9775   12.5445  -19.3886 C   0  0  0  0  0  0  0  0  0  0  0  0
  -19.6024   12.6809  -18.1780 C   0  0  0  0  0  0  0  0  0  0  0  0
  -19.4094   12.0736  -16.9716 C   0  0  0  0  0  0  0  0  0  0  0  0
  -20.2327   12.4296  -15.9076 C   0  0  0  0  0  0  0  0  0  0  0  0
  -20.0252   11.6844  -14.3544 Cl  0  0  0  0  0  0  0  0  0  0  0  0
  -21.2323   13.3810  -16.0581 C   0  0  0  0  0  0  0  0  0  0  0  0
  -21.4246   13.9904  -17.2764 C   0  0  0  0  0  0  0  0  0  0  0  0
  -20.6052   13.6293  -18.3175 C   0  0  0  0  0  0  0  0  0  0  0  0
  -17.2425   13.0122  -21.8137 C   0  0  0  0  0  0  0  0  0  0  0  0
  -17.5887   12.8561  -23.1384 C   0  0  0  0  0  0  0  0  0  0  0  0
  -17.6295   14.0742  -23.6983 N   0  0  0  0  0  0  0  0  0  0  0  0
  -17.9588   14.3330  -25.0947 C   0  0  0  0  0  0  0  0  0  0  0  0
  -17.3276   15.0134  -22.8057 C   0  0  0  0  0  0  0  0  0  0  0  0
  -17.2443   16.3831  -22.9070 C   0  0  0  0  0  0  0  0  0  0  0  0
  -16.9074   17.1150  -21.7862 C   0  0  0  0  0  0  0  0  0  0  0  0
  -16.6543   16.5154  -20.5789 C   0  0  0  0  0  0  0  0  0  0  0  0
  -16.7436   15.1241  -20.4961 C   0  0  0  0  0  0  0  0  0  0  0  0
  -17.0759   14.3679  -21.5938 C   0  0  0  0  0  0  0  0  0  0  0  0
  9 10  1  0  0  0
 10 11  1  0  0  0
 11 12  2  0  0  0
 12  1  1  0  0  0
  1  2  2  0  0  0
  2  3  1  0  0  0
  3  4  2  0  0  0
  3  5  1  0  0  0
  5  6  1  0  0  0
  6  7  2  0  0  0
  2 20  1  0  0  0
 20 21  2  0  0  0
 21 22  1  0  0  0
 22 23  1  0  0  0
 22 24  1  0  0  0
 24 25  2  0  0  0
 25 26  1  0  0  0
 26 27  2  0  0  0
 27 28  1  0  0  0
 28 29  2  0  0  0
 12 13  1  0  0  0
 13 14  2  0  0  0
 14 15  1  0  0  0
 15 16  1  0  0  0
 15 17  2  0  0  0
 17 18  1  0  0  0
 18 19  2  0  0  0
 19 10  1  0  0  0
  6  1  1  0  0  0
 29 20  1  0  0  0
 19 13  1  0  0  0
 29 24  1  0  0  0
  5  8  1  0  0  0
M  END
> <minimizedAffinity>
-9.01922

> <CNNscore>
0.5156829953

> <CNNaffinity>
6.6872801781

> <CNN_VS>
3.4485166073

> <CNNaffinity_variance>
0.1617526114

$$$$
[H]c1c([H])c([H])c2c(c1[H])c(C1=C(c3c([H])n(C([H])([H])[H])c4c([H])c([H])c(Cl)c([H])c34)C(=O)N([H])C1=O)c([H])n2C([H])([H])[H]


 29 33  0  0  0  0  0  0  0  0999 V2000
  -17.6671   12.9514  -20.5921 C   0  0  0  0  0  0  0  0  0  0  0  0
  -18.6527   13.0466  -19.6985 C   0  0  0  0  0  0  0  0  0  0  0  0
  -18.7216   11.8090  -18.9293 C   0  0  0  0  0  0  0  0  0  0  0  0
  -19.4896   11.4742  -17.9962 O   0  0  0  0  0  0  0  0  0  0  0  0
  -17.7054   10.9556  -19.4257 N   0  0  0  0  0  0  0  0  0  0  0  0
  -17.0296   11.6460  -20.4691 C   0  0  0  0  0  0  0  0  0  0  0  0
  -16.0674   11.2322  -21.1664 O   0  0  0  0  0  0  0  0  0  0  0  0
  -17.4945   10.0007  -19.0890 H   0  0  0  0  0  0  0  0  0  0  0  0
  -16.1936   17.4019  -22.1844 C   0  0  0  0  0  0  0  0  0  0  0  0
  -16.6267   16.0208  -22.2337 N   0  0  0  0  0  0  0  0  0  0  0  0
  -16.9144   15.2872  -21.1742 C   0  0  0  0  0  0  0  0  0  0  0  0
  -17.3047   13.9922  -21.5387 C   0  0  0  0  0  0  0  0  0  0  0  0
  -17.2349   13.9845  -22.9060 C   0  0  0  0  0  0  0  0  0  0  0  0
  -17.4836   13.0143  -23.8326 C   0  0  0  0  0  0  0  0  0  0  0  0
  -17.3088   13.3192  -25.1792 C   0  0  0  0  0  0  0  0  0  0  0  0
  -17.6126   12.1179  -26.3938 Cl  0  0  0  0  0  0  0  0  0  0  0  0
  -16.8909   14.5797  -25.5834 C   0  0  0  0  0  0  0  0  0  0  0  0
  -16.6402   15.5550  -24.6461 C   0  0  0  0  0  0  0  0  0  0  0  0
  -16.8165   15.2403  -23.3212 C   0  0  0  0  0  0  0  0  0  0  0  0
  -19.4994   14.2073  -19.4777 C   0  0  0  0  0  0  0  0  0  0  0  0
  -20.5716   14.5448  -20.2748 C   0  0  0  0  0  0  0  0  0  0  0  0
  -21.1231   15.6588  -19.7710 N   0  0  0  0  0  0  0  0  0  0  0  0
  -22.2851   16.3353  -20.3344 C   0  0  0  0  0  0  0  0  0  0  0  0
  -20.4643   16.0622  -18.6877 C   0  0  0  0  0  0  0  0  0  0  0  0
  -20.6549   17.1312  -17.8426 C   0  0  0  0  0  0  0  0  0  0  0  0
  -19.7977   17.2966  -16.7735 C   0  0  0  0  0  0  0  0  0  0  0  0
  -18.7649   16.4270  -16.5322 C   0  0  0  0  0  0  0  0  0  0  0  0
  -18.5875   15.3483  -17.4013 C   0  0  0  0  0  0  0  0  0  0  0  0
  -19.4233   15.1570  -18.4746 C   0  0  0  0  0  0  0  0  0  0  0  0
  9 10  1  0  0  0
 10 11  1  0  0  0
 11 12  2  0  0  0
 12  1  1  0  0  0
  1  2  2  0  0  0
  2  3  1  0  0  0
  3  4  2  0  0  0
  3  5  1  0  0  0
  5  6  1  0  0  0
  6  7  2  0  0  0
  2 20  1  0  0  0
 20 21  2  0  0  0
 21 22  1  0  0  0
 22 23  1  0  0  0
 22 24  1  0  0  0
 24 25  2  0  0  0
 25 26  1  0  0  0
 26 27  2  0  0  0
 27 28  1  0  0  0
 28 29  2  0  0  0
 12 13  1  0  0  0
 13 14  2  0  0  0
 14 15  1  0  0  0
 15 16  1  0  0  0
 15 17  2  0  0  0
 17 18  1  0  0  0
 18 19  2  0  0  0
 19 10  1  0  0  0
  6  1  1  0  0  0
 29 20  1  0  0  0
 19 13  1  0  0  0
 29 24  1  0  0  0
  5  8  1  0  0  0
M  END
> <minimizedAffinity>
-8.61934

> <CNNscore>
0.5095844865

> <CNNaffinity>
6.7344007492

> <CNN_VS>
3.4317462444

> <CNNaffinity_variance>
0.2602463067

$$$$
[H]c1nc([H])c(-c2c([H])c3nc(N([H])C(=O)N([H])C([H])([H])C([H])([H])[H])sc3n(C([H])([H])C3([H])C([H])([H])OC([H])([H])C3([H])[H])c2=O)c([H])c1[H]


 30 33  0  0  0  0  0  0  0  0999 V2000
  -17.5346   10.9436  -18.9706 C   0  0  0  0  0  0  0  0  0  0  0  0
  -17.1657   11.0235  -20.2281 N   0  0  0  0  0  0  0  0  0  0  0  0
  -17.3626   12.1133  -20.9021 C   0  0  0  0  0  0  0  0  0  0  0  0
  -17.0402   12.3387  -22.2575 C   0  0  0  0  0  0  0  0  0  0  0  0
  -17.3400   13.5549  -22.8198 C   0  0  0  0  0  0  0  0  0  0  0  0
  -17.9415   14.5930  -22.1540 C   0  0  0  0  0  0  0  0  0  0  0  0
  -18.2274   15.7116  -22.6401 O   0  0  0  0  0  0  0  0  0  0  0  0
  -18.2451   14.3596  -20.8466 N   0  0  0  0  0  0  0  0  0  0  0  0
  -17.9638   13.1689  -20.2589 C   0  0  0  0  0  0  0  0  0  0  0  0
  -18.2052   12.4852  -18.6878 S   0  0  0  0  0  0  0  0  0  0  0  0
  -18.3188    8.2898  -16.4054 N   0  0  0  0  0  0  0  0  0  0  0  0
  -18.4288    9.4139  -17.2639 C   0  0  0  0  0  0  0  0  0  0  0  0
  -19.4840   10.0909  -17.2706 O   0  0  0  0  0  0  0  0  0  0  0  0
  -17.3743    9.8096  -18.1300 N   0  0  0  0  0  0  0  0  0  0  0  0
  -17.4558    7.7028  -16.3727 H   0  0  0  0  0  0  0  0  0  0  0  0
  -16.4995    9.2650  -18.1378 H   0  0  0  0  0  0  0  0  0  0  0  0
  -19.1963    8.5532  -14.1896 C   0  0  0  0  0  0  0  0  0  0  0  0
  -19.4209    7.9295  -15.5435 C   0  0  0  0  0  0  0  0  0  0  0  0
  -17.0041   13.7954  -24.2331 C   0  0  0  0  0  0  0  0  0  0  0  0
  -17.7145   13.2489  -25.2483 C   0  0  0  0  0  0  0  0  0  0  0  0
  -17.3510   13.5083  -26.5498 C   0  0  0  0  0  0  0  0  0  0  0  0
  -16.2793   14.3130  -26.7953 C   0  0  0  0  0  0  0  0  0  0  0  0
  -15.5958   14.8394  -25.7656 N   0  0  0  0  0  0  0  0  0  0  0  0
  -15.9235   14.6066  -24.4978 C   0  0  0  0  0  0  0  0  0  0  0  0
  -18.9084   15.3795  -20.1147 C   0  0  0  0  0  0  0  0  0  0  0  0
  -17.9417   16.1514  -19.2731 C   0  0  0  0  0  0  0  0  0  0  0  0
  -18.1887   17.6351  -19.6242 C   0  0  0  0  0  0  0  0  0  0  0  0
  -19.2693   17.9856  -18.6589 C   0  0  0  0  0  0  0  0  0  0  0  0
  -19.3332   17.0168  -17.6963 O   0  0  0  0  0  0  0  0  0  0  0  0
  -18.2234   16.1986  -17.8057 C   0  0  0  0  0  0  0  0  0  0  0  0
 17 18  1  0  0  0
 18 11  1  0  0  0
 11 12  1  0  0  0
 12 13  2  0  0  0
 12 14  1  0  0  0
 14  1  1  0  0  0
  1  2  2  0  0  0
  2  3  1  0  0  0
  3  4  1  0  0  0
  4  5  2  0  0  0
  5 19  1  0  0  0
 19 20  2  0  0  0
 20 21  1  0  0  0
 21 22  2  0  0  0
 22 23  1  0  0  0
 23 24  2  0  0  0
  5  6  1  0  0  0
  6  7  2  0  0  0
  6  8  1  0  0  0
  8 25  1  0  0  0
 25 26  1  0  0  0
 26 27  1  0  0  0
 27 28  1  0  0  0
 28 29  1  0  0  0
 29 30  1  0  0  0
  8  9  1  0  0  0
  9 10  1  0  0  0
 10  1  1  0  0  0
  9  3  2  0  0  0
 24 19  1  0  0  0
 30 26  1  0  0  0
 11 15  1  0  0  0
 14 16  1  0  0  0
M  END
> <minimizedAffinity>
-8.74221

> <CNNscore>
0.8331075907

> <CNNaffinity>
7.1112380028

> <CNN_VS>
5.9244265556

> <CNNaffinity_variance>
0.1275450736

$$$$
[H]c1nc([H])c(-c2c([H])c3nc(N([H])C(=O)N([H])C([H])([H])C([H])([H])[H])sc3n(C([H])([H])C3([H])C([H])([H])OC([H])([H])C3([H])[H])c2=O)c([H])c1[H]


 30 33  0  0  0  0  0  0  0  0999 V2000
  -17.7648   10.7451  -18.6863 C   0  0  0  0  0  0  0  0  0  0  0  0
  -17.2893   10.9055  -19.8995 N   0  0  0  0  0  0  0  0  0  0  0  0
  -17.4981   12.0096  -20.5459 C   0  0  0  0  0  0  0  0  0  0  0  0
  -17.0698   12.3165  -21.8552 C   0  0  0  0  0  0  0  0  0  0  0  0
  -17.3997   13.5350  -22.3951 C   0  0  0  0  0  0  0  0  0  0  0  0
  -18.1289   14.5010  -21.7487 C   0  0  0  0  0  0  0  0  0  0  0  0
  -18.4452   15.6196  -22.2154 O   0  0  0  0  0  0  0  0  0  0  0  0
  -18.5337   14.1895  -20.4857 N   0  0  0  0  0  0  0  0  0  0  0  0
  -18.2262   12.9941  -19.9212 C   0  0  0  0  0  0  0  0  0  0  0  0
  -18.5624   12.2258  -18.4076 S   0  0  0  0  0  0  0  0  0  0  0  0
  -18.5175    8.0615  -16.1427 N   0  0  0  0  0  0  0  0  0  0  0  0
  -18.6288    9.2085  -16.9702 C   0  0  0  0  0  0  0  0  0  0  0  0
  -19.6578    9.9221  -16.9095 O   0  0  0  0  0  0  0  0  0  0  0  0
  -17.6046    9.5869  -17.8793 N   0  0  0  0  0  0  0  0  0  0  0  0
  -17.6757    7.4439  -16.1659 H   0  0  0  0  0  0  0  0  0  0  0  0
  -16.7515    9.0122  -17.9426 H   0  0  0  0  0  0  0  0  0  0  0  0
  -19.3042    8.3539  -13.8966 C   0  0  0  0  0  0  0  0  0  0  0  0
  -19.5881    7.7202  -15.2346 C   0  0  0  0  0  0  0  0  0  0  0  0
  -16.9536   13.8604  -23.7602 C   0  0  0  0  0  0  0  0  0  0  0  0
  -17.6934   13.5589  -24.8537 C   0  0  0  0  0  0  0  0  0  0  0  0
  -17.2228   13.8862  -26.1047 C   0  0  0  0  0  0  0  0  0  0  0  0
  -16.0170   14.5098  -26.2217 C   0  0  0  0  0  0  0  0  0  0  0  0
  -15.3081   14.7948  -25.1169 N   0  0  0  0  0  0  0  0  0  0  0  0
  -15.7370   14.4908  -23.8953 C   0  0  0  0  0  0  0  0  0  0  0  0
  -19.3292   15.1303  -19.7801 C   0  0  0  0  0  0  0  0  0  0  0  0
  -20.7867   14.8591  -19.9820 C   0  0  0  0  0  0  0  0  0  0  0  0
  -21.3553   14.6091  -18.5679 C   0  0  0  0  0  0  0  0  0  0  0  0
  -21.6985   15.9964  -18.1437 C   0  0  0  0  0  0  0  0  0  0  0  0
  -21.6973   16.8079  -19.2440 O   0  0  0  0  0  0  0  0  0  0  0  0
  -21.6335   16.0243  -20.3821 C   0  0  0  0  0  0  0  0  0  0  0  0
 17 18  1  0  0  0
 18 11  1  0  0  0
 11 12  1  0  0  0
 12 13  2  0  0  0
 12 14  1  0  0  0
 14  1  1  0  0  0
  1  2  2  0  0  0
  2  3  1  0  0  0
  3  4  1  0  0  0
  4  5  2  0  0  0
  5 19  1  0  0  0
 19 20  2  0  0  0
 20 21  1  0  0  0
 21 22  2  0  0  0
 22 23  1  0  0  0
 23 24  2  0  0  0
  5  6  1  0  0  0
  6  7  2  0  0  0
  6  8  1  0  0  0
  8 25  1  0  0  0
 25 26  1  0  0  0
 26 27  1  0  0  0
 27 28  1  0  0  0
 28 29  1  0  0  0
 29 30  1  0  0  0
  8  9  1  0  0  0
  9 10  1  0  0  0
 10  1  1  0  0  0
  9  3  2  0  0  0
 24 19  1  0  0  0
 30 26  1  0  0  0
 11 15  1  0  0  0
 14 16  1  0  0  0
M  END
> <minimizedAffinity>
-8.54556

> <CNNscore>
0.8328864574

> <CNNaffinity>
7.0182161331

> <CNN_VS>
5.8453769684

> <CNNaffinity_variance>
0.1846248657

$$$$
[H]c1nc([H])c(-c2c([H])c3nc(N([H])C(=O)N([H])C([H])([H])C([H])([H])[H])sc3n(C([H])([H])C3([H])C([H])([H])OC([H])([H])C3([H])[H])c2=O)c([H])c1[H]


 30 33  0  0  0  0  0  0  0  0999 V2000
  -17.4489   11.8991  -20.3098 C   0  0  0  0  0  0  0  0  0  0  0  0
  -17.7423   10.8989  -19.5114 N   0  0  0  0  0  0  0  0  0  0  0  0
  -18.4672   11.0935  -18.4544 C   0  0  0  0  0  0  0  0  0  0  0  0
  -18.8448   10.1262  -17.4986 C   0  0  0  0  0  0  0  0  0  0  0  0
  -19.6036   10.5145  -16.4223 C   0  0  0  0  0  0  0  0  0  0  0  0
  -20.0348   11.7973  -16.1963 C   0  0  0  0  0  0  0  0  0  0  0  0
  -20.7264   12.1807  -15.2248 O   0  0  0  0  0  0  0  0  0  0  0  0
  -19.6628   12.7185  -17.1286 N   0  0  0  0  0  0  0  0  0  0  0  0
  -18.9122   12.3698  -18.2043 C   0  0  0  0  0  0  0  0  0  0  0  0
  -18.2286   13.2123  -19.5524 S   0  0  0  0  0  0  0  0  0  0  0  0
  -16.2054   12.6130  -23.8001 N   0  0  0  0  0  0  0  0  0  0  0  0
  -16.9562   12.6590  -22.5972 C   0  0  0  0  0  0  0  0  0  0  0  0
  -17.9095   13.4660  -22.4892 O   0  0  0  0  0  0  0  0  0  0  0  0
  -16.6665   11.8138  -21.4926 N   0  0  0  0  0  0  0  0  0  0  0  0
  -15.4050   11.9542  -23.9261 H   0  0  0  0  0  0  0  0  0  0  0  0
  -15.8865   11.1441  -21.5634 H   0  0  0  0  0  0  0  0  0  0  0  0
  -17.4313   12.7496  -25.8562 C   0  0  0  0  0  0  0  0  0  0  0  0
  -16.5411   13.4945  -24.8944 C   0  0  0  0  0  0  0  0  0  0  0  0
  -20.0014    9.5085  -15.4233 C   0  0  0  0  0  0  0  0  0  0  0  0
  -19.1861    9.1358  -14.4083 C   0  0  0  0  0  0  0  0  0  0  0  0
  -19.6125    8.1883  -13.5062 C   0  0  0  0  0  0  0  0  0  0  0  0
  -20.8514    7.6398  -13.6503 C   0  0  0  0  0  0  0  0  0  0  0  0
  -21.6355    8.0316  -14.6682 N   0  0  0  0  0  0  0  0  0  0  0  0
  -21.2506    8.9447  -15.5553 C   0  0  0  0  0  0  0  0  0  0  0  0
  -20.0409   14.0724  -16.9288 C   0  0  0  0  0  0  0  0  0  0  0  0
  -21.3015   14.3923  -17.6686 C   0  0  0  0  0  0  0  0  0  0  0  0
  -22.1894   15.1473  -16.6551 C   0  0  0  0  0  0  0  0  0  0  0  0
  -21.7394   16.5528  -16.8660 C   0  0  0  0  0  0  0  0  0  0  0  0
  -21.0358   16.6206  -18.0363 O   0  0  0  0  0  0  0  0  0  0  0  0
  -21.2042   15.4376  -18.7328 C   0  0  0  0  0  0  0  0  0  0  0  0
 17 18  1  0  0  0
 18 11  1  0  0  0
 11 12  1  0  0  0
 12 13  2  0  0  0
 12 14  1  0  0  0
 14  1  1  0  0  0
  1  2  2  0  0  0
  2  3  1  0  0  0
  3  4  1  0  0  0
  4  5  2  0  0  0
  5 19  1  0  0  0
 19 20  2  0  0  0
 20 21  1  0  0  0
 21 22  2  0  0  0
 22 23  1  0  0  0
 23 24  2  0  0  0
  5  6  1  0  0  0
  6  7  2  0  0  0
  6  8  1  0  0  0
  8 25  1  0  0  0
 25 26  1  0  0  0
 26 27  1  0  0  0
 27 28  1  0  0  0
 28 29  1  0  0  0
 29 30  1  0  0  0
  8  9  1  0  0  0
  9 10  1  0  0  0
 10  1  1  0  0  0
  9  3  2  0  0  0
 24 19  1  0  0  0
 30 26  1  0  0  0
 11 15  1  0  0  0
 14 16  1  0  0  0
M  END
> <minimizedAffinity>
-6.99965

> <CNNscore>
0.5059415698

> <CNNaffinity>
6.4488081932

> <CNN_VS>
3.2627201080

> <CNNaffinity_variance>
0.1690465510

$$$$
[H]c1nc([H])c(-c2c([H])c3nc(N([H])C(=O)N([H])C([H])([H])C([H])([H])[H])sc3n(C([H])([H])C3([H])C([H])([H])OC([H])([H])C3([H])[H])c2=O)c([H])c1[H]


 30 33  0  0  0  0  0  0  0  0999 V2000
  -17.7206   11.1558  -19.1226 C   0  0  0  0  0  0  0  0  0  0  0  0
  -18.5126   12.1574  -18.8171 N   0  0  0  0  0  0  0  0  0  0  0  0
  -18.6935   13.1304  -19.6543 C   0  0  0  0  0  0  0  0  0  0  0  0
  -19.4937   14.2763  -19.4584 C   0  0  0  0  0  0  0  0  0  0  0  0
  -19.5547   15.2234  -20.4506 C   0  0  0  0  0  0  0  0  0  0  0  0
  -18.8850   15.1430  -21.6454 C   0  0  0  0  0  0  0  0  0  0  0  0
  -18.9209   15.9902  -22.5675 O   0  0  0  0  0  0  0  0  0  0  0  0
  -18.1181   14.0304  -21.8192 N   0  0  0  0  0  0  0  0  0  0  0  0
  -18.0340   13.0748  -20.8591 C   0  0  0  0  0  0  0  0  0  0  0  0
  -17.1797   11.5803  -20.6826 S   0  0  0  0  0  0  0  0  0  0  0  0
  -18.2007    8.4466  -16.5405 N   0  0  0  0  0  0  0  0  0  0  0  0
  -18.4290    9.5602  -17.3892 C   0  0  0  0  0  0  0  0  0  0  0  0
  -19.5321   10.1549  -17.3523 O   0  0  0  0  0  0  0  0  0  0  0  0
  -17.4421   10.0362  -18.2937 N   0  0  0  0  0  0  0  0  0  0  0  0
  -17.2949    7.9269  -16.5436 H   0  0  0  0  0  0  0  0  0  0  0  0
  -16.5294    9.5598  -18.3376 H   0  0  0  0  0  0  0  0  0  0  0  0
  -19.0892    8.7419  -14.3331 C   0  0  0  0  0  0  0  0  0  0  0  0
  -19.2379    8.0023  -15.6382 C   0  0  0  0  0  0  0  0  0  0  0  0
  -20.3895   16.4199  -20.2514 C   0  0  0  0  0  0  0  0  0  0  0  0
  -21.7008   16.4509  -20.5885 C   0  0  0  0  0  0  0  0  0  0  0  0
  -22.4296   17.5994  -20.3807 C   0  0  0  0  0  0  0  0  0  0  0  0
  -21.8174   18.6888  -19.8377 C   0  0  0  0  0  0  0  0  0  0  0  0
  -20.5152   18.6250  -19.5144 N   0  0  0  0  0  0  0  0  0  0  0  0
  -19.7855   17.5293  -19.7036 C   0  0  0  0  0  0  0  0  0  0  0  0
  -17.3656   13.9091  -23.0171 C   0  0  0  0  0  0  0  0  0  0  0  0
  -15.9688   14.4103  -22.8264 C   0  0  0  0  0  0  0  0  0  0  0  0
  -15.0849   13.5022  -23.7094 C   0  0  0  0  0  0  0  0  0  0  0  0
  -15.1386   14.2238  -25.0127 C   0  0  0  0  0  0  0  0  0  0  0  0
  -15.6200   15.4856  -24.7996 O   0  0  0  0  0  0  0  0  0  0  0  0
  -15.6451   15.7348  -23.4393 C   0  0  0  0  0  0  0  0  0  0  0  0
 17 18  1  0  0  0
 18 11  1  0  0  0
 11 12  1  0  0  0
 12 13  2  0  0  0
 12 14  1  0  0  0
 14  1  1  0  0  0
  1  2  2  0  0  0
  2  3  1  0  0  0
  3  4  1  0  0  0
  4  5  2  0  0  0
  5 19  1  0  0  0
 19 20  2  0  0  0
 20 21  1  0  0  0
 21 22  2  0  0  0
 22 23  1  0  0  0
 23 24  2  0  0  0
  5  6  1  0  0  0
  6  7  2  0  0  0
  6  8  1  0  0  0
  8 25  1  0  0  0
 25 26  1  0  0  0
 26 27  1  0  0  0
 27 28  1  0  0  0
 28 29  1  0  0  0
 29 30  1  0  0  0
  8  9  1  0  0  0
  9 10  1  0  0  0
 10  1  1  0  0  0
  9  3  2  0  0  0
 24 19  1  0  0  0
 30 26  1  0  0  0
 11 15  1  0  0  0
 14 16  1  0  0  0
M  END
> <minimizedAffinity>
-7.88367

> <CNNscore>
0.4556569457

> <CNNaffinity>
6.7880811691

> <CNN_VS>
3.0930364132

> <CNNaffinity_variance>
0.2996964455

$$$$
[H]c1nc([H])c(-c2c([H])c3nc(N([H])C(=O)N([H])C([H])([H])C([H])([H])[H])sc3n(C([H])([H])C3([H])C([H])([H])OC([H])([H])C3([H])[H])c2=O)c([H])c1[H]


 30 33  0  0  0  0  0  0  0  0999 V2000
  -16.7082   13.1474  -22.2624 C   0  0  0  0  0  0  0  0  0  0  0  0
  -17.0890   12.1040  -21.5622 N   0  0  0  0  0  0  0  0  0  0  0  0
  -17.6555   12.2601  -20.4067 C   0  0  0  0  0  0  0  0  0  0  0  0
  -18.0968   11.2399  -19.5370 C   0  0  0  0  0  0  0  0  0  0  0  0
  -18.6604   11.5879  -18.3344 C   0  0  0  0  0  0  0  0  0  0  0  0
  -18.8336   12.8779  -17.9003 C   0  0  0  0  0  0  0  0  0  0  0  0
  -19.3430   13.2252  -16.8099 O   0  0  0  0  0  0  0  0  0  0  0  0
  -18.4035   13.8506  -18.7518 N   0  0  0  0  0  0  0  0  0  0  0  0
  -17.8409   13.5425  -19.9479 C   0  0  0  0  0  0  0  0  0  0  0  0
  -17.1624   14.4474  -21.2576 S   0  0  0  0  0  0  0  0  0  0  0  0
  -16.1825   13.5705  -25.9749 N   0  0  0  0  0  0  0  0  0  0  0  0
  -16.7662   13.5888  -24.6819 C   0  0  0  0  0  0  0  0  0  0  0  0
  -17.9251   14.0419  -24.5288 O   0  0  0  0  0  0  0  0  0  0  0  0
  -16.0792   13.1068  -23.5356 N   0  0  0  0  0  0  0  0  0  0  0  0
  -15.2200   13.2008  -26.1406 H   0  0  0  0  0  0  0  0  0  0  0  0
  -15.1257   12.7306  -23.6425 H   0  0  0  0  0  0  0  0  0  0  0  0
  -16.1495   15.2106  -27.7236 C   0  0  0  0  0  0  0  0  0  0  0  0
  -16.9240   14.0729  -27.1085 C   0  0  0  0  0  0  0  0  0  0  0  0
  -19.1238   10.5270  -17.4244 C   0  0  0  0  0  0  0  0  0  0  0  0
  -20.2299   10.6662  -16.6555 C   0  0  0  0  0  0  0  0  0  0  0  0
  -20.6125    9.6402  -15.8221 C   0  0  0  0  0  0  0  0  0  0  0  0
  -19.8696    8.4987  -15.7849 C   0  0  0  0  0  0  0  0  0  0  0  0
  -18.7779    8.3927  -16.5603 N   0  0  0  0  0  0  0  0  0  0  0  0
  -18.3836    9.3670  -17.3752 C   0  0  0  0  0  0  0  0  0  0  0  0
  -18.5150   15.2052  -18.3414 C   0  0  0  0  0  0  0  0  0  0  0  0
  -19.7260   15.8491  -18.9392 C   0  0  0  0  0  0  0  0  0  0  0  0
  -20.4930   16.4623  -17.7470 C   0  0  0  0  0  0  0  0  0  0  0  0
  -19.8561   17.8069  -17.6530 C   0  0  0  0  0  0  0  0  0  0  0  0
  -19.1600   18.0475  -18.8049 O   0  0  0  0  0  0  0  0  0  0  0  0
  -19.4953   17.0882  -19.7431 C   0  0  0  0  0  0  0  0  0  0  0  0
 17 18  1  0  0  0
 18 11  1  0  0  0
 11 12  1  0  0  0
 12 13  2  0  0  0
 12 14  1  0  0  0
 14  1  1  0  0  0
  1  2  2  0  0  0
  2  3  1  0  0  0
  3  4  1  0  0  0
  4  5  2  0  0  0
  5 19  1  0  0  0
 19 20  2  0  0  0
 20 21  1  0  0  0
 21 22  2  0  0  0
 22 23  1  0  0  0
 23 24  2  0  0  0
  5  6  1  0  0  0
  6  7  2  0  0  0
  6  8  1  0  0  0
  8 25  1  0  0  0
 25 26  1  0  0  0
 26 27  1  0  0  0
 27 28  1  0  0  0
 28 29  1  0  0  0
 29 30  1  0  0  0
  8  9  1  0  0  0
  9 10  1  0  0  0
 10  1  1  0  0  0
  9  3  2  0  0  0
 24 19  1  0  0  0
 30 26  1  0  0  0
 11 15  1  0  0  0
 14 16  1  0  0  0
M  END
> <minimizedAffinity>
-8.01318

> <CNNscore>
0.4342381656

> <CNNaffinity>
6.7854013443

> <CNN_VS>
2.9464802742

> <CNNaffinity_variance>
0.2108569145

$$$$
[H]c1nc([H])c(-c2c([H])c3nc(N([H])C(=O)N([H])C([H])([H])C([H])([H])[H])sc3n(C([H])([H])C3([H])C([H])([H])OC([H])([H])C3([H])[H])c2=O)c([H])c1[H]


 30 33  0  0  0  0  0  0  0  0999 V2000
  -17.7624   11.1186  -19.0048 C   0  0  0  0  0  0  0  0  0  0  0  0
  -18.3704   12.1934  -18.5585 N   0  0  0  0  0  0  0  0  0  0  0  0
  -18.3549   13.2907  -19.2486 C   0  0  0  0  0  0  0  0  0  0  0  0
  -18.9426   14.5228  -18.8902 C   0  0  0  0  0  0  0  0  0  0  0  0
  -18.8102   15.5950  -19.7375 C   0  0  0  0  0  0  0  0  0  0  0  0
  -18.1372   15.5639  -20.9329 C   0  0  0  0  0  0  0  0  0  0  0  0
  -17.9995   16.5245  -21.7250 O   0  0  0  0  0  0  0  0  0  0  0  0
  -17.5768   14.3671  -21.2644 N   0  0  0  0  0  0  0  0  0  0  0  0
  -17.6873   13.2869  -20.4501 C   0  0  0  0  0  0  0  0  0  0  0  0
  -17.1174   11.6535  -20.4894 S   0  0  0  0  0  0  0  0  0  0  0  0
  -18.5157    8.3821  -16.5185 N   0  0  0  0  0  0  0  0  0  0  0  0
  -18.5327    9.6189  -17.2131 C   0  0  0  0  0  0  0  0  0  0  0  0
  -19.2946   10.5376  -16.8295 O   0  0  0  0  0  0  0  0  0  0  0  0
  -17.7077    9.8622  -18.3440 N   0  0  0  0  0  0  0  0  0  0  0  0
  -17.8944    7.5945  -16.8090 H   0  0  0  0  0  0  0  0  0  0  0  0
  -17.0749    9.1186  -18.6735 H   0  0  0  0  0  0  0  0  0  0  0  0
  -20.5440    7.3305  -15.7911 C   0  0  0  0  0  0  0  0  0  0  0  0
  -19.3747    8.1855  -15.3737 C   0  0  0  0  0  0  0  0  0  0  0  0
  -19.4230   16.8821  -19.3688 C   0  0  0  0  0  0  0  0  0  0  0  0
  -18.7670   17.8109  -18.6333 C   0  0  0  0  0  0  0  0  0  0  0  0
  -19.3929   18.9950  -18.3177 C   0  0  0  0  0  0  0  0  0  0  0  0
  -20.6657   19.2132  -18.7522 C   0  0  0  0  0  0  0  0  0  0  0  0
  -21.2884   18.2713  -19.4800 N   0  0  0  0  0  0  0  0  0  0  0  0
  -20.7092   17.1177  -19.8003 C   0  0  0  0  0  0  0  0  0  0  0  0
  -16.8296   14.2817  -22.4687 C   0  0  0  0  0  0  0  0  0  0  0  0
  -17.6524   13.6916  -23.5701 C   0  0  0  0  0  0  0  0  0  0  0  0
  -17.7701   14.8055  -24.6337 C   0  0  0  0  0  0  0  0  0  0  0  0
  -16.5471   14.5579  -25.4495 C   0  0  0  0  0  0  0  0  0  0  0  0
  -16.0595   13.3164  -25.1491 O   0  0  0  0  0  0  0  0  0  0  0  0
  -16.9986   12.6327  -24.3983 C   0  0  0  0  0  0  0  0  0  0  0  0
 17 18  1  0  0  0
 18 11  1  0  0  0
 11 12  1  0  0  0
 12 13  2  0  0  0
 12 14  1  0  0  0
 14  1  1  0  0  0
  1  2  2  0  0  0
  2  3  1  0  0  0
  3  4  1  0  0  0
  4  5  2  0  0  0
  5 19  1  0  0  0
 19 20  2  0  0  0
 20 21  1  0  0  0
 21 22  2  0  0  0
 22 23  1  0  0  0
 23 24  2  0  0  0
  5  6  1  0  0  0
  6  7  2  0  0  0
  6  8  1  0  0  0
  8 25  1  0  0  0
 25 26  1  0  0  0
 26 27  1  0  0  0
 27 28  1  0  0  0
 28 29  1  0  0  0
 29 30  1  0  0  0
  8  9  1  0  0  0
  9 10  1  0  0  0
 10  1  1  0  0  0
  9  3  2  0  0  0
 24 19  1  0  0  0
 30 26  1  0  0  0
 11 15  1  0  0  0
 14 16  1  0  0  0
M  END
> <minimizedAffinity>
-7.56480

> <CNNscore>
0.3680448830

> <CNNaffinity>
6.7626357079

> <CNN_VS>
2.4889533520

> <CNNaffinity_variance>
0.2686513364

$$$$
[H]c1nc([H])c(-c2c([H])c3nc(N([H])C(=O)N([H])C([H])([H])C([H])([H])[H])sc3n(C([H])([H])C3([H])C([H])([H])OC([H])([H])C3([H])[H])c2=O)c([H])c1[H]


 30 33  0  0  0  0  0  0  0  0999 V2000
  -16.8204   16.3096  -22.2714 C   0  0  0  0  0  0  0  0  0  0  0  0
  -16.7757   15.0903  -21.7865 N   0  0  0  0  0  0  0  0  0  0  0  0
  -17.5878   14.7289  -20.8428 C   0  0  0  0  0  0  0  0  0  0  0  0
  -17.6434   13.4672  -20.2128 C   0  0  0  0  0  0  0  0  0  0  0  0
  -18.5594   13.2633  -19.2106 C   0  0  0  0  0  0  0  0  0  0  0  0
  -19.4461   14.2097  -18.7623 C   0  0  0  0  0  0  0  0  0  0  0  0
  -20.2912   14.0530  -17.8510 O   0  0  0  0  0  0  0  0  0  0  0  0
  -19.3802   15.4214  -19.3815 N   0  0  0  0  0  0  0  0  0  0  0  0
  -18.4864   15.6580  -20.3752 C   0  0  0  0  0  0  0  0  0  0  0  0
  -18.0757   17.0189  -21.3619 S   0  0  0  0  0  0  0  0  0  0  0  0
  -14.8152   16.4704  -25.4638 N   0  0  0  0  0  0  0  0  0  0  0  0
  -15.6434   16.0049  -24.4102 C   0  0  0  0  0  0  0  0  0  0  0  0
  -16.0948   14.8358  -24.4437 O   0  0  0  0  0  0  0  0  0  0  0  0
  -15.9872   16.8235  -23.3010 N   0  0  0  0  0  0  0  0  0  0  0  0
  -14.4213   17.4376  -25.4699 H   0  0  0  0  0  0  0  0  0  0  0  0
  -15.6252   17.7873  -23.2565 H   0  0  0  0  0  0  0  0  0  0  0  0
  -15.6254   15.6500  -27.5660 C   0  0  0  0  0  0  0  0  0  0  0  0
  -14.4954   15.5975  -26.5697 C   0  0  0  0  0  0  0  0  0  0  0  0
  -18.6223   11.9481  -18.5513 C   0  0  0  0  0  0  0  0  0  0  0  0
  -19.5220   11.6695  -17.5782 C   0  0  0  0  0  0  0  0  0  0  0  0
  -19.5311   10.4222  -16.9972 C   0  0  0  0  0  0  0  0  0  0  0  0
  -18.6320    9.4863  -17.4123 C   0  0  0  0  0  0  0  0  0  0  0  0
  -17.7529    9.7949  -18.3799 N   0  0  0  0  0  0  0  0  0  0  0  0
  -17.7202   10.9914  -18.9597 C   0  0  0  0  0  0  0  0  0  0  0  0
  -20.2421   16.4568  -18.9332 C   0  0  0  0  0  0  0  0  0  0  0  0
  -19.4809   17.4985  -18.1757 C   0  0  0  0  0  0  0  0  0  0  0  0
  -20.5382   18.5308  -17.7262 C   0  0  0  0  0  0  0  0  0  0  0  0
  -20.9803   17.9466  -16.4279 C   0  0  0  0  0  0  0  0  0  0  0  0
  -20.0737   17.0006  -16.0375 O   0  0  0  0  0  0  0  0  0  0  0  0
  -18.9495   17.0962  -16.8376 C   0  0  0  0  0  0  0  0  0  0  0  0
 17 18  1  0  0  0
 18 11  1  0  0  0
 11 12  1  0  0  0
 12 13  2  0  0  0
 12 14  1  0  0  0
 14  1  1  0  0  0
  1  2  2  0  0  0
  2  3  1  0  0  0
  3  4  1  0  0  0
  4  5  2  0  0  0
  5 19  1  0  0  0
 19 20  2  0  0  0
 20 21  1  0  0  0
 21 22  2  0  0  0
 22 23  1  0  0  0
 23 24  2  0  0  0
  5  6  1  0  0  0
  6  7  2  0  0  0
  6  8  1  0  0  0
  8 25  1  0  0  0
 25 26  1  0  0  0
 26 27  1  0  0  0
 27 28  1  0  0  0
 28 29  1  0  0  0
 29 30  1  0  0  0
  8  9  1  0  0  0
  9 10  1  0  0  0
 10  1  1  0  0  0
  9  3  2  0  0  0
 24 19  1  0  0  0
 30 26  1  0  0  0
 11 15  1  0  0  0
 14 16  1  0  0  0
M  END
> <minimizedAffinity>
-7.87797

> <CNNscore>
0.3584472239

> <CNNaffinity>
6.7635526657

> <CNN_VS>
2.4243767262

> <CNNaffinity_variance>
0.1665964425

$$$$
[H]c1nc([H])c(-c2c([H])c3nc(N([H])C(=O)N([H])C([H])([H])C([H])([H])[H])sc3n(C([H])([H])C3([H])C([H])([H])OC([H])([H])C3([H])[H])c2=O)c([H])c1[H]


 30 33  0  0  0  0  0  0  0  0999 V2000
  -16.8820   14.0059  -22.3204 C   0  0  0  0  0  0  0  0  0  0  0  0
  -17.0366   12.9053  -21.6214 N   0  0  0  0  0  0  0  0  0  0  0  0
  -17.7839   12.8998  -20.5621 C   0  0  0  0  0  0  0  0  0  0  0  0
  -18.0268   11.8055  -19.7047 C   0  0  0  0  0  0  0  0  0  0  0  0
  -18.8344   11.9847  -18.6089 C   0  0  0  0  0  0  0  0  0  0  0  0
  -19.4388   13.1698  -18.2730 C   0  0  0  0  0  0  0  0  0  0  0  0
  -20.1789   13.3631  -17.2810 O   0  0  0  0  0  0  0  0  0  0  0  0
  -19.1951   14.2157  -19.1113 N   0  0  0  0  0  0  0  0  0  0  0  0
  -18.4012   14.0744  -20.2030 C   0  0  0  0  0  0  0  0  0  0  0  0
  -17.8370   15.1239  -21.4578 S   0  0  0  0  0  0  0  0  0  0  0  0
  -15.9766   14.3305  -25.9691 N   0  0  0  0  0  0  0  0  0  0  0  0
  -16.7194   14.1983  -24.7677 C   0  0  0  0  0  0  0  0  0  0  0  0
  -17.9704   14.1305  -24.8138 O   0  0  0  0  0  0  0  0  0  0  0  0
  -16.0926   14.1386  -23.4941 N   0  0  0  0  0  0  0  0  0  0  0  0
  -14.9340   14.3899  -25.9695 H   0  0  0  0  0  0  0  0  0  0  0  0
  -15.0650   14.1928  -23.4368 H   0  0  0  0  0  0  0  0  0  0  0  0
  -16.0053   15.4392  -28.0949 C   0  0  0  0  0  0  0  0  0  0  0  0
  -16.6628   14.3866  -27.2392 C   0  0  0  0  0  0  0  0  0  0  0  0
  -19.0921   10.8454  -17.7123 C   0  0  0  0  0  0  0  0  0  0  0  0
  -20.0869   10.8590  -16.7935 C   0  0  0  0  0  0  0  0  0  0  0  0
  -20.2779    9.7647  -15.9814 C   0  0  0  0  0  0  0  0  0  0  0  0
  -19.4603    8.6831  -16.1163 C   0  0  0  0  0  0  0  0  0  0  0  0
  -18.4830    8.7017  -17.0376 N   0  0  0  0  0  0  0  0  0  0  0  0
  -18.2744    9.7446  -17.8362 C   0  0  0  0  0  0  0  0  0  0  0  0
  -19.7567   15.4806  -18.7941 C   0  0  0  0  0  0  0  0  0  0  0  0
  -18.7628   16.3469  -18.0869 C   0  0  0  0  0  0  0  0  0  0  0  0
  -18.8207   17.7099  -18.8112 C   0  0  0  0  0  0  0  0  0  0  0  0
  -19.9121   18.3920  -18.0587 C   0  0  0  0  0  0  0  0  0  0  0  0
  -20.1421   17.7084  -16.8973 O   0  0  0  0  0  0  0  0  0  0  0  0
  -19.1259   16.7896  -16.7060 C   0  0  0  0  0  0  0  0  0  0  0  0
 17 18  1  0  0  0
 18 11  1  0  0  0
 11 12  1  0  0  0
 12 13  2  0  0  0
 12 14  1  0  0  0
 14  1  1  0  0  0
  1  2  2  0  0  0
  2  3  1  0  0  0
  3  4  1  0  0  0
  4  5  2  0  0  0
  5 19  1  0  0  0
 19 20  2  0  0  0
 20 21  1  0  0  0
 21 22  2  0  0  0
 22 23  1  0  0  0
 23 24  2  0  0  0
  5  6  1  0  0  0
  6  7  2  0  0  0
  6  8  1  0  0  0
  8 25  1  0  0  0
 25 26  1  0  0  0
 26 27  1  0  0  0
 27 28  1  0  0  0
 28 29  1  0  0  0
 29 30  1  0  0  0
  8  9  1  0  0  0
  9 10  1  0  0  0
 10  1  1  0  0  0
  9  3  2  0  0  0
 24 19  1  0  0  0
 30 26  1  0  0  0
 11 15  1  0  0  0
 14 16  1  0  0  0
M  END
> <minimizedAffinity>
-8.08402

> <CNNscore>
0.3454345167

> <CNNaffinity>
6.7465949059

> <CNN_VS>
2.3305068016

> <CNNaffinity_variance>
0.1816570461

$$$$
[H]c1nc([H])c(-c2c([H])c3nc(N([H])C(=O)N([H])C([H])([H])C([H])([H])[H])sc3n(C([H])([H])C3([H])C([H])([H])OC([H])([H])C3([H])[H])c2=O)c([H])c1[H]


 30 33  0  0  0  0  0  0  0  0999 V2000
  -20.1442   16.1218  -19.9699 C   0  0  0  0  0  0  0  0  0  0  0  0
  -19.4024   16.4432  -21.0045 N   0  0  0  0  0  0  0  0  0  0  0  0
  -18.6572   15.5522  -21.5802 C   0  0  0  0  0  0  0  0  0  0  0  0
  -17.7972   15.7530  -22.6810 C   0  0  0  0  0  0  0  0  0  0  0  0
  -17.0610   14.6943  -23.1525 C   0  0  0  0  0  0  0  0  0  0  0  0
  -17.0956   13.4271  -22.6275 C   0  0  0  0  0  0  0  0  0  0  0  0
  -16.4360   12.4434  -23.0355 O   0  0  0  0  0  0  0  0  0  0  0  0
  -17.9314   13.2498  -21.5663 N   0  0  0  0  0  0  0  0  0  0  0  0
  -18.6730   14.2743  -21.0738 C   0  0  0  0  0  0  0  0  0  0  0  0
  -19.7932   14.4657  -19.7689 S   0  0  0  0  0  0  0  0  0  0  0  0
  -23.1824   18.1783  -19.0881 N   0  0  0  0  0  0  0  0  0  0  0  0
  -22.2917   17.3039  -19.7624 C   0  0  0  0  0  0  0  0  0  0  0  0
  -22.6417   16.7700  -20.8414 O   0  0  0  0  0  0  0  0  0  0  0  0
  -20.9985   17.0043  -19.2561 N   0  0  0  0  0  0  0  0  0  0  0  0
  -22.9255   18.6410  -18.1878 H   0  0  0  0  0  0  0  0  0  0  0  0
  -20.6937   17.4342  -18.3705 H   0  0  0  0  0  0  0  0  0  0  0  0
  -24.4303   19.7626  -20.3849 C   0  0  0  0  0  0  0  0  0  0  0  0
  -24.4872   18.4501  -19.6457 C   0  0  0  0  0  0  0  0  0  0  0  0
  -16.1636   14.8985  -24.3019 C   0  0  0  0  0  0  0  0  0  0  0  0
  -14.8245   15.0403  -24.1574 C   0  0  0  0  0  0  0  0  0  0  0  0
  -14.0368   15.2310  -25.2695 C   0  0  0  0  0  0  0  0  0  0  0  0
  -14.6195   15.2739  -26.5003 C   0  0  0  0  0  0  0  0  0  0  0  0
  -15.9506   15.1297  -26.6091 N   0  0  0  0  0  0  0  0  0  0  0  0
  -16.7372   14.9442  -25.5528 C   0  0  0  0  0  0  0  0  0  0  0  0
  -17.9794   11.9714  -20.9505 C   0  0  0  0  0  0  0  0  0  0  0  0
  -16.9983   11.8809  -19.8246 C   0  0  0  0  0  0  0  0  0  0  0  0
  -17.8472   11.6030  -18.5645 C   0  0  0  0  0  0  0  0  0  0  0  0
  -17.9202   10.1142  -18.5865 C   0  0  0  0  0  0  0  0  0  0  0  0
  -16.9730    9.6380  -19.4498 O   0  0  0  0  0  0  0  0  0  0  0  0
  -16.1213   10.6705  -19.7988 C   0  0  0  0  0  0  0  0  0  0  0  0
 17 18  1  0  0  0
 18 11  1  0  0  0
 11 12  1  0  0  0
 12 13  2  0  0  0
 12 14  1  0  0  0
 14  1  1  0  0  0
  1  2  2  0  0  0
  2  3  1  0  0  0
  3  4  1  0  0  0
  4  5  2  0  0  0
  5 19  1  0  0  0
 19 20  2  0  0  0
 20 21  1  0  0  0
 21 22  2  0  0  0
 22 23  1  0  0  0
 23 24  2  0  0  0
  5  6  1  0  0  0
  6  7  2  0  0  0
  6  8  1  0  0  0
  8 25  1  0  0  0
 25 26  1  0  0  0
 26 27  1  0  0  0
 27 28  1  0  0  0
 28 29  1  0  0  0
 29 30  1  0  0  0
  8  9  1  0  0  0
  9 10  1  0  0  0
 10  1  1  0  0  0
  9  3  2  0  0  0
 24 19  1  0  0  0
 30 26  1  0  0  0
 11 15  1  0  0  0
 14 16  1  0  0  0
M  END
> <minimizedAffinity>
-7.66718

> <CNNscore>
0.3162650168

> <CNNaffinity>
6.6693000793

> <CNN_VS>
2.1092662811

> <CNNaffinity_variance>
0.2227973938

$$$$
[H]c1c([H])c([H])c2c(c1[H])c(C1=C(c3c([H])n(C([H])([H])[H])c4c([H])c([H])c(C(F)(F)F)c([H])c34)C(=O)N([H])C1=O)c([H])n2C([H])([H])[H]


 32 36  0  0  0  0  0  0  0  0999 V2000
  -17.9732   12.6919  -20.5460 C   0  0  0  0  0  0  0  0  0  0  0  0
  -17.5547   13.4455  -21.5388 C   0  0  0  0  0  0  0  0  0  0  0  0
  -16.5355   12.7312  -22.3350 C   0  0  0  0  0  0  0  0  0  0  0  0
  -15.9665   13.2411  -23.3518 O   0  0  0  0  0  0  0  0  0  0  0  0
  -16.3700   11.4731  -21.7489 N   0  0  0  0  0  0  0  0  0  0  0  0
  -17.2642   11.4212  -20.6278 C   0  0  0  0  0  0  0  0  0  0  0  0
  -17.3818   10.4224  -19.8743 O   0  0  0  0  0  0  0  0  0  0  0  0
  -15.7448   10.7112  -22.0247 H   0  0  0  0  0  0  0  0  0  0  0  0
  -21.5252   15.1700  -18.0366 C   0  0  0  0  0  0  0  0  0  0  0  0
  -20.5671   14.1726  -18.4550 N   0  0  0  0  0  0  0  0  0  0  0  0
  -19.7347   14.2159  -19.5042 C   0  0  0  0  0  0  0  0  0  0  0  0
  -18.9868   13.0580  -19.5317 C   0  0  0  0  0  0  0  0  0  0  0  0
  -19.3682   12.2853  -18.4750 C   0  0  0  0  0  0  0  0  0  0  0  0
  -19.0117   11.0287  -17.9594 C   0  0  0  0  0  0  0  0  0  0  0  0
  -19.6066   10.4816  -16.8441 C   0  0  0  0  0  0  0  0  0  0  0  0
  -20.6049   11.2013  -16.1873 C   0  0  0  0  0  0  0  0  0  0  0  0
  -20.9545   12.4547  -16.6917 C   0  0  0  0  0  0  0  0  0  0  0  0
  -20.3647   13.0070  -17.8116 C   0  0  0  0  0  0  0  0  0  0  0  0
  -19.2035    9.1032  -16.4027 C   0  0  0  0  0  0  0  0  0  0  0  0
  -18.6891    9.2393  -15.1154 F   0  0  0  0  0  0  0  0  0  0  0  0
  -20.2367    8.2142  -16.4350 F   0  0  0  0  0  0  0  0  0  0  0  0
  -18.1261    8.6556  -17.2029 F   0  0  0  0  0  0  0  0  0  0  0  0
  -18.0482   14.7772  -21.8922 C   0  0  0  0  0  0  0  0  0  0  0  0
  -18.9956   15.2109  -22.7386 C   0  0  0  0  0  0  0  0  0  0  0  0
  -19.0080   16.5536  -22.7294 N   0  0  0  0  0  0  0  0  0  0  0  0
  -19.8563   17.4942  -23.4596 C   0  0  0  0  0  0  0  0  0  0  0  0
  -18.0510   16.9820  -21.8658 C   0  0  0  0  0  0  0  0  0  0  0  0
  -17.6123   18.2569  -21.4925 C   0  0  0  0  0  0  0  0  0  0  0  0
  -16.5743   18.4242  -20.5984 C   0  0  0  0  0  0  0  0  0  0  0  0
  -15.9453   17.3171  -20.0476 C   0  0  0  0  0  0  0  0  0  0  0  0
  -16.3837   16.0430  -20.4162 C   0  0  0  0  0  0  0  0  0  0  0  0
  -17.4236   15.8945  -21.3153 C   0  0  0  0  0  0  0  0  0  0  0  0
  9 10  1  0  0  0
 10 11  1  0  0  0
 11 12  2  0  0  0
 12  1  1  0  0  0
  1  2  2  0  0  0
  2  3  1  0  0  0
  3  4  2  0  0  0
  3  5  1  0  0  0
  5  6  1  0  0  0
  6  7  2  0  0  0
  2 23  1  0  0  0
 23 24  2  0  0  0
 24 25  1  0  0  0
 25 26  1  0  0  0
 25 27  1  0  0  0
 27 28  2  0  0  0
 28 29  1  0  0  0
 29 30  2  0  0  0
 30 31  1  0  0  0
 31 32  2  0  0  0
 12 13  1  0  0  0
 13 14  2  0  0  0
 14 15  1  0  0  0
 15 16  2  0  0  0
 16 17  1  0  0  0
 17 18  2  0  0  0
 15 19  1  0  0  0
 19 20  1  0  0  0
 19 21  1  0  0  0
 19 22  1  0  0  0
 18 10  1  0  0  0
  6  1  1  0  0  0
 32 23  1  0  0  0
 18 13  1  0  0  0
 32 27  1  0  0  0
  5  8  1  0  0  0
M  END
> <minimizedAffinity>
-9.18846

> <CNNscore>
0.5106315017

> <CNNaffinity>
6.8689293861

> <CNN_VS>
3.5074918270

> <CNNaffinity_variance>
0.2748490572

$$$$
[H]c1c([H])c([H])c2c(c1[H])c(C1=C(c3c([H])n(C([H])([H])[H])c4c([H])c([H])c(C(F)(F)F)c([H])c34)C(=O)N([H])C1=O)c([H])n2C([H])([H])[H]


 32 36  0  0  0  0  0  0  0  0999 V2000
  -17.3371   11.9816  -20.8027 C   0  0  0  0  0  0  0  0  0  0  0  0
  -16.4726   12.2921  -21.7434 C   0  0  0  0  0  0  0  0  0  0  0  0
  -15.5224   11.1812  -21.9583 C   0  0  0  0  0  0  0  0  0  0  0  0
  -14.5817   11.2282  -22.8130 O   0  0  0  0  0  0  0  0  0  0  0  0
  -15.8828   10.1611  -21.0733 N   0  0  0  0  0  0  0  0  0  0  0  0
  -17.0214   10.6360  -20.3405 C   0  0  0  0  0  0  0  0  0  0  0  0
  -17.6140    9.9644  -19.4590 O   0  0  0  0  0  0  0  0  0  0  0  0
  -15.4485    9.2447  -20.9354 H   0  0  0  0  0  0  0  0  0  0  0  0
  -20.8015   15.5794  -20.4730 C   0  0  0  0  0  0  0  0  0  0  0  0
  -19.9710   14.4293  -20.1987 N   0  0  0  0  0  0  0  0  0  0  0  0
  -18.9673   13.9399  -20.9393 C   0  0  0  0  0  0  0  0  0  0  0  0
  -18.4390   12.8354  -20.3054 C   0  0  0  0  0  0  0  0  0  0  0  0
  -19.1339   12.6416  -19.1484 C   0  0  0  0  0  0  0  0  0  0  0  0
  -19.1001   11.7192  -18.0902 C   0  0  0  0  0  0  0  0  0  0  0  0
  -19.9733   11.7693  -17.0260 C   0  0  0  0  0  0  0  0  0  0  0  0
  -20.9341   12.7798  -16.9856 C   0  0  0  0  0  0  0  0  0  0  0  0
  -20.9638   13.7037  -18.0311 C   0  0  0  0  0  0  0  0  0  0  0  0
  -20.0938   13.6566  -19.1026 C   0  0  0  0  0  0  0  0  0  0  0  0
  -19.9021   10.7017  -15.9714 C   0  0  0  0  0  0  0  0  0  0  0  0
  -19.0036    9.7466  -16.4413 F   0  0  0  0  0  0  0  0  0  0  0  0
  -19.5238   11.1852  -14.7540 F   0  0  0  0  0  0  0  0  0  0  0  0
  -21.1531   10.0462  -15.8885 F   0  0  0  0  0  0  0  0  0  0  0  0
  -16.4559   13.5170  -22.5441 C   0  0  0  0  0  0  0  0  0  0  0  0
  -16.2185   14.8047  -22.2481 C   0  0  0  0  0  0  0  0  0  0  0  0
  -16.3924   15.5463  -23.3540 N   0  0  0  0  0  0  0  0  0  0  0  0
  -16.2424   16.9863  -23.5574 C   0  0  0  0  0  0  0  0  0  0  0  0
  -16.7494   14.7181  -24.3698 C   0  0  0  0  0  0  0  0  0  0  0  0
  -17.0776   14.9479  -25.7102 C   0  0  0  0  0  0  0  0  0  0  0  0
  -17.4466   13.9128  -26.5452 C   0  0  0  0  0  0  0  0  0  0  0  0
  -17.4949   12.6131  -26.0625 C   0  0  0  0  0  0  0  0  0  0  0  0
  -17.1645   12.3805  -24.7253 C   0  0  0  0  0  0  0  0  0  0  0  0
  -16.7993   13.4302  -23.9027 C   0  0  0  0  0  0  0  0  0  0  0  0
  9 10  1  0  0  0
 10 11  1  0  0  0
 11 12  2  0  0  0
 12  1  1  0  0  0
  1  2  2  0  0  0
  2  3  1  0  0  0
  3  4  2  0  0  0
  3  5  1  0  0  0
  5  6  1  0  0  0
  6  7  2  0  0  0
  2 23  1  0  0  0
 23 24  2  0  0  0
 24 25  1  0  0  0
 25 26  1  0  0  0
 25 27  1  0  0  0
 27 28  2  0  0  0
 28 29  1  0  0  0
 29 30  2  0  0  0
 30 31  1  0  0  0
 31 32  2  0  0  0
 12 13  1  0  0  0
 13 14  2  0  0  0
 14 15  1  0  0  0
 15 16  2  0  0  0
 16 17  1  0  0  0
 17 18  2  0  0  0
 15 19  1  0  0  0
 19 20  1  0  0  0
 19 21  1  0  0  0
 19 22  1  0  0  0
 18 10  1  0  0  0
  6  1  1  0  0  0
 32 23  1  0  0  0
 18 13  1  0  0  0
 32 27  1  0  0  0
  5  8  1  0  0  0
M  END
> <minimizedAffinity>
-9.48978

> <CNNscore>
0.4780351818

> <CNNaffinity>
6.9712419510

> <CNN_VS>
3.3324990273

> <CNNaffinity_variance>
0.2692676485

$$$$
[H]c1c([H])c([H])c2c(c1[H])c(C1=C(c3c([H])n(C([H])([H])[H])c4c([H])c([H])c(C(F)(F)F)c([H])c34)C(=O)N([H])C1=O)c([H])n2C([H])([H])[H]


 32 36  0  0  0  0  0  0  0  0999 V2000
  -17.7618   12.2533  -20.3308 C   0  0  0  0  0  0  0  0  0  0  0  0
  -18.6785   12.5846  -19.4484 C   0  0  0  0  0  0  0  0  0  0  0  0
  -18.6490   11.6556  -18.2998 C   0  0  0  0  0  0  0  0  0  0  0  0
  -19.4384   11.7538  -17.3074 O   0  0  0  0  0  0  0  0  0  0  0  0
  -17.6315   10.7308  -18.5510 N   0  0  0  0  0  0  0  0  0  0  0  0
  -17.0558   11.0866  -19.8163 C   0  0  0  0  0  0  0  0  0  0  0  0
  -16.1015   10.4659  -20.3484 O   0  0  0  0  0  0  0  0  0  0  0  0
  -17.3257    9.9385  -17.9798 H   0  0  0  0  0  0  0  0  0  0  0  0
  -17.2843   13.2103  -25.2207 C   0  0  0  0  0  0  0  0  0  0  0  0
  -17.3003   13.3367  -23.7814 N   0  0  0  0  0  0  0  0  0  0  0  0
  -17.6038   12.3992  -22.8734 C   0  0  0  0  0  0  0  0  0  0  0  0
  -17.4854   12.9417  -21.6114 C   0  0  0  0  0  0  0  0  0  0  0  0
  -17.1000   14.2425  -21.7469 C   0  0  0  0  0  0  0  0  0  0  0  0
  -16.8209   15.3108  -20.8793 C   0  0  0  0  0  0  0  0  0  0  0  0
  -16.4577   16.5621  -21.3262 C   0  0  0  0  0  0  0  0  0  0  0  0
  -16.3545   16.7872  -22.6990 C   0  0  0  0  0  0  0  0  0  0  0  0
  -16.6219   15.7247  -23.5634 C   0  0  0  0  0  0  0  0  0  0  0  0
  -16.9903   14.4691  -23.1219 C   0  0  0  0  0  0  0  0  0  0  0  0
  -16.2397   17.6609  -20.3251 C   0  0  0  0  0  0  0  0  0  0  0  0
  -15.8113   17.0427  -19.1525 F   0  0  0  0  0  0  0  0  0  0  0  0
  -15.3432   18.5952  -20.7518 F   0  0  0  0  0  0  0  0  0  0  0  0
  -17.4833   18.2589  -20.0132 F   0  0  0  0  0  0  0  0  0  0  0  0
  -19.5739   13.7404  -19.5116 C   0  0  0  0  0  0  0  0  0  0  0  0
  -20.6376   14.0376  -20.2747 C   0  0  0  0  0  0  0  0  0  0  0  0
  -21.0673   15.2713  -19.9635 N   0  0  0  0  0  0  0  0  0  0  0  0
  -22.1907   16.0410  -20.4955 C   0  0  0  0  0  0  0  0  0  0  0  0
  -20.2624   15.7689  -18.9890 C   0  0  0  0  0  0  0  0  0  0  0  0
  -20.2302   16.9978  -18.3211 C   0  0  0  0  0  0  0  0  0  0  0  0
  -19.2661   17.2727  -17.3726 C   0  0  0  0  0  0  0  0  0  0  0  0
  -18.3052   16.3216  -17.0614 C   0  0  0  0  0  0  0  0  0  0  0  0
  -18.3372   15.0926  -17.7245 C   0  0  0  0  0  0  0  0  0  0  0  0
  -19.3092   14.8356  -18.6738 C   0  0  0  0  0  0  0  0  0  0  0  0
  9 10  1  0  0  0
 10 11  1  0  0  0
 11 12  2  0  0  0
 12  1  1  0  0  0
  1  2  2  0  0  0
  2  3  1  0  0  0
  3  4  2  0  0  0
  3  5  1  0  0  0
  5  6  1  0  0  0
  6  7  2  0  0  0
  2 23  1  0  0  0
 23 24  2  0  0  0
 24 25  1  0  0  0
 25 26  1  0  0  0
 25 27  1  0  0  0
 27 28  2  0  0  0
 28 29  1  0  0  0
 29 30  2  0  0  0
 30 31  1  0  0  0
 31 32  2  0  0  0
 12 13  1  0  0  0
 13 14  2  0  0  0
 14 15  1  0  0  0
 15 16  2  0  0  0
 16 17  1  0  0  0
 17 18  2  0  0  0
 15 19  1  0  0  0
 19 20  1  0  0  0
 19 21  1  0  0  0
 19 22  1  0  0  0
 18 10  1  0  0  0
  6  1  1  0  0  0
 32 23  1  0  0  0
 18 13  1  0  0  0
 32 27  1  0  0  0
  5  8  1  0  0  0
M  END
> <minimizedAffinity>
-9.08974

> <CNNscore>
0.4277828038

> <CNNaffinity>
6.7338104248

> <CNN_VS>
2.8806083202

> <CNNaffinity_variance>
0.2401385307

$$$$
[H]c1c([H])c([H])c2c(c1[H])c(C1=C(c3c([H])n(C([H])([H])[H])c4c([H])c([H])c(C(F)(F)F)c([H])c34)C(=O)N([H])C1=O)c([H])n2C([H])([H])[H]


 32 36  0  0  0  0  0  0  0  0999 V2000
  -18.2111   14.5939  -21.4717 C   0  0  0  0  0  0  0  0  0  0  0  0
  -18.3319   15.1137  -22.6734 C   0  0  0  0  0  0  0  0  0  0  0  0
  -18.9442   16.4562  -22.5958 C   0  0  0  0  0  0  0  0  0  0  0  0
  -19.1747   17.1740  -23.6201 O   0  0  0  0  0  0  0  0  0  0  0  0
  -19.1821   16.7170  -21.2433 N   0  0  0  0  0  0  0  0  0  0  0  0
  -18.7264   15.5667  -20.5166 C   0  0  0  0  0  0  0  0  0  0  0  0
  -18.7815   15.4644  -19.2653 O   0  0  0  0  0  0  0  0  0  0  0  0
  -19.6002   17.5449  -20.8107 H   0  0  0  0  0  0  0  0  0  0  0  0
  -15.4015   10.4524  -21.5676 C   0  0  0  0  0  0  0  0  0  0  0  0
  -16.3759   11.4550  -21.2026 N   0  0  0  0  0  0  0  0  0  0  0  0
  -16.6355   12.6168  -21.8176 C   0  0  0  0  0  0  0  0  0  0  0  0
  -17.6462   13.2665  -21.1414 C   0  0  0  0  0  0  0  0  0  0  0  0
  -18.0165   12.4858  -20.0866 C   0  0  0  0  0  0  0  0  0  0  0  0
  -18.9518   12.5724  -19.0428 C   0  0  0  0  0  0  0  0  0  0  0  0
  -19.0895   11.5980  -18.0790 C   0  0  0  0  0  0  0  0  0  0  0  0
  -18.2722   10.4690  -18.1360 C   0  0  0  0  0  0  0  0  0  0  0  0
  -17.3483   10.3757  -19.1778 C   0  0  0  0  0  0  0  0  0  0  0  0
  -17.2027   11.3508  -20.1448 C   0  0  0  0  0  0  0  0  0  0  0  0
  -20.0747   11.8069  -16.9641 C   0  0  0  0  0  0  0  0  0  0  0  0
  -20.7139   10.5842  -16.7724 F   0  0  0  0  0  0  0  0  0  0  0  0
  -19.4877   12.2478  -15.8152 F   0  0  0  0  0  0  0  0  0  0  0  0
  -21.0802   12.7042  -17.3946 F   0  0  0  0  0  0  0  0  0  0  0  0
  -17.8744   14.5215  -23.9310 C   0  0  0  0  0  0  0  0  0  0  0  0
  -18.2591   13.4433  -24.6321 C   0  0  0  0  0  0  0  0  0  0  0  0
  -17.4585   13.3095  -25.7019 N   0  0  0  0  0  0  0  0  0  0  0  0
  -17.4724   12.3132  -26.7718 C   0  0  0  0  0  0  0  0  0  0  0  0
  -16.5474   14.3167  -25.6800 C   0  0  0  0  0  0  0  0  0  0  0  0
  -15.4753   14.6443  -26.5170 C   0  0  0  0  0  0  0  0  0  0  0  0
  -14.6617   15.7265  -26.2492 C   0  0  0  0  0  0  0  0  0  0  0  0
  -14.9001   16.5169  -25.1343 C   0  0  0  0  0  0  0  0  0  0  0  0
  -15.9720   16.1939  -24.2987 C   0  0  0  0  0  0  0  0  0  0  0  0
  -16.7751   15.1045  -24.5814 C   0  0  0  0  0  0  0  0  0  0  0  0
  9 10  1  0  0  0
 10 11  1  0  0  0
 11 12  2  0  0  0
 12  1  1  0  0  0
  1  2  2  0  0  0
  2  3  1  0  0  0
  3  4  2  0  0  0
  3  5  1  0  0  0
  5  6  1  0  0  0
  6  7  2  0  0  0
  2 23  1  0  0  0
 23 24  2  0  0  0
 24 25  1  0  0  0
 25 26  1  0  0  0
 25 27  1  0  0  0
 27 28  2  0  0  0
 28 29  1  0  0  0
 29 30  2  0  0  0
 30 31  1  0  0  0
 31 32  2  0  0  0
 12 13  1  0  0  0
 13 14  2  0  0  0
 14 15  1  0  0  0
 15 16  2  0  0  0
 16 17  1  0  0  0
 17 18  2  0  0  0
 15 19  1  0  0  0
 19 20  1  0  0  0
 19 21  1  0  0  0
 19 22  1  0  0  0
 18 10  1  0  0  0
  6  1  1  0  0  0
 32 23  1  0  0  0
 18 13  1  0  0  0
 32 27  1  0  0  0
  5  8  1  0  0  0
M  END
> <minimizedAffinity>
-9.98410

> <CNNscore>
0.4127792120

> <CNNaffinity>
7.0129442215

> <CNN_VS>
2.8947975636

> <CNNaffinity_variance>
0.0817627534

$$$$
[H]c1c([H])c([H])c2c(c1[H])c(C1=C(c3c([H])n(C([H])([H])[H])c4c([H])c([H])c(C(F)(F)F)c([H])c34)C(=O)N([H])C1=O)c([H])n2C([H])([H])[H]


 32 36  0  0  0  0  0  0  0  0999 V2000
  -17.4640   12.2853  -20.2869 C   0  0  0  0  0  0  0  0  0  0  0  0
  -16.7742   11.8659  -21.3247 C   0  0  0  0  0  0  0  0  0  0  0  0
  -15.8321   10.8012  -20.9223 C   0  0  0  0  0  0  0  0  0  0  0  0
  -15.0439   10.2271  -21.7388 O   0  0  0  0  0  0  0  0  0  0  0  0
  -16.0083   10.5997  -19.5504 N   0  0  0  0  0  0  0  0  0  0  0  0
  -17.0301   11.5146  -19.1285 C   0  0  0  0  0  0  0  0  0  0  0  0
  -17.4484   11.5973  -17.9464 O   0  0  0  0  0  0  0  0  0  0  0  0
  -15.5251    9.9467  -18.9279 H   0  0  0  0  0  0  0  0  0  0  0  0
  -21.8832   14.6252  -20.0617 C   0  0  0  0  0  0  0  0  0  0  0  0
  -20.4696   14.3459  -20.1694 N   0  0  0  0  0  0  0  0  0  0  0  0
  -19.8598   13.1528  -20.1507 C   0  0  0  0  0  0  0  0  0  0  0  0
  -18.5011   13.3411  -20.2896 C   0  0  0  0  0  0  0  0  0  0  0  0
  -18.2705   14.6807  -20.3964 C   0  0  0  0  0  0  0  0  0  0  0  0
  -17.1435   15.5046  -20.5481 C   0  0  0  0  0  0  0  0  0  0  0  0
  -17.2241   16.8782  -20.6109 C   0  0  0  0  0  0  0  0  0  0  0  0
  -18.4760   17.4876  -20.5261 C   0  0  0  0  0  0  0  0  0  0  0  0
  -19.5987   16.6708  -20.3849 C   0  0  0  0  0  0  0  0  0  0  0  0
  -19.5243   15.2935  -20.3174 C   0  0  0  0  0  0  0  0  0  0  0  0
  -15.9579   17.6807  -20.7110 C   0  0  0  0  0  0  0  0  0  0  0  0
  -15.3852   17.3569  -21.9388 F   0  0  0  0  0  0  0  0  0  0  0  0
  -16.1719   19.0226  -20.5995 F   0  0  0  0  0  0  0  0  0  0  0  0
  -15.0441   17.2312  -19.7290 F   0  0  0  0  0  0  0  0  0  0  0  0
  -16.9306   12.3046  -22.7121 C   0  0  0  0  0  0  0  0  0  0  0  0
  -17.7911   11.9748  -23.6883 C   0  0  0  0  0  0  0  0  0  0  0  0
  -17.4556   12.6359  -24.8080 N   0  0  0  0  0  0  0  0  0  0  0  0
  -18.0813   12.6317  -26.1293 C   0  0  0  0  0  0  0  0  0  0  0  0
  -16.3621   13.3964  -24.5415 C   0  0  0  0  0  0  0  0  0  0  0  0
  -15.5838   14.2486  -25.3323 C   0  0  0  0  0  0  0  0  0  0  0  0
  -14.4776   14.8932  -24.8168 C   0  0  0  0  0  0  0  0  0  0  0  0
  -14.1188   14.7056  -23.4898 C   0  0  0  0  0  0  0  0  0  0  0  0
  -14.8962   13.8577  -22.6972 C   0  0  0  0  0  0  0  0  0  0  0  0
  -15.9997   13.2185  -23.2314 C   0  0  0  0  0  0  0  0  0  0  0  0
  9 10  1  0  0  0
 10 11  1  0  0  0
 11 12  2  0  0  0
 12  1  1  0  0  0
  1  2  2  0  0  0
  2  3  1  0  0  0
  3  4  2  0  0  0
  3  5  1  0  0  0
  5  6  1  0  0  0
  6  7  2  0  0  0
  2 23  1  0  0  0
 23 24  2  0  0  0
 24 25  1  0  0  0
 25 26  1  0  0  0
 25 27  1  0  0  0
 27 28  2  0  0  0
 28 29  1  0  0  0
 29 30  2  0  0  0
 30 31  1  0  0  0
 31 32  2  0  0  0
 12 13  1  0  0  0
 13 14  2  0  0  0
 14 15  1  0  0  0
 15 16  2  0  0  0
 16 17  1  0  0  0
 17 18  2  0  0  0
 15 19  1  0  0  0
 19 20  1  0  0  0
 19 21  1  0  0  0
 19 22  1  0  0  0
 18 10  1  0  0  0
  6  1  1  0  0  0
 32 23  1  0  0  0
 18 13  1  0  0  0
 32 27  1  0  0  0
  5  8  1  0  0  0
M  END
> <minimizedAffinity>
-7.38514

> <CNNscore>
0.4023174644

> <CNNaffinity>
6.7791862488

> <CNN_VS>
2.7273850441

> <CNNaffinity_variance>
0.3024246097

$$$$
[H]c1c([H])c([H])c2c(c1[H])c(C1=C(c3c([H])n(C([H])([H])[H])c4c([H])c([H])c(C(F)(F)F)c([H])c34)C(=O)N([H])C1=O)c([H])n2C([H])([H])[H]


 32 36  0  0  0  0  0  0  0  0999 V2000
  -17.8570   13.6240  -19.8966 C   0  0  0  0  0  0  0  0  0  0  0  0
  -18.7071   13.5834  -18.8944 C   0  0  0  0  0  0  0  0  0  0  0  0
  -18.9695   12.1849  -18.4964 C   0  0  0  0  0  0  0  0  0  0  0  0
  -19.7602   11.8690  -17.5516 O   0  0  0  0  0  0  0  0  0  0  0  0
  -18.2023   11.3725  -19.3362 N   0  0  0  0  0  0  0  0  0  0  0  0
  -17.4912   12.2509  -20.2203 C   0  0  0  0  0  0  0  0  0  0  0  0
  -16.6948   11.8536  -21.1075 O   0  0  0  0  0  0  0  0  0  0  0  0
  -18.1334   10.3516  -19.3578 H   0  0  0  0  0  0  0  0  0  0  0  0
  -15.9374   18.1751  -20.7077 C   0  0  0  0  0  0  0  0  0  0  0  0
  -16.4860   16.8515  -20.8950 N   0  0  0  0  0  0  0  0  0  0  0  0
  -16.8876   15.9836  -19.9564 C   0  0  0  0  0  0  0  0  0  0  0  0
  -17.3518   14.8403  -20.5715 C   0  0  0  0  0  0  0  0  0  0  0  0
  -17.2329   15.0096  -21.9192 C   0  0  0  0  0  0  0  0  0  0  0  0
  -17.5114   14.2449  -23.0636 C   0  0  0  0  0  0  0  0  0  0  0  0
  -17.2586   14.6918  -24.3417 C   0  0  0  0  0  0  0  0  0  0  0  0
  -16.7063   15.9605  -24.5185 C   0  0  0  0  0  0  0  0  0  0  0  0
  -16.4374   16.7266  -23.3835 C   0  0  0  0  0  0  0  0  0  0  0  0
  -16.6849   16.2828  -22.0993 C   0  0  0  0  0  0  0  0  0  0  0  0
  -17.5314   13.7781  -25.5027 C   0  0  0  0  0  0  0  0  0  0  0  0
  -18.9022   13.5312  -25.4928 F   0  0  0  0  0  0  0  0  0  0  0  0
  -17.1283   14.3028  -26.6948 F   0  0  0  0  0  0  0  0  0  0  0  0
  -16.9129   12.5281  -25.2656 F   0  0  0  0  0  0  0  0  0  0  0  0
  -19.2823   14.7302  -18.1903 C   0  0  0  0  0  0  0  0  0  0  0  0
  -19.0579   15.2741  -16.9837 C   0  0  0  0  0  0  0  0  0  0  0  0
  -19.9109   16.2947  -16.7992 N   0  0  0  0  0  0  0  0  0  0  0  0
  -20.0593   17.2072  -15.6665 C   0  0  0  0  0  0  0  0  0  0  0  0
  -20.6933   16.4005  -17.9047 C   0  0  0  0  0  0  0  0  0  0  0  0
  -21.7510   17.2524  -18.2401 C   0  0  0  0  0  0  0  0  0  0  0  0
  -22.4177   17.1281  -19.4421 C   0  0  0  0  0  0  0  0  0  0  0  0
  -22.0419   16.1466  -20.3478 C   0  0  0  0  0  0  0  0  0  0  0  0
  -20.9838   15.2967  -20.0166 C   0  0  0  0  0  0  0  0  0  0  0  0
  -20.3290   15.4345  -18.8066 C   0  0  0  0  0  0  0  0  0  0  0  0
  9 10  1  0  0  0
 10 11  1  0  0  0
 11 12  2  0  0  0
 12  1  1  0  0  0
  1  2  2  0  0  0
  2  3  1  0  0  0
  3  4  2  0  0  0
  3  5  1  0  0  0
  5  6  1  0  0  0
  6  7  2  0  0  0
  2 23  1  0  0  0
 23 24  2  0  0  0
 24 25  1  0  0  0
 25 26  1  0  0  0
 25 27  1  0  0  0
 27 28  2  0  0  0
 28 29  1  0  0  0
 29 30  2  0  0  0
 30 31  1  0  0  0
 31 32  2  0  0  0
 12 13  1  0  0  0
 13 14  2  0  0  0
 14 15  1  0  0  0
 15 16  2  0  0  0
 16 17  1  0  0  0
 17 18  2  0  0  0
 15 19  1  0  0  0
 19 20  1  0  0  0
 19 21  1  0  0  0
 19 22  1  0  0  0
 18 10  1  0  0  0
  6  1  1  0  0  0
 32 23  1  0  0  0
 18 13  1  0  0  0
 32 27  1  0  0  0
  5  8  1  0  0  0
M  END
> <minimizedAffinity>
-8.78119

> <CNNscore>
0.3932495117

> <CNNaffinity>
6.6874299049

> <CNN_VS>
2.6298284531

> <CNNaffinity_variance>
0.2108024806

$$$$
[H]c1c([H])c([H])c2c(c1[H])c(C1=C(c3c([H])n(C([H])([H])[H])c4c([H])c([H])c(C(F)(F)F)c([H])c34)C(=O)N([H])C1=O)c([H])n2C([H])([H])[H]


 32 36  0  0  0  0  0  0  0  0999 V2000
  -19.1666   10.8492  -17.3055 C   0  0  0  0  0  0  0  0  0  0  0  0
  -19.7834    9.9572  -16.5621 C   0  0  0  0  0  0  0  0  0  0  0  0
  -19.1026    8.6491  -16.6539 C   0  0  0  0  0  0  0  0  0  0  0  0
  -19.5015    7.6139  -16.0319 O   0  0  0  0  0  0  0  0  0  0  0  0
  -18.0121    8.8177  -17.5120 N   0  0  0  0  0  0  0  0  0  0  0  0
  -18.0267   10.1902  -17.9304 C   0  0  0  0  0  0  0  0  0  0  0  0
  -17.1749   10.6928  -18.7055 O   0  0  0  0  0  0  0  0  0  0  0  0
  -17.3184    8.1289  -17.8152 H   0  0  0  0  0  0  0  0  0  0  0  0
  -20.9535   15.4403  -16.4203 C   0  0  0  0  0  0  0  0  0  0  0  0
  -20.3351   14.2930  -17.0440 N   0  0  0  0  0  0  0  0  0  0  0  0
  -20.1890   13.0590  -16.5424 C   0  0  0  0  0  0  0  0  0  0  0  0
  -19.5494   12.2688  -17.4738 C   0  0  0  0  0  0  0  0  0  0  0  0
  -19.2968   13.0347  -18.5732 C   0  0  0  0  0  0  0  0  0  0  0  0
  -18.6879   12.8405  -19.8235 C   0  0  0  0  0  0  0  0  0  0  0  0
  -18.5590   13.8452  -20.7570 C   0  0  0  0  0  0  0  0  0  0  0  0
  -19.0566   15.1139  -20.4592 C   0  0  0  0  0  0  0  0  0  0  0  0
  -19.6709   15.3074  -19.2212 C   0  0  0  0  0  0  0  0  0  0  0  0
  -19.7997   14.3055  -18.2795 C   0  0  0  0  0  0  0  0  0  0  0  0
  -17.8365   13.5597  -22.0429 C   0  0  0  0  0  0  0  0  0  0  0  0
  -16.5653   14.1135  -21.9088 F   0  0  0  0  0  0  0  0  0  0  0  0
  -17.7721   12.2283  -22.3292 F   0  0  0  0  0  0  0  0  0  0  0  0
  -18.4588   14.2734  -23.0939 F   0  0  0  0  0  0  0  0  0  0  0  0
  -20.9368   10.1923  -15.6927 C   0  0  0  0  0  0  0  0  0  0  0  0
  -22.2590   10.2535  -15.9172 C   0  0  0  0  0  0  0  0  0  0  0  0
  -22.8833   10.5599  -14.7684 N   0  0  0  0  0  0  0  0  0  0  0  0
  -24.3077   10.7274  -14.4845 C   0  0  0  0  0  0  0  0  0  0  0  0
  -21.9435   10.6993  -13.7975 C   0  0  0  0  0  0  0  0  0  0  0  0
  -22.0228   11.0370  -12.4422 C   0  0  0  0  0  0  0  0  0  0  0  0
  -20.8886   11.1470  -11.6636 C   0  0  0  0  0  0  0  0  0  0  0  0
  -19.6383   10.9181  -12.2195 C   0  0  0  0  0  0  0  0  0  0  0  0
  -19.5567   10.5775  -13.5718 C   0  0  0  0  0  0  0  0  0  0  0  0
  -20.7036   10.4744  -14.3372 C   0  0  0  0  0  0  0  0  0  0  0  0
  9 10  1  0  0  0
 10 11  1  0  0  0
 11 12  2  0  0  0
 12  1  1  0  0  0
  1  2  2  0  0  0
  2  3  1  0  0  0
  3  4  2  0  0  0
  3  5  1  0  0  0
  5  6  1  0  0  0
  6  7  2  0  0  0
  2 23  1  0  0  0
 23 24  2  0  0  0
 24 25  1  0  0  0
 25 26  1  0  0  0
 25 27  1  0  0  0
 27 28  2  0  0  0
 28 29  1  0  0  0
 29 30  2  0  0  0
 30 31  1  0  0  0
 31 32  2  0  0  0
 12 13  1  0  0  0
 13 14  2  0  0  0
 14 15  1  0  0  0
 15 16  2  0  0  0
 16 17  1  0  0  0
 17 18  2  0  0  0
 15 19  1  0  0  0
 19 20  1  0  0  0
 19 21  1  0  0  0
 19 22  1  0  0  0
 18 10  1  0  0  0
  6  1  1  0  0  0
 32 23  1  0  0  0
 18 13  1  0  0  0
 32 27  1  0  0  0
  5  8  1  0  0  0
M  END
> <minimizedAffinity>
-8.81733

> <CNNscore>
0.3928298056

> <CNNaffinity>
6.1877417564

> <CNN_VS>
2.4307293892

> <CNNaffinity_variance>
0.1395526826

$$$$
[H]c1c([H])c([H])c2c(c1[H])c(C1=C(c3c([H])n(C([H])([H])[H])c4c([H])c([H])c(C(F)(F)F)c([H])c34)C(=O)N([H])C1=O)c([H])n2C([H])([H])[H]


 32 36  0  0  0  0  0  0  0  0999 V2000
  -17.8529   13.6298  -21.4217 C   0  0  0  0  0  0  0  0  0  0  0  0
  -16.8685   13.2156  -22.1886 C   0  0  0  0  0  0  0  0  0  0  0  0
  -16.4475   11.8542  -21.7980 C   0  0  0  0  0  0  0  0  0  0  0  0
  -15.5092   11.2240  -22.3809 O   0  0  0  0  0  0  0  0  0  0  0  0
  -17.2626   11.4673  -20.7303 N   0  0  0  0  0  0  0  0  0  0  0  0
  -18.1562   12.5613  -20.4781 C   0  0  0  0  0  0  0  0  0  0  0  0
  -19.0381   12.5501  -19.5829 O   0  0  0  0  0  0  0  0  0  0  0  0
  -17.2566   10.5923  -20.1995 H   0  0  0  0  0  0  0  0  0  0  0  0
  -20.1296   17.7143  -23.2073 C   0  0  0  0  0  0  0  0  0  0  0  0
  -19.5559   16.7246  -22.3246 N   0  0  0  0  0  0  0  0  0  0  0  0
  -18.9406   15.5810  -22.6549 C   0  0  0  0  0  0  0  0  0  0  0  0
  -18.5391   14.9385  -21.5029 C   0  0  0  0  0  0  0  0  0  0  0  0
  -18.9162   15.7050  -20.4402 C   0  0  0  0  0  0  0  0  0  0  0  0
  -18.8157   15.6164  -19.0424 C   0  0  0  0  0  0  0  0  0  0  0  0
  -19.3260   16.5737  -18.1935 C   0  0  0  0  0  0  0  0  0  0  0  0
  -19.9683   17.6867  -18.7362 C   0  0  0  0  0  0  0  0  0  0  0  0
  -20.0611   17.7823  -20.1254 C   0  0  0  0  0  0  0  0  0  0  0  0
  -19.5552   16.8242  -20.9816 C   0  0  0  0  0  0  0  0  0  0  0  0
  -19.2264   16.3624  -16.7094 C   0  0  0  0  0  0  0  0  0  0  0  0
  -18.4246   15.2379  -16.5271 F   0  0  0  0  0  0  0  0  0  0  0  0
  -18.7215   17.4458  -16.0536 F   0  0  0  0  0  0  0  0  0  0  0  0
  -20.5005   16.0134  -16.2032 F   0  0  0  0  0  0  0  0  0  0  0  0
  -16.2875   13.9304  -23.3258 C   0  0  0  0  0  0  0  0  0  0  0  0
  -15.4544   14.9785  -23.4233 C   0  0  0  0  0  0  0  0  0  0  0  0
  -15.2801   15.2787  -24.7205 N   0  0  0  0  0  0  0  0  0  0  0  0
  -14.4635   16.3170  -25.3471 C   0  0  0  0  0  0  0  0  0  0  0  0
  -16.0165   14.4099  -25.4609 C   0  0  0  0  0  0  0  0  0  0  0  0
  -16.2290   14.2802  -26.8376 C   0  0  0  0  0  0  0  0  0  0  0  0
  -17.0705   13.3108  -27.3445 C   0  0  0  0  0  0  0  0  0  0  0  0
  -17.7234   12.4382  -26.4860 C   0  0  0  0  0  0  0  0  0  0  0  0
  -17.5103   12.5636  -25.1111 C   0  0  0  0  0  0  0  0  0  0  0  0
  -16.6655   13.5423  -24.6211 C   0  0  0  0  0  0  0  0  0  0  0  0
  9 10  1  0  0  0
 10 11  1  0  0  0
 11 12  2  0  0  0
 12  1  1  0  0  0
  1  2  2  0  0  0
  2  3  1  0  0  0
  3  4  2  0  0  0
  3  5  1  0  0  0
  5  6  1  0  0  0
  6  7  2  0  0  0
  2 23  1  0  0  0
 23 24  2  0  0  0
 24 25  1  0  0  0
 25 26  1  0  0  0
 25 27  1  0  0  0
 27 28  2  0  0  0
 28 29  1  0  0  0
 29 30  2  0  0  0
 30 31  1  0  0  0
 31 32  2  0  0  0
 12 13  1  0  0  0
 13 14  2  0  0  0
 14 15  1  0  0  0
 15 16  2  0  0  0
 16 17  1  0  0  0
 17 18  2  0  0  0
 15 19  1  0  0  0
 19 20  1  0  0  0
 19 21  1  0  0  0
 19 22  1  0  0  0
 18 10  1  0  0  0
  6  1  1  0  0  0
 32 23  1  0  0  0
 18 13  1  0  0  0
 32 27  1  0  0  0
  5  8  1  0  0  0
M  END
> <minimizedAffinity>
-8.83817

> <CNNscore>
0.2811733484

> <CNNaffinity>
6.7325987816

> <CNN_VS>
1.8930273056

> <CNNaffinity_variance>
0.3104485571

$$$$
[H]c1c([H])c([H])c2c(c1[H])c(C1=C(c3c([H])n(C([H])([H])[H])c4c([H])c([H])c(C(F)(F)F)c([H])c34)C(=O)N([H])C1=O)c([H])n2C([H])([H])[H]


 32 36  0  0  0  0  0  0  0  0999 V2000
  -19.1524   18.2525  -20.5858 C   0  0  0  0  0  0  0  0  0  0  0  0
  -18.1749   17.3850  -20.7295 C   0  0  0  0  0  0  0  0  0  0  0  0
  -16.9056   18.0818  -21.0240 C   0  0  0  0  0  0  0  0  0  0  0  0
  -15.8058   17.4709  -21.2108 O   0  0  0  0  0  0  0  0  0  0  0  0
  -17.1880   19.4507  -21.0420 N   0  0  0  0  0  0  0  0  0  0  0  0
  -18.5895   19.5849  -20.7648 C   0  0  0  0  0  0  0  0  0  0  0  0
  -19.1848   20.6894  -20.6957 O   0  0  0  0  0  0  0  0  0  0  0  0
  -16.5564   20.2364  -21.2185 H   0  0  0  0  0  0  0  0  0  0  0  0
  -23.3797   17.1788  -18.1298 C   0  0  0  0  0  0  0  0  0  0  0  0
  -22.4219   17.4811  -19.1686 N   0  0  0  0  0  0  0  0  0  0  0  0
  -21.1044   17.6898  -19.0417 C   0  0  0  0  0  0  0  0  0  0  0  0
  -20.5677   17.9398  -20.2869 C   0  0  0  0  0  0  0  0  0  0  0  0
  -21.5787   17.8833  -21.2001 C   0  0  0  0  0  0  0  0  0  0  0  0
  -21.6972   18.0459  -22.5898 C   0  0  0  0  0  0  0  0  0  0  0  0
  -22.8988   17.9426  -23.2552 C   0  0  0  0  0  0  0  0  0  0  0  0
  -24.0541   17.6593  -22.5266 C   0  0  0  0  0  0  0  0  0  0  0  0
  -23.9379   17.4878  -21.1465 C   0  0  0  0  0  0  0  0  0  0  0  0
  -22.7369   17.5939  -20.4730 C   0  0  0  0  0  0  0  0  0  0  0  0
  -22.9383   18.1946  -24.7358 C   0  0  0  0  0  0  0  0  0  0  0  0
  -21.9660   19.1578  -24.9950 F   0  0  0  0  0  0  0  0  0  0  0  0
  -22.7290   17.0652  -25.4704 F   0  0  0  0  0  0  0  0  0  0  0  0
  -24.1745   18.7946  -25.0722 F   0  0  0  0  0  0  0  0  0  0  0  0
  -18.2629   15.9342  -20.5592 C   0  0  0  0  0  0  0  0  0  0  0  0
  -18.3488   14.9114  -21.4244 C   0  0  0  0  0  0  0  0  0  0  0  0
  -18.4674   13.7651  -20.7351 N   0  0  0  0  0  0  0  0  0  0  0  0
  -18.5782   12.3864  -21.2090 C   0  0  0  0  0  0  0  0  0  0  0  0
  -18.4602   14.0629  -19.4097 C   0  0  0  0  0  0  0  0  0  0  0  0
  -18.5813   13.2752  -18.2599 C   0  0  0  0  0  0  0  0  0  0  0  0
  -18.5765   13.8401  -17.0006 C   0  0  0  0  0  0  0  0  0  0  0  0
  -18.4464   15.2136  -16.8548 C   0  0  0  0  0  0  0  0  0  0  0  0
  -18.3219   16.0020  -18.0012 C   0  0  0  0  0  0  0  0  0  0  0  0
  -18.3313   15.4189  -19.2549 C   0  0  0  0  0  0  0  0  0  0  0  0
  9 10  1  0  0  0
 10 11  1  0  0  0
 11 12  2  0  0  0
 12  1  1  0  0  0
  1  2  2  0  0  0
  2  3  1  0  0  0
  3  4  2  0  0  0
  3  5  1  0  0  0
  5  6  1  0  0  0
  6  7  2  0  0  0
  2 23  1  0  0  0
 23 24  2  0  0  0
 24 25  1  0  0  0
 25 26  1  0  0  0
 25 27  1  0  0  0
 27 28  2  0  0  0
 28 29  1  0  0  0
 29 30  2  0  0  0
 30 31  1  0  0  0
 31 32  2  0  0  0
 12 13  1  0  0  0
 13 14  2  0  0  0
 14 15  1  0  0  0
 15 16  2  0  0  0
 16 17  1  0  0  0
 17 18  2  0  0  0
 15 19  1  0  0  0
 19 20  1  0  0  0
 19 21  1  0  0  0
 19 22  1  0  0  0
 18 10  1  0  0  0
  6  1  1  0  0  0
 32 23  1  0  0  0
 18 13  1  0  0  0
 32 27  1  0  0  0
  5  8  1  0  0  0
M  END
> <minimizedAffinity>
-7.13072

> <CNNscore>
0.2342493385

> <CNNaffinity>
5.9924278259

> <CNN_VS>
1.4037222862

> <CNNaffinity_variance>
0.1171761304

$$$$
[H]c1c(C(C([H])([H])[H])(C([H])([H])[H])C([H])([H])[H])noc1N([H])C(=O)[C@]1([H])N(C(=O)c2c([H])c([H])c([H])c(C(F)(F)F)c2[H])C([H])([H])c2c([H])c([H])c([H])c([H])c2C1([H])[H]


 35 38  0  0  0  0  0  0  0  0999 V2000
  -18.1778   13.3611  -20.4885 C   0  0  0  0  0  0  0  0  0  0  0  0
  -18.8550   12.8288  -21.7982 C   0  0  0  0  0  0  0  0  0  0  0  0
  -17.8884   12.9604  -22.9184 C   0  0  0  0  0  0  0  0  0  0  0  0
  -18.4113   12.9472  -24.2238 C   0  0  0  0  0  0  0  0  0  0  0  0
  -17.6275   13.0841  -25.3285 C   0  0  0  0  0  0  0  0  0  0  0  0
  -16.2562   13.2440  -25.0907 C   0  0  0  0  0  0  0  0  0  0  0  0
  -15.7008   13.2678  -23.8261 C   0  0  0  0  0  0  0  0  0  0  0  0
  -16.5565   13.1171  -22.7393 C   0  0  0  0  0  0  0  0  0  0  0  0
  -15.8764   13.0949  -21.4054 C   0  0  0  0  0  0  0  0  0  0  0  0
  -16.9078   12.6920  -20.4437 N   0  0  0  0  0  0  0  0  0  0  0  0
  -16.6705   11.5860  -19.6230 C   0  0  0  0  0  0  0  0  0  0  0  0
  -15.5976   10.9707  -19.5681 O   0  0  0  0  0  0  0  0  0  0  0  0
  -17.7660   11.0919  -18.7630 C   0  0  0  0  0  0  0  0  0  0  0  0
  -17.7589    9.7379  -18.4161 C   0  0  0  0  0  0  0  0  0  0  0  0
  -18.7105    9.2317  -17.5562 C   0  0  0  0  0  0  0  0  0  0  0  0
  -19.6932   10.0442  -17.0118 C   0  0  0  0  0  0  0  0  0  0  0  0
  -19.6745   11.3798  -17.3599 C   0  0  0  0  0  0  0  0  0  0  0  0
  -18.7401   11.8772  -18.2130 C   0  0  0  0  0  0  0  0  0  0  0  0
  -20.7196   12.2773  -16.7460 C   0  0  0  0  0  0  0  0  0  0  0  0
  -21.1909   13.1853  -17.6467 F   0  0  0  0  0  0  0  0  0  0  0  0
  -21.7515   11.4801  -16.2398 F   0  0  0  0  0  0  0  0  0  0  0  0
  -20.1197   12.9067  -15.6596 F   0  0  0  0  0  0  0  0  0  0  0  0
  -19.0211   15.4920  -21.5668 N   0  0  0  0  0  0  0  0  0  0  0  0
  -18.1606   14.8094  -20.6720 C   0  0  0  0  0  0  0  0  0  0  0  0
  -17.3466   15.5735  -20.0207 O   0  0  0  0  0  0  0  0  0  0  0  0
  -19.7504   14.9846  -22.1238 H   0  0  0  0  0  0  0  0  0  0  0  0
  -19.4465   19.1250  -21.5507 C   0  0  0  0  0  0  0  0  0  0  0  0
  -19.8619   17.8342  -21.2240 C   0  0  0  0  0  0  0  0  0  0  0  0
  -18.9109   16.9239  -21.7106 C   0  0  0  0  0  0  0  0  0  0  0  0
  -17.9851   17.6648  -22.2860 O   0  0  0  0  0  0  0  0  0  0  0  0
  -18.2867   18.9094  -22.1992 N   0  0  0  0  0  0  0  0  0  0  0  0
  -20.2961   21.1954  -22.5133 C   0  0  0  0  0  0  0  0  0  0  0  0
  -20.1717   20.3797  -21.2528 C   0  0  0  0  0  0  0  0  0  0  0  0
  -19.4292   21.2009  -20.2287 C   0  0  0  0  0  0  0  0  0  0  0  0
  -21.5806   20.0667  -20.7509 C   0  0  0  0  0  0  0  0  0  0  0  0
 32 33  1  0  0  0
 33 34  1  0  0  0
 33 35  1  0  0  0
 33 27  1  0  0  0
 27 28  1  0  0  0
 28 29  2  0  0  0
 29 23  1  0  0  0
 23 24  1  0  0  0
 24 25  2  0  0  0
 24  1  1  0  0  0
  1  2  1  0  0  0
  2  3  1  0  0  0
  3  4  2  0  0  0
  4  5  1  0  0  0
  5  6  2  0  0  0
  6  7  1  0  0  0
  7  8  2  0  0  0
  8  9  1  0  0  0
  9 10  1  0  0  0
 10 11  1  0  0  0
 11 12  2  0  0  0
 11 13  1  0  0  0
 13 14  2  0  0  0
 14 15  1  0  0  0
 15 16  2  0  0  0
 16 17  1  0  0  0
 17 18  2  0  0  0
 17 19  1  0  0  0
 19 20  1  0  0  0
 19 21  1  0  0  0
 19 22  1  0  0  0
 29 30  1  0  0  0
 30 31  1  0  0  0
 31 27  2  0  0  0
 10  1  1  0  0  0
 18 13  1  0  0  0
  8  3  1  0  0  0
 23 26  1  0  0  0
M  END
> <minimizedAffinity>
-5.82862

> <CNNscore>
0.4013746381

> <CNNaffinity>
6.7092666626

> <CNN_VS>
2.6929295063

> <CNNaffinity_variance>
1.1367542744

$$$$
[H]c1c(C(C([H])([H])[H])(C([H])([H])[H])C([H])([H])[H])noc1N([H])C(=O)[C@]1([H])N(C(=O)c2c([H])c([H])c([H])c(C(F)(F)F)c2[H])C([H])([H])c2c([H])c([H])c([H])c([H])c2C1([H])[H]


 35 38  0  0  0  0  0  0  0  0999 V2000
  -19.7743   13.4845  -16.6004 C   0  0  0  0  0  0  0  0  0  0  0  0
  -18.8865   12.8418  -15.4798 C   0  0  0  0  0  0  0  0  0  0  0  0
  -19.7668   12.0820  -14.5555 C   0  0  0  0  0  0  0  0  0  0  0  0
  -19.2585   11.7916  -13.2768 C   0  0  0  0  0  0  0  0  0  0  0  0
  -19.9805   11.1231  -12.3359 C   0  0  0  0  0  0  0  0  0  0  0  0
  -21.2733   10.7387  -12.7145 C   0  0  0  0  0  0  0  0  0  0  0  0
  -21.8139   11.0073  -13.9571 C   0  0  0  0  0  0  0  0  0  0  0  0
  -21.0216   11.6895  -14.8751 C   0  0  0  0  0  0  0  0  0  0  0  0
  -21.6528   11.8929  -16.2176 C   0  0  0  0  0  0  0  0  0  0  0  0
  -20.5831   12.4004  -17.0833 N   0  0  0  0  0  0  0  0  0  0  0  0
  -20.2996   11.7242  -18.2731 C   0  0  0  0  0  0  0  0  0  0  0  0
  -20.9599   10.7746  -18.7146 O   0  0  0  0  0  0  0  0  0  0  0  0
  -19.1275   12.1465  -19.0678 C   0  0  0  0  0  0  0  0  0  0  0  0
  -18.9829   13.5104  -19.3371 C   0  0  0  0  0  0  0  0  0  0  0  0
  -17.8725   13.9764  -20.0087 C   0  0  0  0  0  0  0  0  0  0  0  0
  -16.8726   13.1137  -20.4311 C   0  0  0  0  0  0  0  0  0  0  0  0
  -17.0313   11.7727  -20.1451 C   0  0  0  0  0  0  0  0  0  0  0  0
  -18.1295   11.3128  -19.4886 C   0  0  0  0  0  0  0  0  0  0  0  0
  -15.9325   10.8318  -20.5714 C   0  0  0  0  0  0  0  0  0  0  0  0
  -16.4281    9.6140  -20.9309 F   0  0  0  0  0  0  0  0  0  0  0  0
  -15.2217   11.4220  -21.6217 F   0  0  0  0  0  0  0  0  0  0  0  0
  -15.0566   10.7243  -19.4955 F   0  0  0  0  0  0  0  0  0  0  0  0
  -19.9986   15.9123  -15.9150 N   0  0  0  0  0  0  0  0  0  0  0  0
  -20.4628   14.5737  -15.9142 C   0  0  0  0  0  0  0  0  0  0  0  0
  -21.5561   14.3842  -15.2513 O   0  0  0  0  0  0  0  0  0  0  0  0
  -19.1424   16.1974  -16.4488 H   0  0  0  0  0  0  0  0  0  0  0  0
  -22.3627   18.4021  -14.6532 C   0  0  0  0  0  0  0  0  0  0  0  0
  -21.9611   17.4453  -15.5853 C   0  0  0  0  0  0  0  0  0  0  0  0
  -20.7246   16.9199  -15.1796 C   0  0  0  0  0  0  0  0  0  0  0  0
  -20.4341   17.5458  -14.0565 O   0  0  0  0  0  0  0  0  0  0  0  0
  -21.3574   18.3861  -13.7581 N   0  0  0  0  0  0  0  0  0  0  0  0
  -24.0993   19.2568  -16.1327 C   0  0  0  0  0  0  0  0  0  0  0  0
  -23.5931   19.2213  -14.7141 C   0  0  0  0  0  0  0  0  0  0  0  0
  -23.3198   20.6376  -14.2734 C   0  0  0  0  0  0  0  0  0  0  0  0
  -24.6816   18.6018  -13.8388 C   0  0  0  0  0  0  0  0  0  0  0  0
 32 33  1  0  0  0
 33 34  1  0  0  0
 33 35  1  0  0  0
 33 27  1  0  0  0
 27 28  1  0  0  0
 28 29  2  0  0  0
 29 23  1  0  0  0
 23 24  1  0  0  0
 24 25  2  0  0  0
 24  1  1  0  0  0
  1  2  1  0  0  0
  2  3  1  0  0  0
  3  4  2  0  0  0
  4  5  1  0  0  0
  5  6  2  0  0  0
  6  7  1  0  0  0
  7  8  2  0  0  0
  8  9  1  0  0  0
  9 10  1  0  0  0
 10 11  1  0  0  0
 11 12  2  0  0  0
 11 13  1  0  0  0
 13 14  2  0  0  0
 14 15  1  0  0  0
 15 16  2  0  0  0
 16 17  1  0  0  0
 17 18  2  0  0  0
 17 19  1  0  0  0
 19 20  1  0  0  0
 19 21  1  0  0  0
 19 22  1  0  0  0
 29 30  1  0  0  0
 30 31  1  0  0  0
 31 27  2  0  0  0
 10  1  1  0  0  0
 18 13  1  0  0  0
  8  3  1  0  0  0
 23 26  1  0  0  0
M  END
> <minimizedAffinity>
3.47084

> <CNNscore>
0.3238519132

> <CNNaffinity>
6.0268983841

> <CNN_VS>
1.9518225193

> <CNNaffinity_variance>
1.6137399673

$$$$
[H]c1c(C(C([H])([H])[H])(C([H])([H])[H])C([H])([H])[H])noc1N([H])C(=O)[C@]1([H])N(C(=O)c2c([H])c([H])c([H])c(C(F)(F)F)c2[H])C([H])([H])c2c([H])c([H])c([H])c([H])c2C1([H])[H]


 35 38  0  0  0  0  0  0  0  0999 V2000
  -20.0806   13.0979  -16.3462 C   0  0  0  0  0  0  0  0  0  0  0  0
  -19.0785   12.6334  -15.2339 C   0  0  0  0  0  0  0  0  0  0  0  0
  -19.8348   11.8840  -14.1980 C   0  0  0  0  0  0  0  0  0  0  0  0
  -19.2336   11.7503  -12.9338 C   0  0  0  0  0  0  0  0  0  0  0  0
  -19.8398   11.1065  -11.8986 C   0  0  0  0  0  0  0  0  0  0  0  0
  -21.1111   10.5812  -12.1640 C   0  0  0  0  0  0  0  0  0  0  0  0
  -21.7406   10.6937  -13.3886 C   0  0  0  0  0  0  0  0  0  0  0  0
  -21.0643   11.3591  -14.4064 C   0  0  0  0  0  0  0  0  0  0  0  0
  -21.7834   11.3904  -15.7195 C   0  0  0  0  0  0  0  0  0  0  0  0
  -20.8128   11.9107  -16.6881 N   0  0  0  0  0  0  0  0  0  0  0  0
  -20.5341   11.1606  -17.8340 C   0  0  0  0  0  0  0  0  0  0  0  0
  -21.1287   10.1232  -18.1549 O   0  0  0  0  0  0  0  0  0  0  0  0
  -19.4501   11.6114  -18.7314 C   0  0  0  0  0  0  0  0  0  0  0  0
  -19.4940   12.9307  -19.1909 C   0  0  0  0  0  0  0  0  0  0  0  0
  -18.4734   13.4339  -19.9697 C   0  0  0  0  0  0  0  0  0  0  0  0
  -17.3805   12.6538  -20.3152 C   0  0  0  0  0  0  0  0  0  0  0  0
  -17.3531   11.3576  -19.8415 C   0  0  0  0  0  0  0  0  0  0  0  0
  -18.3627   10.8598  -19.0792 C   0  0  0  0  0  0  0  0  0  0  0  0
  -16.1518   10.5128  -20.1846 C   0  0  0  0  0  0  0  0  0  0  0  0
  -16.4584    9.1847  -20.1864 F   0  0  0  0  0  0  0  0  0  0  0  0
  -15.6579   10.9226  -21.4275 F   0  0  0  0  0  0  0  0  0  0  0  0
  -15.1729   10.8050  -19.2399 F   0  0  0  0  0  0  0  0  0  0  0  0
  -22.1863   14.4599  -15.9924 N   0  0  0  0  0  0  0  0  0  0  0  0
  -20.8266   14.1795  -15.7099 C   0  0  0  0  0  0  0  0  0  0  0  0
  -20.2866   14.9631  -14.8353 O   0  0  0  0  0  0  0  0  0  0  0  0
  -22.7431   13.8703  -16.6571 H   0  0  0  0  0  0  0  0  0  0  0  0
  -23.5723   16.9259  -13.6734 C   0  0  0  0  0  0  0  0  0  0  0  0
  -22.8449   15.7689  -13.9521 C   0  0  0  0  0  0  0  0  0  0  0  0
  -22.8359   15.5724  -15.3416 C   0  0  0  0  0  0  0  0  0  0  0  0
  -23.5243   16.5807  -15.8384 O   0  0  0  0  0  0  0  0  0  0  0  0
  -23.9438   17.3460  -14.8971 N   0  0  0  0  0  0  0  0  0  0  0  0
  -24.6345   16.4725  -11.5284 C   0  0  0  0  0  0  0  0  0  0  0  0
  -23.8544   17.4807  -12.3312 C   0  0  0  0  0  0  0  0  0  0  0  0
  -24.6740   18.7427  -12.4313 C   0  0  0  0  0  0  0  0  0  0  0  0
  -22.5466   17.7632  -11.5931 C   0  0  0  0  0  0  0  0  0  0  0  0
 32 33  1  0  0  0
 33 34  1  0  0  0
 33 35  1  0  0  0
 33 27  1  0  0  0
 27 28  1  0  0  0
 28 29  2  0  0  0
 29 23  1  0  0  0
 23 24  1  0  0  0
 24 25  2  0  0  0
 24  1  1  0  0  0
  1  2  1  0  0  0
  2  3  1  0  0  0
  3  4  2  0  0  0
  4  5  1  0  0  0
  5  6  2  0  0  0
  6  7  1  0  0  0
  7  8  2  0  0  0
  8  9  1  0  0  0
  9 10  1  0  0  0
 10 11  1  0  0  0
 11 12  2  0  0  0
 11 13  1  0  0  0
 13 14  2  0  0  0
 14 15  1  0  0  0
 15 16  2  0  0  0
 16 17  1  0  0  0
 17 18  2  0  0  0
 17 19  1  0  0  0
 19 20  1  0  0  0
 19 21  1  0  0  0
 19 22  1  0  0  0
 29 30  1  0  0  0
 30 31  1  0  0  0
 31 27  2  0  0  0
 10  1  1  0  0  0
 18 13  1  0  0  0
  8  3  1  0  0  0
 23 26  1  0  0  0
M  END
> <minimizedAffinity>
5.13157

> <CNNscore>
0.3125854135

> <CNNaffinity>
6.0307602882

> <CNN_VS>
1.8851276636

> <CNNaffinity_variance>
2.0714526176

$$$$
[H]c1c(C(C([H])([H])[H])(C([H])([H])[H])C([H])([H])[H])noc1N([H])C(=O)[C@]1([H])N(C(=O)c2c([H])c([H])c([H])c(C(F)(F)F)c2[H])C([H])([H])c2c([H])c([H])c([H])c([H])c2C1([H])[H]


 35 38  0  0  0  0  0  0  0  0999 V2000
  -19.8177   14.0896  -18.3882 C   0  0  0  0  0  0  0  0  0  0  0  0
  -18.7954   14.9900  -17.6129 C   0  0  0  0  0  0  0  0  0  0  0  0
  -19.5479   16.0489  -16.8927 C   0  0  0  0  0  0  0  0  0  0  0  0
  -18.8298   17.1907  -16.4948 C   0  0  0  0  0  0  0  0  0  0  0  0
  -19.4155   18.2368  -15.8500 C   0  0  0  0  0  0  0  0  0  0  0  0
  -20.7892   18.1136  -15.6045 C   0  0  0  0  0  0  0  0  0  0  0  0
  -21.5341   17.0131  -15.9819 C   0  0  0  0  0  0  0  0  0  0  0  0
  -20.8737   15.9757  -16.6328 C   0  0  0  0  0  0  0  0  0  0  0  0
  -21.7331   14.7934  -16.9585 C   0  0  0  0  0  0  0  0  0  0  0  0
  -20.8094   13.7465  -17.4076 N   0  0  0  0  0  0  0  0  0  0  0  0
  -20.8338   12.5045  -16.7673 C   0  0  0  0  0  0  0  0  0  0  0  0
  -21.6591   12.1762  -15.9049 O   0  0  0  0  0  0  0  0  0  0  0  0
  -19.8047   11.5040  -17.1189 C   0  0  0  0  0  0  0  0  0  0  0  0
  -19.9086   10.2352  -16.5419 C   0  0  0  0  0  0  0  0  0  0  0  0
  -19.0238    9.2357  -16.8872 C   0  0  0  0  0  0  0  0  0  0  0  0
  -18.0144    9.4562  -17.8118 C   0  0  0  0  0  0  0  0  0  0  0  0
  -17.9373   10.7133  -18.3766 C   0  0  0  0  0  0  0  0  0  0  0  0
  -18.8059   11.7005  -18.0310 C   0  0  0  0  0  0  0  0  0  0  0  0
  -16.8632   10.9520  -19.4081 C   0  0  0  0  0  0  0  0  0  0  0  0
  -16.8618    9.9794  -20.3630 F   0  0  0  0  0  0  0  0  0  0  0  0
  -17.0581   12.2175  -19.9712 F   0  0  0  0  0  0  0  0  0  0  0  0
  -15.6521   10.9916  -18.7242 F   0  0  0  0  0  0  0  0  0  0  0  0
  -19.5029   16.0440  -19.9679 N   0  0  0  0  0  0  0  0  0  0  0  0
  -20.2461   14.9318  -19.5010 C   0  0  0  0  0  0  0  0  0  0  0  0
  -21.3477   14.7144  -20.1412 O   0  0  0  0  0  0  0  0  0  0  0  0
  -18.5742   16.2985  -19.5529 H   0  0  0  0  0  0  0  0  0  0  0  0
  -21.2877   18.3755  -22.1493 C   0  0  0  0  0  0  0  0  0  0  0  0
  -21.0248   17.8112  -20.9011 C   0  0  0  0  0  0  0  0  0  0  0  0
  -20.0199   16.8434  -21.0527 C   0  0  0  0  0  0  0  0  0  0  0  0
  -19.7149   16.8588  -22.3350 O   0  0  0  0  0  0  0  0  0  0  0  0
  -20.4320   17.7224  -22.9576 N   0  0  0  0  0  0  0  0  0  0  0  0
  -23.6108   19.0276  -21.8128 C   0  0  0  0  0  0  0  0  0  0  0  0
  -22.2991   19.4140  -22.4451 C   0  0  0  0  0  0  0  0  0  0  0  0
  -22.5122   19.5504  -23.9319 C   0  0  0  0  0  0  0  0  0  0  0  0
  -21.8654   20.7545  -21.8534 C   0  0  0  0  0  0  0  0  0  0  0  0
 32 33  1  0  0  0
 33 34  1  0  0  0
 33 35  1  0  0  0
 33 27  1  0  0  0
 27 28  1  0  0  0
 28 29  2  0  0  0
 29 23  1  0  0  0
 23 24  1  0  0  0
 24 25  2  0  0  0
 24  1  1  0  0  0
  1  2  1  0  0  0
  2  3  1  0  0  0
  3  4  2  0  0  0
  4  5  1  0  0  0
  5  6  2  0  0  0
  6  7  1  0  0  0
  7  8  2  0  0  0
  8  9  1  0  0  0
  9 10  1  0  0  0
 10 11  1  0  0  0
 11 12  2  0  0  0
 11 13  1  0  0  0
 13 14  2  0  0  0
 14 15  1  0  0  0
 15 16  2  0  0  0
 16 17  1  0  0  0
 17 18  2  0  0  0
 17 19  1  0  0  0
 19 20  1  0  0  0
 19 21  1  0  0  0
 19 22  1  0  0  0
 29 30  1  0  0  0
 30 31  1  0  0  0
 31 27  2  0  0  0
 10  1  1  0  0  0
 18 13  1  0  0  0
  8  3  1  0  0  0
 23 26  1  0  0  0
M  END
> <minimizedAffinity>
-8.68260

> <CNNscore>
0.2680434883

> <CNNaffinity>
6.1343369484

> <CNN_VS>
1.6442691088

> <CNNaffinity_variance>
0.2000248134

$$$$
[H]c1c(C(C([H])([H])[H])(C([H])([H])[H])C([H])([H])[H])noc1N([H])C(=O)[C@]1([H])N(C(=O)c2c([H])c([H])c([H])c(C(F)(F)F)c2[H])C([H])([H])c2c([H])c([H])c([H])c([H])c2C1([H])[H]


 35 38  0  0  0  0  0  0  0  0999 V2000
  -17.6992   12.0470  -19.9579 C   0  0  0  0  0  0  0  0  0  0  0  0
  -17.5659   10.6019  -20.5504 C   0  0  0  0  0  0  0  0  0  0  0  0
  -16.1665   10.4049  -21.0082 C   0  0  0  0  0  0  0  0  0  0  0  0
  -15.9325    9.3735  -21.9352 C   0  0  0  0  0  0  0  0  0  0  0  0
  -14.6973    9.1131  -22.4451 C   0  0  0  0  0  0  0  0  0  0  0  0
  -13.6610    9.9403  -21.9930 C   0  0  0  0  0  0  0  0  0  0  0  0
  -13.8468   10.9672  -21.0878 C   0  0  0  0  0  0  0  0  0  0  0  0
  -15.1331   11.1774  -20.6009 C   0  0  0  0  0  0  0  0  0  0  0  0
  -15.2461   12.2683  -19.5814 C   0  0  0  0  0  0  0  0  0  0  0  0
  -16.6034   12.1595  -19.0364 N   0  0  0  0  0  0  0  0  0  0  0  0
  -16.7674   12.0256  -17.6549 C   0  0  0  0  0  0  0  0  0  0  0  0
  -15.8478   12.0977  -16.8292 O   0  0  0  0  0  0  0  0  0  0  0  0
  -18.1213   11.7664  -17.1225 C   0  0  0  0  0  0  0  0  0  0  0  0
  -19.1287   11.4474  -18.0373 C   0  0  0  0  0  0  0  0  0  0  0  0
  -20.3944   11.1216  -17.5979 C   0  0  0  0  0  0  0  0  0  0  0  0
  -20.7028   11.0979  -16.2463 C   0  0  0  0  0  0  0  0  0  0  0  0
  -19.6898   11.4059  -15.3607 C   0  0  0  0  0  0  0  0  0  0  0  0
  -18.4437   11.7335  -15.7946 C   0  0  0  0  0  0  0  0  0  0  0  0
  -20.0077   11.3498  -13.8875 C   0  0  0  0  0  0  0  0  0  0  0  0
  -20.6651   10.2013  -13.5610 F   0  0  0  0  0  0  0  0  0  0  0  0
  -18.8146   11.4753  -13.1680 F   0  0  0  0  0  0  0  0  0  0  0  0
  -20.7775   12.4728  -13.6002 F   0  0  0  0  0  0  0  0  0  0  0  0
  -16.8708   14.0755  -21.2280 N   0  0  0  0  0  0  0  0  0  0  0  0
  -17.6684   12.9082  -21.1363 C   0  0  0  0  0  0  0  0  0  0  0  0
  -18.3780   12.6580  -22.1873 O   0  0  0  0  0  0  0  0  0  0  0  0
  -16.2244   14.3625  -20.4539 H   0  0  0  0  0  0  0  0  0  0  0  0
  -16.3717   15.7143  -24.4600 C   0  0  0  0  0  0  0  0  0  0  0  0
  -16.0323   14.7689  -23.4922 C   0  0  0  0  0  0  0  0  0  0  0  0
  -16.9292   14.8882  -22.4193 C   0  0  0  0  0  0  0  0  0  0  0  0
  -17.7532   15.8579  -22.7630 O   0  0  0  0  0  0  0  0  0  0  0  0
  -17.4386   16.3283  -23.9152 N   0  0  0  0  0  0  0  0  0  0  0  0
  -14.9209   14.7027  -26.1354 C   0  0  0  0  0  0  0  0  0  0  0  0
  -15.6656   15.9507  -25.7384 C   0  0  0  0  0  0  0  0  0  0  0  0
  -14.6685   17.0742  -25.6033 C   0  0  0  0  0  0  0  0  0  0  0  0
  -16.6709   16.2732  -26.8430 C   0  0  0  0  0  0  0  0  0  0  0  0
 32 33  1  0  0  0
 33 34  1  0  0  0
 33 35  1  0  0  0
 33 27  1  0  0  0
 27 28  1  0  0  0
 28 29  2  0  0  0
 29 23  1  0  0  0
 23 24  1  0  0  0
 24 25  2  0  0  0
 24  1  1  0  0  0
  1  2  1  0  0  0
  2  3  1  0  0  0
  3  4  2  0  0  0
  4  5  1  0  0  0
  5  6  2  0  0  0
  6  7  1  0  0  0
  7  8  2  0  0  0
  8  9  1  0  0  0
  9 10  1  0  0  0
 10 11  1  0  0  0
 11 12  2  0  0  0
 11 13  1  0  0  0
 13 14  2  0  0  0
 14 15  1  0  0  0
 15 16  2  0  0  0
 16 17  1  0  0  0
 17 18  2  0  0  0
 17 19  1  0  0  0
 19 20  1  0  0  0
 19 21  1  0  0  0
 19 22  1  0  0  0
 29 30  1  0  0  0
 30 31  1  0  0  0
 31 27  2  0  0  0
 10  1  1  0  0  0
 18 13  1  0  0  0
  8  3  1  0  0  0
 23 26  1  0  0  0
M  END
> <minimizedAffinity>
17.75782

> <CNNscore>
0.2586209476

> <CNNaffinity>
6.0706210136

> <CNN_VS>
1.5699898005

> <CNNaffinity_variance>
0.5144735575

$$$$
[H]c1c(C(C([H])([H])[H])(C([H])([H])[H])C([H])([H])[H])noc1N([H])C(=O)[C@]1([H])N(C(=O)c2c([H])c([H])c([H])c(C(F)(F)F)c2[H])C([H])([H])c2c([H])c([H])c([H])c([H])c2C1([H])[H]


 35 38  0  0  0  0  0  0  0  0999 V2000
  -19.3727   14.6542  -19.5163 C   0  0  0  0  0  0  0  0  0  0  0  0
  -18.4588   15.5976  -18.6607 C   0  0  0  0  0  0  0  0  0  0  0  0
  -19.2331   16.0666  -17.4830 C   0  0  0  0  0  0  0  0  0  0  0  0
  -18.7730   17.2243  -16.8306 C   0  0  0  0  0  0  0  0  0  0  0  0
  -19.4124   17.7628  -15.7560 C   0  0  0  0  0  0  0  0  0  0  0  0
  -20.5687   17.0946  -15.3329 C   0  0  0  0  0  0  0  0  0  0  0  0
  -21.0586   15.9582  -15.9469 C   0  0  0  0  0  0  0  0  0  0  0  0
  -20.3549   15.4557  -17.0370 C   0  0  0  0  0  0  0  0  0  0  0  0
  -20.9127   14.1911  -17.6132 C   0  0  0  0  0  0  0  0  0  0  0  0
  -19.9068   13.7162  -18.5690 N   0  0  0  0  0  0  0  0  0  0  0  0
  -19.4044   12.4193  -18.4317 C   0  0  0  0  0  0  0  0  0  0  0  0
  -19.8239   11.5873  -17.6166 O   0  0  0  0  0  0  0  0  0  0  0  0
  -18.2864   11.9953  -19.3002 C   0  0  0  0  0  0  0  0  0  0  0  0
  -17.5339   10.8890  -18.8962 C   0  0  0  0  0  0  0  0  0  0  0  0
  -16.5260   10.3983  -19.6992 C   0  0  0  0  0  0  0  0  0  0  0  0
  -16.2330   10.9808  -20.9228 C   0  0  0  0  0  0  0  0  0  0  0  0
  -16.9959   12.0655  -21.3061 C   0  0  0  0  0  0  0  0  0  0  0  0
  -17.9851   12.5530  -20.5112 C   0  0  0  0  0  0  0  0  0  0  0  0
  -16.7060   12.6843  -22.6505 C   0  0  0  0  0  0  0  0  0  0  0  0
  -17.6796   12.3890  -23.5576 F   0  0  0  0  0  0  0  0  0  0  0  0
  -16.5668   14.0664  -22.4854 F   0  0  0  0  0  0  0  0  0  0  0  0
  -15.4688   12.1955  -23.0587 F   0  0  0  0  0  0  0  0  0  0  0  0
  -19.9706   16.8765  -20.5737 N   0  0  0  0  0  0  0  0  0  0  0  0
  -20.3167   15.5694  -20.1509 C   0  0  0  0  0  0  0  0  0  0  0  0
  -21.5475   15.2415  -20.3705 O   0  0  0  0  0  0  0  0  0  0  0  0
  -18.9925   17.2433  -20.4831 H   0  0  0  0  0  0  0  0  0  0  0  0
  -22.1506   18.8526  -22.7470 C   0  0  0  0  0  0  0  0  0  0  0  0
  -21.0808   17.9826  -22.5370 C   0  0  0  0  0  0  0  0  0  0  0  0
  -20.9782   17.7270  -21.1609 C   0  0  0  0  0  0  0  0  0  0  0  0
  -21.9548   18.4172  -20.6067 O   0  0  0  0  0  0  0  0  0  0  0  0
  -22.6176   19.0564  -21.5010 N   0  0  0  0  0  0  0  0  0  0  0  0
  -23.8340   20.2273  -23.8477 C   0  0  0  0  0  0  0  0  0  0  0  0
  -22.5893   19.4027  -24.0484 C   0  0  0  0  0  0  0  0  0  0  0  0
  -22.9069   18.2953  -25.0218 C   0  0  0  0  0  0  0  0  0  0  0  0
  -21.5068   20.3131  -24.6266 C   0  0  0  0  0  0  0  0  0  0  0  0
 32 33  1  0  0  0
 33 34  1  0  0  0
 33 35  1  0  0  0
 33 27  1  0  0  0
 27 28  1  0  0  0
 28 29  2  0  0  0
 29 23  1  0  0  0
 23 24  1  0  0  0
 24 25  2  0  0  0
 24  1  1  0  0  0
  1  2  1  0  0  0
  2  3  1  0  0  0
  3  4  2  0  0  0
  4  5  1  0  0  0
  5  6  2  0  0  0
  6  7  1  0  0  0
  7  8  2  0  0  0
  8  9  1  0  0  0
  9 10  1  0  0  0
 10 11  1  0  0  0
 11 12  2  0  0  0
 11 13  1  0  0  0
 13 14  2  0  0  0
 14 15  1  0  0  0
 15 16  2  0  0  0
 16 17  1  0  0  0
 17 18  2  0  0  0
 17 19  1  0  0  0
 19 20  1  0  0  0
 19 21  1  0  0  0
 19 22  1  0  0  0
 29 30  1  0  0  0
 30 31  1  0  0  0
 31 27  2  0  0  0
 10  1  1  0  0  0
 18 13  1  0  0  0
  8  3  1  0  0  0
 23 26  1  0  0  0
M  END
> <minimizedAffinity>
-8.89667

> <CNNscore>
0.2462369800

> <CNNaffinity>
6.3175764084

> <CNN_VS>
1.5556209087

> <CNNaffinity_variance>
0.2279309481

$$$$
[H]c1c(C(C([H])([H])[H])(C([H])([H])[H])C([H])([H])[H])noc1N([H])C(=O)[C@]1([H])N(C(=O)c2c([H])c([H])c([H])c(C(F)(F)F)c2[H])C([H])([H])c2c([H])c([H])c([H])c([H])c2C1([H])[H]


 35 38  0  0  0  0  0  0  0  0999 V2000
  -18.7098   13.6272  -19.4269 C   0  0  0  0  0  0  0  0  0  0  0  0
  -17.7637   14.7114  -18.8054 C   0  0  0  0  0  0  0  0  0  0  0  0
  -18.1385   16.0391  -19.3563 C   0  0  0  0  0  0  0  0  0  0  0  0
  -17.1792   17.0640  -19.2728 C   0  0  0  0  0  0  0  0  0  0  0  0
  -17.3984   18.3145  -19.7643 C   0  0  0  0  0  0  0  0  0  0  0  0
  -18.6451   18.5259  -20.3673 C   0  0  0  0  0  0  0  0  0  0  0  0
  -19.6140   17.5472  -20.4753 C   0  0  0  0  0  0  0  0  0  0  0  0
  -19.3289   16.2917  -19.9477 C   0  0  0  0  0  0  0  0  0  0  0  0
  -20.4471   15.3010  -20.0499 C   0  0  0  0  0  0  0  0  0  0  0  0
  -20.0325   14.1533  -19.2363 N   0  0  0  0  0  0  0  0  0  0  0  0
  -20.8774   13.7089  -18.2157 C   0  0  0  0  0  0  0  0  0  0  0  0
  -22.0158   14.1481  -18.0065 O   0  0  0  0  0  0  0  0  0  0  0  0
  -20.3936   12.6518  -17.3033 C   0  0  0  0  0  0  0  0  0  0  0  0
  -20.6745   12.7912  -15.9412 C   0  0  0  0  0  0  0  0  0  0  0  0
  -20.3162   11.8029  -15.0489 C   0  0  0  0  0  0  0  0  0  0  0  0
  -19.6744   10.6493  -15.4727 C   0  0  0  0  0  0  0  0  0  0  0  0
  -19.4166   10.5284  -16.8234 C   0  0  0  0  0  0  0  0  0  0  0  0
  -19.7642   11.5059  -17.7019 C   0  0  0  0  0  0  0  0  0  0  0  0
  -18.7489    9.2618  -17.2974 C   0  0  0  0  0  0  0  0  0  0  0  0
  -19.6629    8.2942  -17.5910 F   0  0  0  0  0  0  0  0  0  0  0  0
  -17.9540    9.5646  -18.4079 F   0  0  0  0  0  0  0  0  0  0  0  0
  -17.8910    8.8557  -16.2799 F   0  0  0  0  0  0  0  0  0  0  0  0
  -16.9062   13.7904  -21.1975 N   0  0  0  0  0  0  0  0  0  0  0  0
  -18.2356   13.5014  -20.8020 C   0  0  0  0  0  0  0  0  0  0  0  0
  -19.0097   13.1132  -21.7615 O   0  0  0  0  0  0  0  0  0  0  0  0
  -16.1757   14.0786  -20.5027 H   0  0  0  0  0  0  0  0  0  0  0  0
  -16.0585   14.2852  -24.7212 C   0  0  0  0  0  0  0  0  0  0  0  0
  -16.4187   14.7635  -23.4615 C   0  0  0  0  0  0  0  0  0  0  0  0
  -16.5331   13.6721  -22.5867 C   0  0  0  0  0  0  0  0  0  0  0  0
  -16.2427   12.6126  -23.3151 O   0  0  0  0  0  0  0  0  0  0  0  0
  -15.9764   12.9563  -24.5229 N   0  0  0  0  0  0  0  0  0  0  0  0
  -16.4929   16.4512  -25.7484 C   0  0  0  0  0  0  0  0  0  0  0  0
  -15.8624   15.0967  -25.9426 C   0  0  0  0  0  0  0  0  0  0  0  0
  -16.5102   14.4397  -27.1357 C   0  0  0  0  0  0  0  0  0  0  0  0
  -14.3710   15.3023  -26.2040 C   0  0  0  0  0  0  0  0  0  0  0  0
 32 33  1  0  0  0
 33 34  1  0  0  0
 33 35  1  0  0  0
 33 27  1  0  0  0
 27 28  1  0  0  0
 28 29  2  0  0  0
 29 23  1  0  0  0
 23 24  1  0  0  0
 24 25  2  0  0  0
 24  1  1  0  0  0
  1  2  1  0  0  0
  2  3  1  0  0  0
  3  4  2  0  0  0
  4  5  1  0  0  0
  5  6  2  0  0  0
  6  7  1  0  0  0
  7  8  2  0  0  0
  8  9  1  0  0  0
  9 10  1  0  0  0
 10 11  1  0  0  0
 11 12  2  0  0  0
 11 13  1  0  0  0
 13 14  2  0  0  0
 14 15  1  0  0  0
 15 16  2  0  0  0
 16 17  1  0  0  0
 17 18  2  0  0  0
 17 19  1  0  0  0
 19 20  1  0  0  0
 19 21  1  0  0  0
 19 22  1  0  0  0
 29 30  1  0  0  0
 30 31  1  0  0  0
 31 27  2  0  0  0
 10  1  1  0  0  0
 18 13  1  0  0  0
  8  3  1  0  0  0
 23 26  1  0  0  0
M  END
> <minimizedAffinity>
-7.56475

> <CNNscore>
0.1845815629

> <CNNaffinity>
6.6287903786

> <CNN_VS>
1.2235524654

> <CNNaffinity_variance>
0.3697784245

$$$$
[H]c1c(C(C([H])([H])[H])(C([H])([H])[H])C([H])([H])[H])noc1N([H])C(=O)[C@]1([H])N(C(=O)c2c([H])c([H])c([H])c(C(F)(F)F)c2[H])C([H])([H])c2c([H])c([H])c([H])c([H])c2C1([H])[H]


 35 38  0  0  0  0  0  0  0  0999 V2000
  -20.3812   13.8205  -19.1270 C   0  0  0  0  0  0  0  0  0  0  0  0
  -19.5496   13.0855  -20.2340 C   0  0  0  0  0  0  0  0  0  0  0  0
  -18.5383   14.0308  -20.7726 C   0  0  0  0  0  0  0  0  0  0  0  0
  -17.9867   13.7337  -22.0316 C   0  0  0  0  0  0  0  0  0  0  0  0
  -17.0700   14.5371  -22.6379 C   0  0  0  0  0  0  0  0  0  0  0  0
  -16.7044   15.6908  -21.9323 C   0  0  0  0  0  0  0  0  0  0  0  0
  -17.2243   16.0237  -20.6965 C   0  0  0  0  0  0  0  0  0  0  0  0
  -18.1534   15.1571  -20.1292 C   0  0  0  0  0  0  0  0  0  0  0  0
  -18.6280   15.5535  -18.7654 C   0  0  0  0  0  0  0  0  0  0  0  0
  -19.3929   14.4064  -18.2654 N   0  0  0  0  0  0  0  0  0  0  0  0
  -19.0368   13.8408  -17.0379 C   0  0  0  0  0  0  0  0  0  0  0  0
  -18.1785   14.3036  -16.2751 O   0  0  0  0  0  0  0  0  0  0  0  0
  -19.7090   12.5972  -16.6075 C   0  0  0  0  0  0  0  0  0  0  0  0
  -21.0003   12.7049  -16.0838 C   0  0  0  0  0  0  0  0  0  0  0  0
  -21.7093   11.5751  -15.7342 C   0  0  0  0  0  0  0  0  0  0  0  0
  -21.1683   10.3084  -15.8931 C   0  0  0  0  0  0  0  0  0  0  0  0
  -19.8960   10.2256  -16.4220 C   0  0  0  0  0  0  0  0  0  0  0  0
  -19.1948   11.3400  -16.7603 C   0  0  0  0  0  0  0  0  0  0  0  0
  -19.3130    8.8502  -16.6295 C   0  0  0  0  0  0  0  0  0  0  0  0
  -18.8279    8.6980  -17.8941 F   0  0  0  0  0  0  0  0  0  0  0  0
  -18.3145    8.6393  -15.6728 F   0  0  0  0  0  0  0  0  0  0  0  0
  -20.3309    7.9390  -16.3647 F   0  0  0  0  0  0  0  0  0  0  0  0
  -21.2385   16.1381  -19.6825 N   0  0  0  0  0  0  0  0  0  0  0  0
  -21.2311   14.7356  -19.8832 C   0  0  0  0  0  0  0  0  0  0  0  0
  -22.0441   14.3191  -20.7976 O   0  0  0  0  0  0  0  0  0  0  0  0
  -20.5956   16.5988  -18.9941 H   0  0  0  0  0  0  0  0  0  0  0  0
  -22.8766   18.3417  -22.0992 C   0  0  0  0  0  0  0  0  0  0  0  0
  -21.7729   17.6272  -21.6337 C   0  0  0  0  0  0  0  0  0  0  0  0
  -22.1377   16.9644  -20.4516 C   0  0  0  0  0  0  0  0  0  0  0  0
  -23.4017   17.2812  -20.2531 O   0  0  0  0  0  0  0  0  0  0  0  0
  -23.8211   18.0617  -21.1818 N   0  0  0  0  0  0  0  0  0  0  0  0
  -21.5300   19.3295  -23.8729 C   0  0  0  0  0  0  0  0  0  0  0  0
  -22.9180   19.2037  -23.3009 C   0  0  0  0  0  0  0  0  0  0  0  0
  -23.4149   20.5853  -22.9559 C   0  0  0  0  0  0  0  0  0  0  0  0
  -23.8143   18.5766  -24.3678 C   0  0  0  0  0  0  0  0  0  0  0  0
 32 33  1  0  0  0
 33 34  1  0  0  0
 33 35  1  0  0  0
 33 27  1  0  0  0
 27 28  1  0  0  0
 28 29  2  0  0  0
 29 23  1  0  0  0
 23 24  1  0  0  0
 24 25  2  0  0  0
 24  1  1  0  0  0
  1  2  1  0  0  0
  2  3  1  0  0  0
  3  4  2  0  0  0
  4  5  1  0  0  0
  5  6  2  0  0  0
  6  7  1  0  0  0
  7  8  2  0  0  0
  8  9  1  0  0  0
  9 10  1  0  0  0
 10 11  1  0  0  0
 11 12  2  0  0  0
 11 13  1  0  0  0
 13 14  2  0  0  0
 14 15  1  0  0  0
 15 16  2  0  0  0
 16 17  1  0  0  0
 17 18  2  0  0  0
 17 19  1  0  0  0
 19 20  1  0  0  0
 19 21  1  0  0  0
 19 22  1  0  0  0
 29 30  1  0  0  0
 30 31  1  0  0  0
 31 27  2  0  0  0
 10  1  1  0  0  0
 18 13  1  0  0  0
  8  3  1  0  0  0
 23 26  1  0  0  0
M  END
> <minimizedAffinity>
-8.03269

> <CNNscore>
0.1733972579

> <CNNaffinity>
6.1513581276

> <CNN_VS>
1.0666285753

> <CNNaffinity_variance>
0.2538096905

$$$$
[H]c1c(C(C([H])([H])[H])(C([H])([H])[H])C([H])([H])[H])noc1N([H])C(=O)[C@]1([H])N(C(=O)c2c([H])c([H])c([H])c(C(F)(F)F)c2[H])C([H])([H])c2c([H])c([H])c([H])c([H])c2C1([H])[H]


 35 38  0  0  0  0  0  0  0  0999 V2000
  -20.7892   10.8950  -12.5597 C   0  0  0  0  0  0  0  0  0  0  0  0
  -20.7960   12.0334  -11.4821 C   0  0  0  0  0  0  0  0  0  0  0  0
  -22.1893   12.5212  -11.3171 C   0  0  0  0  0  0  0  0  0  0  0  0
  -22.3617   13.7911  -10.7380 C   0  0  0  0  0  0  0  0  0  0  0  0
  -23.5882   14.3538  -10.5578 C   0  0  0  0  0  0  0  0  0  0  0  0
  -24.6815   13.5911  -10.9887 C   0  0  0  0  0  0  0  0  0  0  0  0
  -24.5578   12.3425  -11.5666 C   0  0  0  0  0  0  0  0  0  0  0  0
  -23.2763   11.8219  -11.7173 C   0  0  0  0  0  0  0  0  0  0  0  0
  -23.2252   10.4422  -12.2970 C   0  0  0  0  0  0  0  0  0  0  0  0
  -21.8345   10.0019  -12.1447 N   0  0  0  0  0  0  0  0  0  0  0  0
  -21.5756    8.8022  -11.4761 C   0  0  0  0  0  0  0  0  0  0  0  0
  -22.4474    8.0144  -11.0861 O   0  0  0  0  0  0  0  0  0  0  0  0
  -20.1723    8.4358  -11.1928 C   0  0  0  0  0  0  0  0  0  0  0  0
  -19.3385    9.4227  -10.6596 C   0  0  0  0  0  0  0  0  0  0  0  0
  -18.0404    9.1236  -10.3037 C   0  0  0  0  0  0  0  0  0  0  0  0
  -17.5281    7.8448  -10.4600 C   0  0  0  0  0  0  0  0  0  0  0  0
  -18.3725    6.8838  -10.9785 C   0  0  0  0  0  0  0  0  0  0  0  0
  -19.6503    7.1807  -11.3353 C   0  0  0  0  0  0  0  0  0  0  0  0
  -17.8338    5.4823  -11.1204 C   0  0  0  0  0  0  0  0  0  0  0  0
  -18.3737    4.8456  -12.1979 F   0  0  0  0  0  0  0  0  0  0  0  0
  -16.4396    5.5471  -11.2138 F   0  0  0  0  0  0  0  0  0  0  0  0
  -18.1329    4.8157   -9.9362 F   0  0  0  0  0  0  0  0  0  0  0  0
  -19.9294   11.9149  -14.7126 N   0  0  0  0  0  0  0  0  0  0  0  0
  -20.9847   11.6087  -13.8181 C   0  0  0  0  0  0  0  0  0  0  0  0
  -22.1502   12.0139  -14.2029 O   0  0  0  0  0  0  0  0  0  0  0  0
  -18.9446   11.6058  -14.5281 H   0  0  0  0  0  0  0  0  0  0  0  0
  -20.8968   14.3535  -17.2616 C   0  0  0  0  0  0  0  0  0  0  0  0
  -20.7432   13.9534  -15.9343 C   0  0  0  0  0  0  0  0  0  0  0  0
  -20.2089   12.6557  -15.9193 C   0  0  0  0  0  0  0  0  0  0  0  0
  -20.0560   12.3296  -17.1872 O   0  0  0  0  0  0  0  0  0  0  0  0
  -20.4465   13.2867  -17.9481 N   0  0  0  0  0  0  0  0  0  0  0  0
  -21.7950   15.5360  -19.1929 C   0  0  0  0  0  0  0  0  0  0  0  0
  -21.4561   15.6410  -17.7287 C   0  0  0  0  0  0  0  0  0  0  0  0
  -20.4577   16.7576  -17.5528 C   0  0  0  0  0  0  0  0  0  0  0  0
  -22.7413   15.9635  -16.9676 C   0  0  0  0  0  0  0  0  0  0  0  0
 32 33  1  0  0  0
 33 34  1  0  0  0
 33 35  1  0  0  0
 33 27  1  0  0  0
 27 28  1  0  0  0
 28 29  2  0  0  0
 29 23  1  0  0  0
 23 24  1  0  0  0
 24 25  2  0  0  0
 24  1  1  0  0  0
  1  2  1  0  0  0
  2  3  1  0  0  0
  3  4  2  0  0  0
  4  5  1  0  0  0
  5  6  2  0  0  0
  6  7  1  0  0  0
  7  8  2  0  0  0
  8  9  1  0  0  0
  9 10  1  0  0  0
 10 11  1  0  0  0
 11 12  2  0  0  0
 11 13  1  0  0  0
 13 14  2  0  0  0
 14 15  1  0  0  0
 15 16  2  0  0  0
 16 17  1  0  0  0
 17 18  2  0  0  0
 17 19  1  0  0  0
 19 20  1  0  0  0
 19 21  1  0  0  0
 19 22  1  0  0  0
 29 30  1  0  0  0
 30 31  1  0  0  0
 31 27  2  0  0  0
 10  1  1  0  0  0
 18 13  1  0  0  0
  8  3  1  0  0  0
 23 26  1  0  0  0
M  END
> <minimizedAffinity>
-4.09422

> <CNNscore>
0.1545837522

> <CNNaffinity>
5.5315198898

> <CNN_VS>
0.8550831079

> <CNNaffinity_variance>
0.9802622795

$$$$
[H]c1nc(N2C([H])([H])[C@@]3([H])N(C([H])([H])[H])C([H])([H])[C@@]2([H])C3([H])[H])c([H])nc1-c1c([H])c([H])c([H])c(F)c1[H]


 21 24  0  0  0  0  0  0  0  0999 V2000
  -18.0777   11.9120  -19.8090 C   0  0  0  0  0  0  0  0  0  0  0  0
  -17.0341   11.1939  -20.6122 C   0  0  0  0  0  0  0  0  0  0  0  0
  -16.5141   11.8021  -21.8810 N   0  0  0  0  0  0  0  0  0  0  0  0
  -17.0378   13.1283  -22.3466 C   0  0  0  0  0  0  0  0  0  0  0  0
  -18.0815   13.8465  -21.5434 C   0  0  0  0  0  0  0  0  0  0  0  0
  -18.6014   13.2383  -20.2746 N   0  0  0  0  0  0  0  0  0  0  0  0
  -19.9851    9.0147  -14.6614 C   0  0  0  0  0  0  0  0  0  0  0  0
  -19.4651    9.6228  -15.9301 N   0  0  0  0  0  0  0  0  0  0  0  0
  -18.5354    8.9655  -16.9066 C   0  0  0  0  0  0  0  0  0  0  0  0
  -18.2792    9.9315  -18.0252 C   0  0  0  0  0  0  0  0  0  0  0  0
  -19.0507   11.1859  -17.7400 C   0  0  0  0  0  0  0  0  0  0  0  0
  -19.7836   10.9951  -16.4452 C   0  0  0  0  0  0  0  0  0  0  0  0
  -19.5275   11.9612  -17.5638 C   0  0  0  0  0  0  0  0  0  0  0  0
  -18.5977   11.3038  -18.5403 N   0  0  0  0  0  0  0  0  0  0  0  0
  -16.5178   13.7365  -23.6153 C   0  0  0  0  0  0  0  0  0  0  0  0
  -17.4525   14.0011  -24.7583 C   0  0  0  0  0  0  0  0  0  0  0  0
  -16.9325   14.6092  -26.0270 C   0  0  0  0  0  0  0  0  0  0  0  0
  -15.4779   14.9528  -26.1529 C   0  0  0  0  0  0  0  0  0  0  0  0
  -14.5431   14.6882  -25.0099 C   0  0  0  0  0  0  0  0  0  0  0  0
  -13.0884   15.0318  -25.1358 F   0  0  0  0  0  0  0  0  0  0  0  0
  -15.0631   14.0800  -23.7412 C   0  0  0  0  0  0  0  0  0  0  0  0
  7  8  1  0  0  0
  8  9  1  0  0  0
  9 10  1  0  0  0
 10 11  1  0  0  0
 11 12  1  0  0  0
 12 13  1  0  0  0
 13 14  1  0  0  0
 14  1  1  0  0  0
  1  2  2  0  0  0
  2  3  1  0  0  0
  3  4  2  0  0  0
  4  5  1  0  0  0
  5  6  2  0  0  0
  4 15  1  0  0  0
 15 16  2  0  0  0
 16 17  1  0  0  0
 17 18  2  0  0  0
 18 19  1  0  0  0
 19 20  1  0  0  0
 19 21  2  0  0  0
 12  8  1  0  0  0
  6  1  1  0  0  0
 21 15  1  0  0  0
 14 10  1  0  0  0
M  END
> <minimizedAffinity>
-8.00468

> <CNNscore>
0.6323856115

> <CNNaffinity>
5.9543318748

> <CNN_VS>
3.7654337883

> <CNNaffinity_variance>
0.1235956177

$$$$
[H]c1nc(N2C([H])([H])[C@@]3([H])N(C([H])([H])[H])C([H])([H])[C@@]2([H])C3([H])[H])c([H])nc1-c1c([H])c([H])c([H])c(F)c1[H]


 21 24  0  0  0  0  0  0  0  0999 V2000
  -17.2458   12.8388  -21.9223 C   0  0  0  0  0  0  0  0  0  0  0  0
  -18.3018   13.5339  -21.1152 C   0  0  0  0  0  0  0  0  0  0  0  0
  -18.7971   12.9190  -19.8398 N   0  0  0  0  0  0  0  0  0  0  0  0
  -18.2364   11.6090  -19.3716 C   0  0  0  0  0  0  0  0  0  0  0  0
  -17.1803   10.9138  -20.1787 C   0  0  0  0  0  0  0  0  0  0  0  0
  -16.6850   11.5286  -21.4541 N   0  0  0  0  0  0  0  0  0  0  0  0
  -14.9031   15.6358  -26.9443 C   0  0  0  0  0  0  0  0  0  0  0  0
  -15.3984   15.0209  -25.6689 N   0  0  0  0  0  0  0  0  0  0  0  0
  -14.9073   15.3391  -24.2877 C   0  0  0  0  0  0  0  0  0  0  0  0
  -15.6772   14.4947  -23.3159 C   0  0  0  0  0  0  0  0  0  0  0  0
  -16.6441   13.6546  -24.0965 C   0  0  0  0  0  0  0  0  0  0  0  0
  -16.4718   13.9798  -25.5506 C   0  0  0  0  0  0  0  0  0  0  0  0
  -17.2417   13.1353  -24.5789 C   0  0  0  0  0  0  0  0  0  0  0  0
  -16.7505   13.4536  -23.1977 N   0  0  0  0  0  0  0  0  0  0  0  0
  -18.7317   10.9941  -18.0962 C   0  0  0  0  0  0  0  0  0  0  0  0
  -18.3480    9.5877  -17.7432 C   0  0  0  0  0  0  0  0  0  0  0  0
  -18.8433    8.9728  -16.4678 C   0  0  0  0  0  0  0  0  0  0  0  0
  -19.7222    9.7644  -15.5454 C   0  0  0  0  0  0  0  0  0  0  0  0
  -20.1059   11.1709  -15.8984 C   0  0  0  0  0  0  0  0  0  0  0  0
  -20.9849   11.9625  -14.9760 F   0  0  0  0  0  0  0  0  0  0  0  0
  -19.6107   11.7858  -17.1738 C   0  0  0  0  0  0  0  0  0  0  0  0
  7  8  1  0  0  0
  8  9  1  0  0  0
  9 10  1  0  0  0
 10 11  1  0  0  0
 11 12  1  0  0  0
 12 13  1  0  0  0
 13 14  1  0  0  0
 14  1  1  0  0  0
  1  2  2  0  0  0
  2  3  1  0  0  0
  3  4  2  0  0  0
  4  5  1  0  0  0
  5  6  2  0  0  0
  4 15  1  0  0  0
 15 16  2  0  0  0
 16 17  1  0  0  0
 17 18  2  0  0  0
 18 19  1  0  0  0
 19 20  1  0  0  0
 19 21  2  0  0  0
 12  8  1  0  0  0
  6  1  1  0  0  0
 21 15  1  0  0  0
 14 10  1  0  0  0
M  END
> <minimizedAffinity>
-7.76056

> <CNNscore>
0.6237307787

> <CNNaffinity>
6.2503447533

> <CNN_VS>
3.8985323906

> <CNNaffinity_variance>
0.0886751488

$$$$
[H]c1nc(N2C([H])([H])[C@@]3([H])N(C([H])([H])[H])C([H])([H])[C@@]2([H])C3([H])[H])c([H])nc1-c1c([H])c([H])c([H])c(F)c1[H]


 21 24  0  0  0  0  0  0  0  0999 V2000
  -17.2836   12.8494  -21.9695 C   0  0  0  0  0  0  0  0  0  0  0  0
  -16.7060   11.5484  -21.4966 C   0  0  0  0  0  0  0  0  0  0  0  0
  -17.1929   10.9320  -20.2187 N   0  0  0  0  0  0  0  0  0  0  0  0
  -18.2574   11.6166  -19.4137 C   0  0  0  0  0  0  0  0  0  0  0  0
  -18.8351   12.9176  -19.8866 C   0  0  0  0  0  0  0  0  0  0  0  0
  -18.3482   13.5340  -21.1645 N   0  0  0  0  0  0  0  0  0  0  0  0
  -14.9219   15.5886  -27.0143 C   0  0  0  0  0  0  0  0  0  0  0  0
  -15.4088   14.9722  -25.7364 N   0  0  0  0  0  0  0  0  0  0  0  0
  -14.7719   15.1218  -24.3866 C   0  0  0  0  0  0  0  0  0  0  0  0
  -15.5875   14.3400  -23.3999 C   0  0  0  0  0  0  0  0  0  0  0  0
  -16.7285   13.7072  -24.1399 C   0  0  0  0  0  0  0  0  0  0  0  0
  -16.6180   14.0979  -25.5839 C   0  0  0  0  0  0  0  0  0  0  0  0
  -17.4337   13.3161  -24.5972 C   0  0  0  0  0  0  0  0  0  0  0  0
  -16.7968   13.4658  -23.2474 N   0  0  0  0  0  0  0  0  0  0  0  0
  -18.7443   11.0002  -18.1358 C   0  0  0  0  0  0  0  0  0  0  0  0
  -18.3432    9.5998  -17.7781 C   0  0  0  0  0  0  0  0  0  0  0  0
  -18.8301    8.9834  -16.5002 C   0  0  0  0  0  0  0  0  0  0  0  0
  -19.7181    9.7674  -15.5801 C   0  0  0  0  0  0  0  0  0  0  0  0
  -20.1192   11.1678  -15.9377 C   0  0  0  0  0  0  0  0  0  0  0  0
  -21.0072   11.9518  -15.0175 F   0  0  0  0  0  0  0  0  0  0  0  0
  -19.6323   11.7842  -17.2156 C   0  0  0  0  0  0  0  0  0  0  0  0
  7  8  1  0  0  0
  8  9  1  0  0  0
  9 10  1  0  0  0
 10 11  1  0  0  0
 11 12  1  0  0  0
 12 13  1  0  0  0
 13 14  1  0  0  0
 14  1  1  0  0  0
  1  2  2  0  0  0
  2  3  1  0  0  0
  3  4  2  0  0  0
  4  5  1  0  0  0
  5  6  2  0  0  0
  4 15  1  0  0  0
 15 16  2  0  0  0
 16 17  1  0  0  0
 17 18  2  0  0  0
 18 19  1  0  0  0
 19 20  1  0  0  0
 19 21  2  0  0  0
 12  8  1  0  0  0
  6  1  1  0  0  0
 21 15  1  0  0  0
 14 10  1  0  0  0
M  END
> <minimizedAffinity>
-7.72276

> <CNNscore>
0.6071251631

> <CNNaffinity>
6.2450728416

> <CNN_VS>
3.7915408611

> <CNNaffinity_variance>
0.1373229474

$$$$
[H]c1nc(N2C([H])([H])[C@@]3([H])N(C([H])([H])[H])C([H])([H])[C@@]2([H])C3([H])[H])c([H])nc1-c1c([H])c([H])c([H])c(F)c1[H]


 21 24  0  0  0  0  0  0  0  0999 V2000
  -18.0422   11.8141  -19.7708 C   0  0  0  0  0  0  0  0  0  0  0  0
  -17.0328   11.0897  -20.6112 C   0  0  0  0  0  0  0  0  0  0  0  0
  -16.5303   11.7101  -21.8811 N   0  0  0  0  0  0  0  0  0  0  0  0
  -17.0373   13.0549  -22.3106 C   0  0  0  0  0  0  0  0  0  0  0  0
  -18.0467   13.7794  -21.4702 C   0  0  0  0  0  0  0  0  0  0  0  0
  -18.5492   13.1590  -20.2003 N   0  0  0  0  0  0  0  0  0  0  0  0
  -20.3222    9.6532  -14.4170 C   0  0  0  0  0  0  0  0  0  0  0  0
  -19.8197   10.2736  -15.6869 N   0  0  0  0  0  0  0  0  0  0  0  0
  -20.0647   11.6835  -16.1365 C   0  0  0  0  0  0  0  0  0  0  0  0
  -19.3804   11.8743  -17.4576 C   0  0  0  0  0  0  0  0  0  0  0  0
  -18.7125   10.5823  -17.8246 C   0  0  0  0  0  0  0  0  0  0  0  0
  -18.9841    9.5930  -16.7302 C   0  0  0  0  0  0  0  0  0  0  0  0
  -18.2998    9.7837  -18.0514 C   0  0  0  0  0  0  0  0  0  0  0  0
  -18.5447   11.1937  -18.5009 N   0  0  0  0  0  0  0  0  0  0  0  0
  -16.5348   13.6753  -23.5805 C   0  0  0  0  0  0  0  0  0  0  0  0
  -17.4797   13.9248  -24.7184 C   0  0  0  0  0  0  0  0  0  0  0  0
  -16.9772   14.5452  -25.9883 C   0  0  0  0  0  0  0  0  0  0  0  0
  -15.5298   14.9161  -26.1202 C   0  0  0  0  0  0  0  0  0  0  0  0
  -14.5848   14.6666  -24.9823 C   0  0  0  0  0  0  0  0  0  0  0  0
  -13.1374   15.0375  -25.1143 F   0  0  0  0  0  0  0  0  0  0  0  0
  -15.0873   14.0462  -23.7124 C   0  0  0  0  0  0  0  0  0  0  0  0
  7  8  1  0  0  0
  8  9  1  0  0  0
  9 10  1  0  0  0
 10 11  1  0  0  0
 11 12  1  0  0  0
 12 13  1  0  0  0
 13 14  1  0  0  0
 14  1  1  0  0  0
  1  2  2  0  0  0
  2  3  1  0  0  0
  3  4  2  0  0  0
  4  5  1  0  0  0
  5  6  2  0  0  0
  4 15  1  0  0  0
 15 16  2  0  0  0
 16 17  1  0  0  0
 17 18  2  0  0  0
 18 19  1  0  0  0
 19 20  1  0  0  0
 19 21  2  0  0  0
 12  8  1  0  0  0
  6  1  1  0  0  0
 21 15  1  0  0  0
 14 10  1  0  0  0
M  END
> <minimizedAffinity>
-7.85246

> <CNNscore>
0.5787407160

> <CNNaffinity>
5.7821049690

> <CNN_VS>
3.3463394642

> <CNNaffinity_variance>
0.0563262105

$$$$
[H]c1nc(N2C([H])([H])[C@@]3([H])N(C([H])([H])[H])C([H])([H])[C@@]2([H])C3([H])[H])c([H])nc1-c1c([H])c([H])c([H])c(F)c1[H]


 21 24  0  0  0  0  0  0  0  0999 V2000
  -17.4115   13.0824  -22.0910 C   0  0  0  0  0  0  0  0  0  0  0  0
  -16.8129   11.8172  -21.5518 C   0  0  0  0  0  0  0  0  0  0  0  0
  -17.3081   11.2458  -20.2563 N   0  0  0  0  0  0  0  0  0  0  0  0
  -18.4020   11.9396  -19.5000 C   0  0  0  0  0  0  0  0  0  0  0  0
  -19.0007   13.2049  -20.0392 C   0  0  0  0  0  0  0  0  0  0  0  0
  -18.5055   13.7763  -21.3347 N   0  0  0  0  0  0  0  0  0  0  0  0
  -15.0022   15.6218  -27.2171 C   0  0  0  0  0  0  0  0  0  0  0  0
  -15.4975   15.0504  -25.9217 N   0  0  0  0  0  0  0  0  0  0  0  0
  -14.8312   15.1890  -24.5849 C   0  0  0  0  0  0  0  0  0  0  0  0
  -15.6679   14.4643  -23.5726 C   0  0  0  0  0  0  0  0  0  0  0  0
  -16.8512   13.8777  -24.2837 C   0  0  0  0  0  0  0  0  0  0  0  0
  -16.7459   14.2400  -25.7355 C   0  0  0  0  0  0  0  0  0  0  0  0
  -17.5826   13.5152  -24.7232 C   0  0  0  0  0  0  0  0  0  0  0  0
  -16.9163   13.6539  -23.3864 N   0  0  0  0  0  0  0  0  0  0  0  0
  -18.8972   11.3681  -18.2046 C   0  0  0  0  0  0  0  0  0  0  0  0
  -19.7851   12.1864  -17.3146 C   0  0  0  0  0  0  0  0  0  0  0  0
  -20.2803   11.6150  -16.0192 C   0  0  0  0  0  0  0  0  0  0  0  0
  -19.8877   10.2252  -15.6137 C   0  0  0  0  0  0  0  0  0  0  0  0
  -18.9998    9.4069  -16.5037 C   0  0  0  0  0  0  0  0  0  0  0  0
  -18.6071    8.0172  -16.0982 F   0  0  0  0  0  0  0  0  0  0  0  0
  -18.5046    9.9783  -17.7991 C   0  0  0  0  0  0  0  0  0  0  0  0
  7  8  1  0  0  0
  8  9  1  0  0  0
  9 10  1  0  0  0
 10 11  1  0  0  0
 11 12  1  0  0  0
 12 13  1  0  0  0
 13 14  1  0  0  0
 14  1  1  0  0  0
  1  2  2  0  0  0
  2  3  1  0  0  0
  3  4  2  0  0  0
  4  5  1  0  0  0
  5  6  2  0  0  0
  4 15  1  0  0  0
 15 16  2  0  0  0
 16 17  1  0  0  0
 17 18  2  0  0  0
 18 19  1  0  0  0
 19 20  1  0  0  0
 19 21  2  0  0  0
 12  8  1  0  0  0
  6  1  1  0  0  0
 21 15  1  0  0  0
 14 10  1  0  0  0
M  END
> <minimizedAffinity>
-7.58792

> <CNNscore>
0.5722621679

> <CNNaffinity>
6.2045288086

> <CNN_VS>
3.5506172180

> <CNNaffinity_variance>
0.1380741149

$$$$
[H]c1nc(N2C([H])([H])[C@@]3([H])N(C([H])([H])[H])C([H])([H])[C@@]2([H])C3([H])[H])c([H])nc1-c1c([H])c([H])c([H])c(F)c1[H]


 21 24  0  0  0  0  0  0  0  0999 V2000
  -17.7626   12.2455  -20.2475 C   0  0  0  0  0  0  0  0  0  0  0  0
  -16.9282   11.3905  -21.1546 C   0  0  0  0  0  0  0  0  0  0  0  0
  -16.3149   11.9827  -22.3888 N   0  0  0  0  0  0  0  0  0  0  0  0
  -16.5361   13.4297  -22.7160 C   0  0  0  0  0  0  0  0  0  0  0  0
  -17.3705   14.2847  -21.8089 C   0  0  0  0  0  0  0  0  0  0  0  0
  -17.9838   13.6926  -20.5747 N   0  0  0  0  0  0  0  0  0  0  0  0
  -20.0535    9.4112  -15.2226 C   0  0  0  0  0  0  0  0  0  0  0  0
  -19.4402   10.0033  -16.4569 N   0  0  0  0  0  0  0  0  0  0  0  0
  -18.4522    9.3283  -17.3613 C   0  0  0  0  0  0  0  0  0  0  0  0
  -18.1087   10.2822  -18.4668 C   0  0  0  0  0  0  0  0  0  0  0  0
  -18.8844   11.5468  -18.2455 C   0  0  0  0  0  0  0  0  0  0  0  0
  -19.7074   11.3745  -17.0033 C   0  0  0  0  0  0  0  0  0  0  0  0
  -19.3639   12.3285  -18.1088 C   0  0  0  0  0  0  0  0  0  0  0  0
  -18.3758   11.6533  -19.0133 N   0  0  0  0  0  0  0  0  0  0  0  0
  -15.9229   14.0218  -23.9502 C   0  0  0  0  0  0  0  0  0  0  0  0
  -14.5037   14.5066  -23.9240 C   0  0  0  0  0  0  0  0  0  0  0  0
  -13.8904   15.0987  -25.1582 C   0  0  0  0  0  0  0  0  0  0  0  0
  -14.6964   15.2061  -26.4187 C   0  0  0  0  0  0  0  0  0  0  0  0
  -16.1157   14.7212  -26.4450 C   0  0  0  0  0  0  0  0  0  0  0  0
  -16.9217   14.8285  -27.7055 F   0  0  0  0  0  0  0  0  0  0  0  0
  -16.7289   14.1291  -25.2108 C   0  0  0  0  0  0  0  0  0  0  0  0
  7  8  1  0  0  0
  8  9  1  0  0  0
  9 10  1  0  0  0
 10 11  1  0  0  0
 11 12  1  0  0  0
 12 13  1  0  0  0
 13 14  1  0  0  0
 14  1  1  0  0  0
  1  2  2  0  0  0
  2  3  1  0  0  0
  3  4  2  0  0  0
  4  5  1  0  0  0
  5  6  2  0  0  0
  4 15  1  0  0  0
 15 16  2  0  0  0
 16 17  1  0  0  0
 17 18  2  0  0  0
 18 19  1  0  0  0
 19 20  1  0  0  0
 19 21  2  0  0  0
 12  8  1  0  0  0
  6  1  1  0  0  0
 21 15  1  0  0  0
 14 10  1  0  0  0
M  END
> <minimizedAffinity>
-8.08558

> <CNNscore>
0.5605942011

> <CNNaffinity>
5.9981894493

> <CNN_VS>
3.3625502586

> <CNNaffinity_variance>
0.0674559027

$$$$
[H]c1nc(N2C([H])([H])[C@@]3([H])N(C([H])([H])[H])C([H])([H])[C@@]2([H])C3([H])[H])c([H])nc1-c1c([H])c([H])c([H])c(F)c1[H]


 21 24  0  0  0  0  0  0  0  0999 V2000
  -17.2327   13.0202  -21.9132 C   0  0  0  0  0  0  0  0  0  0  0  0
  -16.7158   11.6673  -21.5229 C   0  0  0  0  0  0  0  0  0  0  0  0
  -17.2069   11.0105  -20.2670 N   0  0  0  0  0  0  0  0  0  0  0  0
  -18.2149   11.7065  -19.4013 C   0  0  0  0  0  0  0  0  0  0  0  0
  -18.7319   13.0595  -19.7917 C   0  0  0  0  0  0  0  0  0  0  0  0
  -18.2408   13.7163  -21.0476 N   0  0  0  0  0  0  0  0  0  0  0  0
  -15.5039   15.4774  -27.3450 C   0  0  0  0  0  0  0  0  0  0  0  0
  -15.9950   14.8206  -26.0891 N   0  0  0  0  0  0  0  0  0  0  0  0
  -17.0634   13.7713  -26.0026 C   0  0  0  0  0  0  0  0  0  0  0  0
  -17.2327   13.3999  -24.5591 C   0  0  0  0  0  0  0  0  0  0  0  0
  -16.2688   14.2197  -23.7535 C   0  0  0  0  0  0  0  0  0  0  0  0
  -15.5039   15.0976  -24.6991 C   0  0  0  0  0  0  0  0  0  0  0  0
  -15.6730   14.7263  -23.2556 C   0  0  0  0  0  0  0  0  0  0  0  0
  -16.7416   13.6770  -23.1692 N   0  0  0  0  0  0  0  0  0  0  0  0
  -18.7060   11.0497  -18.1454 C   0  0  0  0  0  0  0  0  0  0  0  0
  -18.3138    9.6354  -17.8360 C   0  0  0  0  0  0  0  0  0  0  0  0
  -18.8049    8.9785  -16.5800 C   0  0  0  0  0  0  0  0  0  0  0  0
  -19.6882    9.7360  -15.6335 C   0  0  0  0  0  0  0  0  0  0  0  0
  -20.0804   11.1505  -15.9429 C   0  0  0  0  0  0  0  0  0  0  0  0
  -20.9637   11.9080  -14.9964 F   0  0  0  0  0  0  0  0  0  0  0  0
  -19.5893   11.8073  -17.1989 C   0  0  0  0  0  0  0  0  0  0  0  0
  7  8  1  0  0  0
  8  9  1  0  0  0
  9 10  1  0  0  0
 10 11  1  0  0  0
 11 12  1  0  0  0
 12 13  1  0  0  0
 13 14  1  0  0  0
 14  1  1  0  0  0
  1  2  2  0  0  0
  2  3  1  0  0  0
  3  4  2  0  0  0
  4  5  1  0  0  0
  5  6  2  0  0  0
  4 15  1  0  0  0
 15 16  2  0  0  0
 16 17  1  0  0  0
 17 18  2  0  0  0
 18 19  1  0  0  0
 19 20  1  0  0  0
 19 21  2  0  0  0
 12  8  1  0  0  0
  6  1  1  0  0  0
 21 15  1  0  0  0
 14 10  1  0  0  0
M  END
> <minimizedAffinity>
-7.59314

> <CNNscore>
0.5578730702

> <CNNaffinity>
6.2193517685

> <CNN_VS>
3.4696087837

> <CNNaffinity_variance>
0.1391879618

$$$$
[H]c1nc(N2C([H])([H])[C@@]3([H])N(C([H])([H])[H])C([H])([H])[C@@]2([H])C3([H])[H])c([H])nc1-c1c([H])c([H])c([H])c(F)c1[H]


 21 24  0  0  0  0  0  0  0  0999 V2000
  -19.1986    9.8916  -16.7704 C   0  0  0  0  0  0  0  0  0  0  0  0
  -18.1178    9.4874  -17.7288 C   0  0  0  0  0  0  0  0  0  0  0  0
  -17.7047   10.4188  -18.8296 N   0  0  0  0  0  0  0  0  0  0  0  0
  -18.3724   11.7543  -18.9721 C   0  0  0  0  0  0  0  0  0  0  0  0
  -19.4533   12.1586  -18.0138 C   0  0  0  0  0  0  0  0  0  0  0  0
  -19.8664   11.2272  -16.9129 N   0  0  0  0  0  0  0  0  0  0  0  0
  -20.6421    6.2864  -11.9279 C   0  0  0  0  0  0  0  0  0  0  0  0
  -20.2290    7.2178  -13.0287 N   0  0  0  0  0  0  0  0  0  0  0  0
  -19.3024    8.3893  -12.8913 C   0  0  0  0  0  0  0  0  0  0  0  0
  -19.1707    9.0368  -14.2379 C   0  0  0  0  0  0  0  0  0  0  0  0
  -20.0160    8.2654  -15.2077 C   0  0  0  0  0  0  0  0  0  0  0  0
  -20.6700    7.1412  -14.4604 C   0  0  0  0  0  0  0  0  0  0  0  0
  -20.5384    7.7886  -15.8071 C   0  0  0  0  0  0  0  0  0  0  0  0
  -19.6117    8.9602  -15.6696 N   0  0  0  0  0  0  0  0  0  0  0  0
  -17.9593   12.6857  -20.0730 C   0  0  0  0  0  0  0  0  0  0  0  0
  -18.0630   14.1694  -19.8785 C   0  0  0  0  0  0  0  0  0  0  0  0
  -17.6499   15.1008  -20.9794 C   0  0  0  0  0  0  0  0  0  0  0  0
  -17.1331   14.5485  -22.2747 C   0  0  0  0  0  0  0  0  0  0  0  0
  -17.0295   13.0647  -22.4692 C   0  0  0  0  0  0  0  0  0  0  0  0
  -16.5127   12.5124  -23.7645 F   0  0  0  0  0  0  0  0  0  0  0  0
  -17.4425   12.1333  -21.3684 C   0  0  0  0  0  0  0  0  0  0  0  0
  7  8  1  0  0  0
  8  9  1  0  0  0
  9 10  1  0  0  0
 10 11  1  0  0  0
 11 12  1  0  0  0
 12 13  1  0  0  0
 13 14  1  0  0  0
 14  1  1  0  0  0
  1  2  2  0  0  0
  2  3  1  0  0  0
  3  4  2  0  0  0
  4  5  1  0  0  0
  5  6  2  0  0  0
  4 15  1  0  0  0
 15 16  2  0  0  0
 16 17  1  0  0  0
 17 18  2  0  0  0
 18 19  1  0  0  0
 19 20  1  0  0  0
 19 21  2  0  0  0
 12  8  1  0  0  0
  6  1  1  0  0  0
 21 15  1  0  0  0
 14 10  1  0  0  0
M  END
> <minimizedAffinity>
-6.67706

> <CNNscore>
0.4422497153

> <CNNaffinity>
5.1945590973

> <CNN_VS>
2.2972922325

> <CNNaffinity_variance>
0.0531001575

$$$$
[H]c1nc(N2C([H])([H])[C@@]3([H])N(C([H])([H])[H])C([H])([H])[C@@]2([H])C3([H])[H])c([H])nc1-c1c([H])c([H])c([H])c(F)c1[H]


 21 24  0  0  0  0  0  0  0  0999 V2000
  -18.8551   11.4011  -18.4106 C   0  0  0  0  0  0  0  0  0  0  0  0
  -17.5789   10.8979  -19.0171 C   0  0  0  0  0  0  0  0  0  0  0  0
  -16.9670   11.6180  -20.1820 N   0  0  0  0  0  0  0  0  0  0  0  0
  -17.6314   12.8414  -20.7405 C   0  0  0  0  0  0  0  0  0  0  0  0
  -18.9077   13.3447  -20.1340 C   0  0  0  0  0  0  0  0  0  0  0  0
  -19.5196   12.6246  -18.9691 N   0  0  0  0  0  0  0  0  0  0  0  0
  -21.0798    8.0811  -13.6610 C   0  0  0  0  0  0  0  0  0  0  0  0
  -20.4680    8.8012  -14.8259 N   0  0  0  0  0  0  0  0  0  0  0  0
  -19.3223    8.3123  -15.6617 C   0  0  0  0  0  0  0  0  0  0  0  0
  -19.0406    9.3456  -16.7120 C   0  0  0  0  0  0  0  0  0  0  0  0
  -20.0122   10.4731  -16.5253 C   0  0  0  0  0  0  0  0  0  0  0  0
  -20.8943   10.1366  -15.3597 C   0  0  0  0  0  0  0  0  0  0  0  0
  -20.6127   11.1700  -16.4099 C   0  0  0  0  0  0  0  0  0  0  0  0
  -19.4670   10.6810  -17.2457 N   0  0  0  0  0  0  0  0  0  0  0  0
  -17.0195   13.5615  -21.9054 C   0  0  0  0  0  0  0  0  0  0  0  0
  -16.7152   12.8170  -23.1715 C   0  0  0  0  0  0  0  0  0  0  0  0
  -16.1034   13.5371  -24.3365 C   0  0  0  0  0  0  0  0  0  0  0  0
  -15.7958   15.0017  -24.2353 C   0  0  0  0  0  0  0  0  0  0  0  0
  -16.1001   15.7463  -22.9691 C   0  0  0  0  0  0  0  0  0  0  0  0
  -15.7925   17.2109  -22.8679 F   0  0  0  0  0  0  0  0  0  0  0  0
  -16.7120   15.0262  -21.8042 C   0  0  0  0  0  0  0  0  0  0  0  0
  7  8  1  0  0  0
  8  9  1  0  0  0
  9 10  1  0  0  0
 10 11  1  0  0  0
 11 12  1  0  0  0
 12 13  1  0  0  0
 13 14  1  0  0  0
 14  1  1  0  0  0
  1  2  2  0  0  0
  2  3  1  0  0  0
  3  4  2  0  0  0
  4  5  1  0  0  0
  5  6  2  0  0  0
  4 15  1  0  0  0
 15 16  2  0  0  0
 16 17  1  0  0  0
 17 18  2  0  0  0
 18 19  1  0  0  0
 19 20  1  0  0  0
 19 21  2  0  0  0
 12  8  1  0  0  0
  6  1  1  0  0  0
 21 15  1  0  0  0
 14 10  1  0  0  0
M  END
> <minimizedAffinity>
-7.10988

> <CNNscore>
0.4325957894

> <CNNaffinity>
5.5691580772

> <CNN_VS>
2.4091942310

> <CNNaffinity_variance>
0.0406903550

$$$$
[H]c1nc(N([H])c2c([H])c([H])c(N3C([H])([H])C([H])([H])C([H])(N4C([H])([H])C([H])([H])N(C([H])([H])[H])C([H])([H])C4([H])[H])C([H])([H])C3([H])[H])c([H])c2OC([H])([H])[H])nc(N([H])c2c([H])c([H])c([H])c([H])c2S(=O)(=O)C([H])(C([H])([H])[H])C([H])([H])[H])c1Cl


 44 48  0  0  0  0  0  0  0  0999 V2000
  -19.0415   11.5538  -18.1205 N   0  0  0  0  0  0  0  0  0  0  0  0
  -19.5261   10.6644  -17.7391 H   0  0  0  0  0  0  0  0  0  0  0  0
  -18.0293   11.3457  -19.0944 C   0  0  0  0  0  0  0  0  0  0  0  0
  -17.0160   10.4804  -19.0069 N   0  0  0  0  0  0  0  0  0  0  0  0
  -16.0939   10.3335  -19.9664 C   0  0  0  0  0  0  0  0  0  0  0  0
  -16.1666   11.0959  -21.1087 C   0  0  0  0  0  0  0  0  0  0  0  0
  -14.9630   10.9164  -22.3814 Cl  0  0  0  0  0  0  0  0  0  0  0  0
  -17.2274   12.0177  -21.2259 C   0  0  0  0  0  0  0  0  0  0  0  0
  -18.0958   12.0899  -20.2151 N   0  0  0  0  0  0  0  0  0  0  0  0
  -17.2797   12.7817  -22.4019 N   0  0  0  0  0  0  0  0  0  0  0  0
  -16.8904   12.2860  -23.2701 H   0  0  0  0  0  0  0  0  0  0  0  0
  -17.7506   14.0799  -22.6493 C   0  0  0  0  0  0  0  0  0  0  0  0
  -18.5572   14.7092  -21.7248 C   0  0  0  0  0  0  0  0  0  0  0  0
  -19.0370   16.0045  -21.9578 C   0  0  0  0  0  0  0  0  0  0  0  0
  -18.6958   16.6386  -23.1146 C   0  0  0  0  0  0  0  0  0  0  0  0
  -17.8902   16.0079  -24.0356 C   0  0  0  0  0  0  0  0  0  0  0  0
  -17.4069   14.7416  -23.8333 C   0  0  0  0  0  0  0  0  0  0  0  0
  -16.4035   13.9702  -24.9901 S   0  0  0  0  0  0  0  0  0  0  0  0
  -17.0923   12.7418  -25.5293 O   0  0  0  0  0  0  0  0  0  0  0  0
  -15.0556   13.5519  -24.4726 O   0  0  0  0  0  0  0  0  0  0  0  0
  -16.0770   15.0012  -26.4074 C   0  0  0  0  0  0  0  0  0  0  0  0
  -14.6605   15.4768  -26.4044 C   0  0  0  0  0  0  0  0  0  0  0  0
  -16.5522   14.4121  -27.6935 C   0  0  0  0  0  0  0  0  0  0  0  0
  -20.6667   12.7198  -16.7896 C   0  0  0  0  0  0  0  0  0  0  0  0
  -21.1894   13.8664  -16.2201 C   0  0  0  0  0  0  0  0  0  0  0  0
  -20.6013   15.0989  -16.3976 C   0  0  0  0  0  0  0  0  0  0  0  0
  -19.4668   15.1255  -17.1717 C   0  0  0  0  0  0  0  0  0  0  0  0
  -18.9122   13.9856  -17.7622 C   0  0  0  0  0  0  0  0  0  0  0  0
  -19.5028   12.7602  -17.5818 C   0  0  0  0  0  0  0  0  0  0  0  0
  -21.1495   16.2749  -15.7959 N   0  0  0  0  0  0  0  0  0  0  0  0
  -22.1895   16.1220  -14.8371 C   0  0  0  0  0  0  0  0  0  0  0  0
  -22.4838   17.3260  -13.9870 C   0  0  0  0  0  0  0  0  0  0  0  0
  -22.4990   18.6182  -14.7319 C   0  0  0  0  0  0  0  0  0  0  0  0
  -21.8514   18.5215  -16.0987 C   0  0  0  0  0  0  0  0  0  0  0  0
  -20.6824   17.5968  -16.1382 C   0  0  0  0  0  0  0  0  0  0  0  0
  -22.0057   19.7583  -14.0681 N   0  0  0  0  0  0  0  0  0  0  0  0
  -21.4216   20.7936  -14.8139 C   0  0  0  0  0  0  0  0  0  0  0  0
  -20.6298   21.7146  -13.8812 C   0  0  0  0  0  0  0  0  0  0  0  0
  -21.4466   21.9651  -12.7096 N   0  0  0  0  0  0  0  0  0  0  0  0
  -22.5745   22.8073  -12.9500 C   0  0  0  0  0  0  0  0  0  0  0  0
  -21.7041   20.7918  -11.9388 C   0  0  0  0  0  0  0  0  0  0  0  0
  -21.4001   19.5609  -12.7903 C   0  0  0  0  0  0  0  0  0  0  0  0
  -21.7699   11.2101  -15.2725 C   0  0  0  0  0  0  0  0  0  0  0  0
  -21.3096   11.5114  -16.5700 O   0  0  0  0  0  0  0  0  0  0  0  0
 43 44  1  0  0  0
 44 24  1  0  0  0
 24 25  2  0  0  0
 25 26  1  0  0  0
 26 27  2  0  0  0
 27 28  1  0  0  0
 28 29  2  0  0  0
 29  1  1  0  0  0
  1  3  1  0  0  0
  3  4  2  0  0  0
  4  5  1  0  0  0
  5  6  2  0  0  0
  6  7  1  0  0  0
  6  8  1  0  0  0
  8 10  1  0  0  0
 10 12  1  0  0  0
 12 13  2  0  0  0
 13 14  1  0  0  0
 14 15  2  0  0  0
 15 16  1  0  0  0
 16 17  2  0  0  0
 17 18  1  0  0  0
 18 19  2  0  0  0
 18 20  2  0  0  0
 18 21  1  0  0  0
 21 22  1  0  0  0
 21 23  1  0  0  0
  8  9  2  0  0  0
 26 30  1  0  0  0
 30 31  1  0  0  0
 31 32  1  0  0  0
 32 33  1  0  0  0
 33 34  1  0  0  0
 34 35  1  0  0  0
 33 36  1  0  0  0
 36 37  1  0  0  0
 37 38  1  0  0  0
 38 39  1  0  0  0
 39 40  1  0  0  0
 39 41  1  0  0  0
 41 42  1  0  0  0
 29 24  1  0  0  0
  9  3  1  0  0  0
 35 30  1  0  0  0
 42 36  1  0  0  0
 17 12  1  0  0  0
  1  2  1  0  0  0
 10 11  1  0  0  0
M  END
> <minimizedAffinity>
-8.52737

> <CNNscore>
0.2717951834

> <CNNaffinity>
7.4159955978

> <CNN_VS>
2.0156319141

> <CNNaffinity_variance>
0.0601828806

$$$$
[H]c1nc(N([H])c2c([H])c([H])c(N3C([H])([H])C([H])([H])C([H])(N4C([H])([H])C([H])([H])N(C([H])([H])[H])C([H])([H])C4([H])[H])C([H])([H])C3([H])[H])c([H])c2OC([H])([H])[H])nc(N([H])c2c([H])c([H])c([H])c([H])c2S(=O)(=O)C([H])(C([H])([H])[H])C([H])([H])[H])c1Cl


 44 48  0  0  0  0  0  0  0  0999 V2000
  -19.8786   12.1833  -18.1381 N   0  0  0  0  0  0  0  0  0  0  0  0
  -20.2984   11.4784  -17.4323 H   0  0  0  0  0  0  0  0  0  0  0  0
  -18.7687   11.7240  -18.8955 C   0  0  0  0  0  0  0  0  0  0  0  0
  -18.0822   10.5979  -18.6861 N   0  0  0  0  0  0  0  0  0  0  0  0
  -17.0428   10.2230  -19.4421 C   0  0  0  0  0  0  0  0  0  0  0  0
  -16.6388   11.0140  -20.4920 C   0  0  0  0  0  0  0  0  0  0  0  0
  -15.2741   10.5370  -21.4973 Cl  0  0  0  0  0  0  0  0  0  0  0  0
  -17.3473   12.2090  -20.7346 C   0  0  0  0  0  0  0  0  0  0  0  0
  -18.3688   12.4951  -19.9250 N   0  0  0  0  0  0  0  0  0  0  0  0
  -16.9161   12.9969  -21.8128 N   0  0  0  0  0  0  0  0  0  0  0  0
  -16.7180   12.4469  -22.7124 H   0  0  0  0  0  0  0  0  0  0  0  0
  -16.6966   14.3779  -21.9285 C   0  0  0  0  0  0  0  0  0  0  0  0
  -17.0835   15.2255  -20.9122 C   0  0  0  0  0  0  0  0  0  0  0  0
  -16.8731   16.6068  -21.0133 C   0  0  0  0  0  0  0  0  0  0  0  0
  -16.2788   17.1055  -22.1335 C   0  0  0  0  0  0  0  0  0  0  0  0
  -15.8935   16.2567  -23.1464 C   0  0  0  0  0  0  0  0  0  0  0  0
  -16.0870   14.9020  -23.0738 C   0  0  0  0  0  0  0  0  0  0  0  0
  -15.6002   13.8581  -24.3439 S   0  0  0  0  0  0  0  0  0  0  0  0
  -15.5282   12.4378  -23.8419 O   0  0  0  0  0  0  0  0  0  0  0  0
  -14.2714   14.1960  -24.9600 O   0  0  0  0  0  0  0  0  0  0  0  0
  -16.7651   13.8341  -25.6932 C   0  0  0  0  0  0  0  0  0  0  0  0
  -18.1684   13.9142  -25.1862 C   0  0  0  0  0  0  0  0  0  0  0  0
  -16.4248   14.7875  -26.7897 C   0  0  0  0  0  0  0  0  0  0  0  0
  -20.8957   14.0097  -16.9541 C   0  0  0  0  0  0  0  0  0  0  0  0
  -21.5247   15.2403  -16.9059 C   0  0  0  0  0  0  0  0  0  0  0  0
  -21.8036   15.9589  -18.0471 C   0  0  0  0  0  0  0  0  0  0  0  0
  -21.4220   15.3851  -19.2355 C   0  0  0  0  0  0  0  0  0  0  0  0
  -20.7848   14.1431  -19.3198 C   0  0  0  0  0  0  0  0  0  0  0  0
  -20.5096   13.4316  -18.1792 C   0  0  0  0  0  0  0  0  0  0  0  0
  -22.4480   17.2339  -17.9807 N   0  0  0  0  0  0  0  0  0  0  0  0
  -21.7358   18.3765  -18.4406 C   0  0  0  0  0  0  0  0  0  0  0  0
  -22.5572   19.6119  -18.6809 C   0  0  0  0  0  0  0  0  0  0  0  0
  -23.5786   19.8878  -17.6292 C   0  0  0  0  0  0  0  0  0  0  0  0
  -23.8497   18.6917  -16.7388 C   0  0  0  0  0  0  0  0  0  0  0  0
  -23.7850   17.3878  -17.4592 C   0  0  0  0  0  0  0  0  0  0  0  0
  -24.8057   20.4417  -18.0427 N   0  0  0  0  0  0  0  0  0  0  0  0
  -25.8771   20.5007  -17.1383 C   0  0  0  0  0  0  0  0  0  0  0  0
  -27.1782   20.7677  -17.9005 C   0  0  0  0  0  0  0  0  0  0  0  0
  -26.9171   21.8170  -18.8666 N   0  0  0  0  0  0  0  0  0  0  0  0
  -26.7264   23.1100  -18.2911 C   0  0  0  0  0  0  0  0  0  0  0  0
  -25.9728   21.4407  -19.8685 C   0  0  0  0  0  0  0  0  0  0  0  0
  -25.2079   20.2074  -19.3925 C   0  0  0  0  0  0  0  0  0  0  0  0
  -21.7274   12.7813  -15.0576 C   0  0  0  0  0  0  0  0  0  0  0  0
  -20.6451   13.3400  -15.7665 O   0  0  0  0  0  0  0  0  0  0  0  0
 43 44  1  0  0  0
 44 24  1  0  0  0
 24 25  2  0  0  0
 25 26  1  0  0  0
 26 27  2  0  0  0
 27 28  1  0  0  0
 28 29  2  0  0  0
 29  1  1  0  0  0
  1  3  1  0  0  0
  3  4  2  0  0  0
  4  5  1  0  0  0
  5  6  2  0  0  0
  6  7  1  0  0  0
  6  8  1  0  0  0
  8 10  1  0  0  0
 10 12  1  0  0  0
 12 13  2  0  0  0
 13 14  1  0  0  0
 14 15  2  0  0  0
 15 16  1  0  0  0
 16 17  2  0  0  0
 17 18  1  0  0  0
 18 19  2  0  0  0
 18 20  2  0  0  0
 18 21  1  0  0  0
 21 22  1  0  0  0
 21 23  1  0  0  0
  8  9  2  0  0  0
 26 30  1  0  0  0
 30 31  1  0  0  0
 31 32  1  0  0  0
 32 33  1  0  0  0
 33 34  1  0  0  0
 34 35  1  0  0  0
 33 36  1  0  0  0
 36 37  1  0  0  0
 37 38  1  0  0  0
 38 39  1  0  0  0
 39 40  1  0  0  0
 39 41  1  0  0  0
 41 42  1  0  0  0
 29 24  1  0  0  0
  9  3  1  0  0  0
 35 30  1  0  0  0
 42 36  1  0  0  0
 17 12  1  0  0  0
  1  2  1  0  0  0
 10 11  1  0  0  0
M  END
> <minimizedAffinity>
-8.13179

> <CNNscore>
0.2296057492

> <CNNaffinity>
7.1405549049

> <CNN_VS>
1.6395124197

> <CNNaffinity_variance>
0.2047136575

$$$$
[H]c1nc(N([H])c2c([H])c([H])c(N3C([H])([H])C([H])([H])C([H])(N4C([H])([H])C([H])([H])N(C([H])([H])[H])C([H])([H])C4([H])[H])C([H])([H])C3([H])[H])c([H])c2OC([H])([H])[H])nc(N([H])c2c([H])c([H])c([H])c([H])c2S(=O)(=O)C([H])(C([H])([H])[H])C([H])([H])[H])c1Cl


 44 48  0  0  0  0  0  0  0  0999 V2000
  -18.1227    9.2507  -17.4083 N   0  0  0  0  0  0  0  0  0  0  0  0
  -17.2592    8.6840  -17.7316 H   0  0  0  0  0  0  0  0  0  0  0  0
  -18.9142    8.6578  -16.3892 C   0  0  0  0  0  0  0  0  0  0  0  0
  -19.9144    7.7918  -16.5705 N   0  0  0  0  0  0  0  0  0  0  0  0
  -20.6212    7.2683  -15.5611 C   0  0  0  0  0  0  0  0  0  0  0  0
  -20.3272    7.6197  -14.2644 C   0  0  0  0  0  0  0  0  0  0  0  0
  -21.2459    6.9413  -12.9241 Cl  0  0  0  0  0  0  0  0  0  0  0  0
  -19.2751    8.5329  -14.0458 C   0  0  0  0  0  0  0  0  0  0  0  0
  -18.6304    8.9986  -15.1174 N   0  0  0  0  0  0  0  0  0  0  0  0
  -18.9942    8.8733  -12.7136 N   0  0  0  0  0  0  0  0  0  0  0  0
  -18.0969    8.4332  -12.3235 H   0  0  0  0  0  0  0  0  0  0  0  0
  -19.6757    9.6875  -11.7965 C   0  0  0  0  0  0  0  0  0  0  0  0
  -20.4023   10.7710  -12.2428 C   0  0  0  0  0  0  0  0  0  0  0  0
  -21.0867   11.5947  -11.3398 C   0  0  0  0  0  0  0  0  0  0  0  0
  -21.0257   11.3113  -10.0083 C   0  0  0  0  0  0  0  0  0  0  0  0
  -20.2997   10.2287   -9.5658 C   0  0  0  0  0  0  0  0  0  0  0  0
  -19.6209    9.4066  -10.4268 C   0  0  0  0  0  0  0  0  0  0  0  0
  -18.7219    8.0612   -9.8595 S   0  0  0  0  0  0  0  0  0  0  0  0
  -18.9189    6.8858  -10.7835 O   0  0  0  0  0  0  0  0  0  0  0  0
  -19.0706    7.6151   -8.4671 O   0  0  0  0  0  0  0  0  0  0  0  0
  -16.9664    8.3711   -9.8411 C   0  0  0  0  0  0  0  0  0  0  0  0
  -16.6798    9.7857   -9.4543 C   0  0  0  0  0  0  0  0  0  0  0  0
  -16.1872    7.3348   -9.1022 C   0  0  0  0  0  0  0  0  0  0  0  0
  -17.5075   10.7459  -19.1854 C   0  0  0  0  0  0  0  0  0  0  0  0
  -17.6257   11.9335  -19.8839 C   0  0  0  0  0  0  0  0  0  0  0  0
  -18.5258   12.9077  -19.5137 C   0  0  0  0  0  0  0  0  0  0  0  0
  -19.2996   12.6337  -18.4122 C   0  0  0  0  0  0  0  0  0  0  0  0
  -19.2056   11.4440  -17.6834 C   0  0  0  0  0  0  0  0  0  0  0  0
  -18.3066   10.4769  -18.0571 C   0  0  0  0  0  0  0  0  0  0  0  0
  -18.6416   14.1279  -20.2507 N   0  0  0  0  0  0  0  0  0  0  0  0
  -18.1568   14.1590  -21.5879 C   0  0  0  0  0  0  0  0  0  0  0  0
  -18.6094   15.3217  -22.4258 C   0  0  0  0  0  0  0  0  0  0  0  0
  -18.5920   16.6352  -21.7190 C   0  0  0  0  0  0  0  0  0  0  0  0
  -18.4914   16.4960  -20.2132 C   0  0  0  0  0  0  0  0  0  0  0  0
  -19.2262   15.3154  -19.6752 C   0  0  0  0  0  0  0  0  0  0  0  0
  -19.6122   17.5553  -22.0294 N   0  0  0  0  0  0  0  0  0  0  0  0
  -19.8831   17.8600  -23.3722 C   0  0  0  0  0  0  0  0  0  0  0  0
  -20.7303   19.1333  -23.4488 C   0  0  0  0  0  0  0  0  0  0  0  0
  -21.7750   19.0299  -22.4486 N   0  0  0  0  0  0  0  0  0  0  0  0
  -22.7870   18.0699  -22.7545 C   0  0  0  0  0  0  0  0  0  0  0  0
  -21.2763   18.9981  -21.1116 C   0  0  0  0  0  0  0  0  0  0  0  0
  -19.7868   18.6621  -21.1445 C   0  0  0  0  0  0  0  0  0  0  0  0
  -15.8340   10.0703  -20.7793 C   0  0  0  0  0  0  0  0  0  0  0  0
  -16.5804    9.8082  -19.6130 O   0  0  0  0  0  0  0  0  0  0  0  0
 43 44  1  0  0  0
 44 24  1  0  0  0
 24 25  2  0  0  0
 25 26  1  0  0  0
 26 27  2  0  0  0
 27 28  1  0  0  0
 28 29  2  0  0  0
 29  1  1  0  0  0
  1  3  1  0  0  0
  3  4  2  0  0  0
  4  5  1  0  0  0
  5  6  2  0  0  0
  6  7  1  0  0  0
  6  8  1  0  0  0
  8 10  1  0  0  0
 10 12  1  0  0  0
 12 13  2  0  0  0
 13 14  1  0  0  0
 14 15  2  0  0  0
 15 16  1  0  0  0
 16 17  2  0  0  0
 17 18  1  0  0  0
 18 19  2  0  0  0
 18 20  2  0  0  0
 18 21  1  0  0  0
 21 22  1  0  0  0
 21 23  1  0  0  0
  8  9  2  0  0  0
 26 30  1  0  0  0
 30 31  1  0  0  0
 31 32  1  0  0  0
 32 33  1  0  0  0
 33 34  1  0  0  0
 34 35  1  0  0  0
 33 36  1  0  0  0
 36 37  1  0  0  0
 37 38  1  0  0  0
 38 39  1  0  0  0
 39 40  1  0  0  0
 39 41  1  0  0  0
 41 42  1  0  0  0
 29 24  1  0  0  0
  9  3  1  0  0  0
 35 30  1  0  0  0
 42 36  1  0  0  0
 17 12  1  0  0  0
  1  2  1  0  0  0
 10 11  1  0  0  0
M  END
> <minimizedAffinity>
-8.81084

> <CNNscore>
0.2181086987

> <CNNaffinity>
6.7518606186

> <CNN_VS>
1.4726395607

> <CNNaffinity_variance>
0.5614341497

$$$$
[H]c1nc(N([H])c2c([H])c([H])c(N3C([H])([H])C([H])([H])C([H])(N4C([H])([H])C([H])([H])N(C([H])([H])[H])C([H])([H])C4([H])[H])C([H])([H])C3([H])[H])c([H])c2OC([H])([H])[H])nc(N([H])c2c([H])c([H])c([H])c([H])c2S(=O)(=O)C([H])(C([H])([H])[H])C([H])([H])[H])c1Cl


 44 48  0  0  0  0  0  0  0  0999 V2000
  -17.7529   13.9261  -21.2081 N   0  0  0  0  0  0  0  0  0  0  0  0
  -17.3480   13.3973  -22.0611 H   0  0  0  0  0  0  0  0  0  0  0  0
  -17.7703   15.3429  -21.3011 C   0  0  0  0  0  0  0  0  0  0  0  0
  -16.7072   16.1369  -21.4519 N   0  0  0  0  0  0  0  0  0  0  0  0
  -16.7954   17.4703  -21.5343 C   0  0  0  0  0  0  0  0  0  0  0  0
  -18.0255   18.0811  -21.4638 C   0  0  0  0  0  0  0  0  0  0  0  0
  -18.1608   19.8335  -21.5706 Cl  0  0  0  0  0  0  0  0  0  0  0  0
  -19.1644   17.2649  -21.3046 C   0  0  0  0  0  0  0  0  0  0  0  0
  -18.9726   15.9462  -21.2326 N   0  0  0  0  0  0  0  0  0  0  0  0
  -20.4074   17.9128  -21.2375 N   0  0  0  0  0  0  0  0  0  0  0  0
  -20.5742   18.4585  -20.3290 H   0  0  0  0  0  0  0  0  0  0  0  0
  -21.4749   17.9772  -22.1457 C   0  0  0  0  0  0  0  0  0  0  0  0
  -21.2271   17.9856  -23.5021 C   0  0  0  0  0  0  0  0  0  0  0  0
  -22.2818   18.0513  -24.4217 C   0  0  0  0  0  0  0  0  0  0  0  0
  -23.5618   18.1072  -23.9580 C   0  0  0  0  0  0  0  0  0  0  0  0
  -23.8060   18.0984  -22.6033 C   0  0  0  0  0  0  0  0  0  0  0  0
  -22.7937   18.0346  -21.6818 C   0  0  0  0  0  0  0  0  0  0  0  0
  -23.1148   18.0234  -19.9975 S   0  0  0  0  0  0  0  0  0  0  0  0
  -22.2504   16.9919  -19.3171 O   0  0  0  0  0  0  0  0  0  0  0  0
  -24.5448   17.7380  -19.6328 O   0  0  0  0  0  0  0  0  0  0  0  0
  -22.7185   19.5759  -19.2159 C   0  0  0  0  0  0  0  0  0  0  0  0
  -21.5746   19.4175  -18.2677 C   0  0  0  0  0  0  0  0  0  0  0  0
  -22.6020   20.7124  -20.1759 C   0  0  0  0  0  0  0  0  0  0  0  0
  -17.5753   11.8554  -20.0028 C   0  0  0  0  0  0  0  0  0  0  0  0
  -17.9490   10.9907  -18.9904 C   0  0  0  0  0  0  0  0  0  0  0  0
  -18.9366   11.3137  -18.0867 C   0  0  0  0  0  0  0  0  0  0  0  0
  -19.5294   12.5425  -18.2470 C   0  0  0  0  0  0  0  0  0  0  0  0
  -19.1759   13.4403  -19.2593 C   0  0  0  0  0  0  0  0  0  0  0  0
  -18.1910   13.1128  -20.1569 C   0  0  0  0  0  0  0  0  0  0  0  0
  -19.3071   10.4118  -17.0403 N   0  0  0  0  0  0  0  0  0  0  0  0
  -18.7752    9.0924  -17.0648 C   0  0  0  0  0  0  0  0  0  0  0  0
  -18.9000    8.3082  -15.7887 C   0  0  0  0  0  0  0  0  0  0  0  0
  -20.2210    8.4421  -15.1091 C   0  0  0  0  0  0  0  0  0  0  0  0
  -21.0321    9.6171  -15.6175 C   0  0  0  0  0  0  0  0  0  0  0  0
  -20.2010   10.8018  -15.9765 C   0  0  0  0  0  0  0  0  0  0  0  0
  -20.2308    8.4506  -13.7007 N   0  0  0  0  0  0  0  0  0  0  0  0
  -21.4145    8.7738  -13.0196 C   0  0  0  0  0  0  0  0  0  0  0  0
  -21.0940    9.0943  -11.5570 C   0  0  0  0  0  0  0  0  0  0  0  0
  -20.1703    8.0855  -11.0756 N   0  0  0  0  0  0  0  0  0  0  0  0
  -20.7527    6.7937  -10.8984 C   0  0  0  0  0  0  0  0  0  0  0  0
  -18.9093    8.1090  -11.7436 C   0  0  0  0  0  0  0  0  0  0  0  0
  -19.0485    8.9033  -13.0407 C   0  0  0  0  0  0  0  0  0  0  0  0
  -16.0673   10.1537  -20.7953 C   0  0  0  0  0  0  0  0  0  0  0  0
  -16.5732   11.4665  -20.8782 O   0  0  0  0  0  0  0  0  0  0  0  0
 43 44  1  0  0  0
 44 24  1  0  0  0
 24 25  2  0  0  0
 25 26  1  0  0  0
 26 27  2  0  0  0
 27 28  1  0  0  0
 28 29  2  0  0  0
 29  1  1  0  0  0
  1  3  1  0  0  0
  3  4  2  0  0  0
  4  5  1  0  0  0
  5  6  2  0  0  0
  6  7  1  0  0  0
  6  8  1  0  0  0
  8 10  1  0  0  0
 10 12  1  0  0  0
 12 13  2  0  0  0
 13 14  1  0  0  0
 14 15  2  0  0  0
 15 16  1  0  0  0
 16 17  2  0  0  0
 17 18  1  0  0  0
 18 19  2  0  0  0
 18 20  2  0  0  0
 18 21  1  0  0  0
 21 22  1  0  0  0
 21 23  1  0  0  0
  8  9  2  0  0  0
 26 30  1  0  0  0
 30 31  1  0  0  0
 31 32  1  0  0  0
 32 33  1  0  0  0
 33 34  1  0  0  0
 34 35  1  0  0  0
 33 36  1  0  0  0
 36 37  1  0  0  0
 37 38  1  0  0  0
 38 39  1  0  0  0
 39 40  1  0  0  0
 39 41  1  0  0  0
 41 42  1  0  0  0
 29 24  1  0  0  0
  9  3  1  0  0  0
 35 30  1  0  0  0
 42 36  1  0  0  0
 17 12  1  0  0  0
  1  2  1  0  0  0
 10 11  1  0  0  0
M  END
> <minimizedAffinity>
-8.12821

> <CNNscore>
0.1768947989

> <CNNaffinity>
6.9974160194

> <CNN_VS>
1.2378065586

> <CNNaffinity_variance>
0.2204501927

$$$$
[H]c1nc(N([H])c2c([H])c([H])c(N3C([H])([H])C([H])([H])C([H])(N4C([H])([H])C([H])([H])N(C([H])([H])[H])C([H])([H])C4([H])[H])C([H])([H])C3([H])[H])c([H])c2OC([H])([H])[H])nc(N([H])c2c([H])c([H])c([H])c([H])c2S(=O)(=O)C([H])(C([H])([H])[H])C([H])([H])[H])c1Cl


 44 48  0  0  0  0  0  0  0  0999 V2000
  -17.1017   13.1174  -21.6274 N   0  0  0  0  0  0  0  0  0  0  0  0
  -16.5336   12.7779  -22.4836 H   0  0  0  0  0  0  0  0  0  0  0  0
  -17.3526   12.1491  -20.6194 C   0  0  0  0  0  0  0  0  0  0  0  0
  -16.7331   10.9741  -20.4824 N   0  0  0  0  0  0  0  0  0  0  0  0
  -17.0190   10.1057  -19.5043 C   0  0  0  0  0  0  0  0  0  0  0  0
  -17.9921   10.4095  -18.5813 C   0  0  0  0  0  0  0  0  0  0  0  0
  -18.3815    9.2798  -17.2880 Cl  0  0  0  0  0  0  0  0  0  0  0  0
  -18.6616   11.6446  -18.7038 C   0  0  0  0  0  0  0  0  0  0  0  0
  -18.3048   12.4418  -19.7128 N   0  0  0  0  0  0  0  0  0  0  0  0
  -19.6486   11.9311  -17.7482 N   0  0  0  0  0  0  0  0  0  0  0  0
  -19.9632   11.0849  -17.1686 H   0  0  0  0  0  0  0  0  0  0  0  0
  -20.3004   13.1271  -17.4118 C   0  0  0  0  0  0  0  0  0  0  0  0
  -20.1641   14.2375  -18.2178 C   0  0  0  0  0  0  0  0  0  0  0  0
  -20.8069   15.4395  -17.8947 C   0  0  0  0  0  0  0  0  0  0  0  0
  -21.5722   15.4990  -16.7689 C   0  0  0  0  0  0  0  0  0  0  0  0
  -21.7066   14.3887  -15.9663 C   0  0  0  0  0  0  0  0  0  0  0  0
  -21.0893   13.2006  -16.2585 C   0  0  0  0  0  0  0  0  0  0  0  0
  -21.2677   11.8263  -15.2488 S   0  0  0  0  0  0  0  0  0  0  0  0
  -19.9351   11.4531  -14.6495 O   0  0  0  0  0  0  0  0  0  0  0  0
  -21.8195   10.6091  -15.9369 O   0  0  0  0  0  0  0  0  0  0  0  0
  -22.3503   12.1304  -13.8655 C   0  0  0  0  0  0  0  0  0  0  0  0
  -23.6494   11.4127  -14.0386 C   0  0  0  0  0  0  0  0  0  0  0  0
  -21.6885   11.9464  -12.5407 C   0  0  0  0  0  0  0  0  0  0  0  0
  -18.0086   14.9570  -22.8786 C   0  0  0  0  0  0  0  0  0  0  0  0
  -18.4160   16.2727  -23.0021 C   0  0  0  0  0  0  0  0  0  0  0  0
  -18.3365   17.1596  -21.9516 C   0  0  0  0  0  0  0  0  0  0  0  0
  -17.8302   16.6642  -20.7746 C   0  0  0  0  0  0  0  0  0  0  0  0
  -17.4091   15.3402  -20.6157 C   0  0  0  0  0  0  0  0  0  0  0  0
  -17.4907   14.4610  -21.6662 C   0  0  0  0  0  0  0  0  0  0  0  0
  -18.7688   18.5156  -22.0925 N   0  0  0  0  0  0  0  0  0  0  0  0
  -18.6842   19.1224  -23.3766 C   0  0  0  0  0  0  0  0  0  0  0  0
  -19.4611   20.3965  -23.5554 C   0  0  0  0  0  0  0  0  0  0  0  0
  -19.3694   21.3416  -22.4050 C   0  0  0  0  0  0  0  0  0  0  0  0
  -18.8374   20.6900  -21.1443 C   0  0  0  0  0  0  0  0  0  0  0  0
  -19.2772   19.2753  -20.9756 C   0  0  0  0  0  0  0  0  0  0  0  0
  -20.5175   22.0925  -22.0861 N   0  0  0  0  0  0  0  0  0  0  0  0
  -21.4420   22.4039  -23.0949 C   0  0  0  0  0  0  0  0  0  0  0  0
  -22.3709   23.5218  -22.6126 C   0  0  0  0  0  0  0  0  0  0  0  0
  -22.7763   23.2054  -21.2569 N   0  0  0  0  0  0  0  0  0  0  0  0
  -23.6808   22.1050  -21.1567 C   0  0  0  0  0  0  0  0  0  0  0  0
  -21.6916   23.2007  -20.3292 C   0  0  0  0  0  0  0  0  0  0  0  0
  -20.3769   23.1173  -21.1020 C   0  0  0  0  0  0  0  0  0  0  0  0
  -17.5419   14.5184  -25.1996 C   0  0  0  0  0  0  0  0  0  0  0  0
  -18.1165   14.1179  -23.9767 O   0  0  0  0  0  0  0  0  0  0  0  0
 43 44  1  0  0  0
 44 24  1  0  0  0
 24 25  2  0  0  0
 25 26  1  0  0  0
 26 27  2  0  0  0
 27 28  1  0  0  0
 28 29  2  0  0  0
 29  1  1  0  0  0
  1  3  1  0  0  0
  3  4  2  0  0  0
  4  5  1  0  0  0
  5  6  2  0  0  0
  6  7  1  0  0  0
  6  8  1  0  0  0
  8 10  1  0  0  0
 10 12  1  0  0  0
 12 13  2  0  0  0
 13 14  1  0  0  0
 14 15  2  0  0  0
 15 16  1  0  0  0
 16 17  2  0  0  0
 17 18  1  0  0  0
 18 19  2  0  0  0
 18 20  2  0  0  0
 18 21  1  0  0  0
 21 22  1  0  0  0
 21 23  1  0  0  0
  8  9  2  0  0  0
 26 30  1  0  0  0
 30 31  1  0  0  0
 31 32  1  0  0  0
 32 33  1  0  0  0
 33 34  1  0  0  0
 34 35  1  0  0  0
 33 36  1  0  0  0
 36 37  1  0  0  0
 37 38  1  0  0  0
 38 39  1  0  0  0
 39 40  1  0  0  0
 39 41  1  0  0  0
 41 42  1  0  0  0
 29 24  1  0  0  0
  9  3  1  0  0  0
 35 30  1  0  0  0
 42 36  1  0  0  0
 17 12  1  0  0  0
  1  2  1  0  0  0
 10 11  1  0  0  0
M  END
> <minimizedAffinity>
-7.58541

> <CNNscore>
0.1694174409

> <CNNaffinity>
7.1374311447

> <CNN_VS>
1.2092052698

> <CNNaffinity_variance>
0.2538827956

$$$$
[H]c1nc(N([H])c2c([H])c([H])c(N3C([H])([H])C([H])([H])C([H])(N4C([H])([H])C([H])([H])N(C([H])([H])[H])C([H])([H])C4([H])[H])C([H])([H])C3([H])[H])c([H])c2OC([H])([H])[H])nc(N([H])c2c([H])c([H])c([H])c([H])c2S(=O)(=O)C([H])(C([H])([H])[H])C([H])([H])[H])c1Cl


 44 48  0  0  0  0  0  0  0  0999 V2000
  -17.0503   12.9285  -21.6400 N   0  0  0  0  0  0  0  0  0  0  0  0
  -16.3484   12.6161  -22.4022 H   0  0  0  0  0  0  0  0  0  0  0  0
  -17.3081   11.9910  -20.6050 C   0  0  0  0  0  0  0  0  0  0  0  0
  -16.6835   10.8248  -20.4232 N   0  0  0  0  0  0  0  0  0  0  0  0
  -16.9765    9.9859  -19.4217 C   0  0  0  0  0  0  0  0  0  0  0  0
  -17.9629   10.3127  -18.5209 C   0  0  0  0  0  0  0  0  0  0  0  0
  -18.3619    9.2219  -17.1974 Cl  0  0  0  0  0  0  0  0  0  0  0  0
  -18.6381   11.5391  -18.6907 C   0  0  0  0  0  0  0  0  0  0  0  0
  -18.2733   12.3061  -19.7200 N   0  0  0  0  0  0  0  0  0  0  0  0
  -19.6387   11.8494  -17.7570 N   0  0  0  0  0  0  0  0  0  0  0  0
  -19.9035   11.0392  -17.1054 H   0  0  0  0  0  0  0  0  0  0  0  0
  -20.3576   13.0306  -17.5197 C   0  0  0  0  0  0  0  0  0  0  0  0
  -20.3047   14.0651  -18.4298 C   0  0  0  0  0  0  0  0  0  0  0  0
  -21.0152   15.2516  -18.2065 C   0  0  0  0  0  0  0  0  0  0  0  0
  -21.7630   15.3721  -17.0738 C   0  0  0  0  0  0  0  0  0  0  0  0
  -21.8140   14.3375  -16.1673 C   0  0  0  0  0  0  0  0  0  0  0  0
  -21.1293   13.1663  -16.3604 C   0  0  0  0  0  0  0  0  0  0  0  0
  -21.2043   11.8864  -15.2218 S   0  0  0  0  0  0  0  0  0  0  0  0
  -19.8257   11.5972  -14.6832 O   0  0  0  0  0  0  0  0  0  0  0  0
  -21.7674   10.6004  -15.7589 O   0  0  0  0  0  0  0  0  0  0  0  0
  -22.2014   12.2932  -13.8011 C   0  0  0  0  0  0  0  0  0  0  0  0
  -23.6152   11.8524  -13.9996 C   0  0  0  0  0  0  0  0  0  0  0  0
  -21.5812   11.8914  -12.5045 C   0  0  0  0  0  0  0  0  0  0  0  0
  -17.9492   14.5983  -23.1151 C   0  0  0  0  0  0  0  0  0  0  0  0
  -18.4825   15.8482  -23.3713 C   0  0  0  0  0  0  0  0  0  0  0  0
  -18.6813   16.7724  -22.3700 C   0  0  0  0  0  0  0  0  0  0  0  0
  -18.3205   16.3833  -21.1029 C   0  0  0  0  0  0  0  0  0  0  0  0
  -17.7787   15.1281  -20.8093 C   0  0  0  0  0  0  0  0  0  0  0  0
  -17.5828   14.2112  -21.8113 C   0  0  0  0  0  0  0  0  0  0  0  0
  -19.2409   18.0586  -22.6495 N   0  0  0  0  0  0  0  0  0  0  0  0
  -18.7006   19.1914  -21.9792 C   0  0  0  0  0  0  0  0  0  0  0  0
  -19.0658   20.5319  -22.5523 C   0  0  0  0  0  0  0  0  0  0  0  0
  -20.4962   20.6616  -22.9553 C   0  0  0  0  0  0  0  0  0  0  0  0
  -21.2037   19.3258  -23.0656 C   0  0  0  0  0  0  0  0  0  0  0  0
  -20.3308   18.2317  -23.5796 C   0  0  0  0  0  0  0  0  0  0  0  0
  -20.7831   21.4307  -24.0998 N   0  0  0  0  0  0  0  0  0  0  0  0
  -20.4420   22.7917  -24.1213 C   0  0  0  0  0  0  0  0  0  0  0  0
  -21.1807   23.4880  -25.2678 C   0  0  0  0  0  0  0  0  0  0  0  0
  -21.0754   22.6412  -26.4402 N   0  0  0  0  0  0  0  0  0  0  0  0
  -19.7684   22.5929  -27.0135 C   0  0  0  0  0  0  0  0  0  0  0  0
  -21.7311   21.3825  -26.2889 C   0  0  0  0  0  0  0  0  0  0  0  0
  -21.9881   21.1310  -24.8045 C   0  0  0  0  0  0  0  0  0  0  0  0
  -17.3651   14.2212  -25.4203 C   0  0  0  0  0  0  0  0  0  0  0  0
  -17.7758   13.7162  -24.1704 O   0  0  0  0  0  0  0  0  0  0  0  0
 43 44  1  0  0  0
 44 24  1  0  0  0
 24 25  2  0  0  0
 25 26  1  0  0  0
 26 27  2  0  0  0
 27 28  1  0  0  0
 28 29  2  0  0  0
 29  1  1  0  0  0
  1  3  1  0  0  0
  3  4  2  0  0  0
  4  5  1  0  0  0
  5  6  2  0  0  0
  6  7  1  0  0  0
  6  8  1  0  0  0
  8 10  1  0  0  0
 10 12  1  0  0  0
 12 13  2  0  0  0
 13 14  1  0  0  0
 14 15  2  0  0  0
 15 16  1  0  0  0
 16 17  2  0  0  0
 17 18  1  0  0  0
 18 19  2  0  0  0
 18 20  2  0  0  0
 18 21  1  0  0  0
 21 22  1  0  0  0
 21 23  1  0  0  0
  8  9  2  0  0  0
 26 30  1  0  0  0
 30 31  1  0  0  0
 31 32  1  0  0  0
 32 33  1  0  0  0
 33 34  1  0  0  0
 34 35  1  0  0  0
 33 36  1  0  0  0
 36 37  1  0  0  0
 37 38  1  0  0  0
 38 39  1  0  0  0
 39 40  1  0  0  0
 39 41  1  0  0  0
 41 42  1  0  0  0
 29 24  1  0  0  0
  9  3  1  0  0  0
 35 30  1  0  0  0
 42 36  1  0  0  0
 17 12  1  0  0  0
  1  2  1  0  0  0
 10 11  1  0  0  0
M  END
> <minimizedAffinity>
-8.10759

> <CNNscore>
0.1677810550

> <CNNaffinity>
7.2722826004

> <CNN_VS>
1.2201513052

> <CNNaffinity_variance>
0.1475920975

$$$$
[H]c1nc(N([H])c2c([H])c([H])c(N3C([H])([H])C([H])([H])C([H])(N4C([H])([H])C([H])([H])N(C([H])([H])[H])C([H])([H])C4([H])[H])C([H])([H])C3([H])[H])c([H])c2OC([H])([H])[H])nc(N([H])c2c([H])c([H])c([H])c([H])c2S(=O)(=O)C([H])(C([H])([H])[H])C([H])([H])[H])c1Cl


 44 48  0  0  0  0  0  0  0  0999 V2000
  -17.0253   13.4078  -22.1782 N   0  0  0  0  0  0  0  0  0  0  0  0
  -16.5450   13.1067  -23.1001 H   0  0  0  0  0  0  0  0  0  0  0  0
  -17.1647   12.4000  -21.1875 C   0  0  0  0  0  0  0  0  0  0  0  0
  -16.9322   11.0953  -21.3510 N   0  0  0  0  0  0  0  0  0  0  0  0
  -17.0827   10.1965  -20.3702 C   0  0  0  0  0  0  0  0  0  0  0  0
  -17.4951   10.6055  -19.1236 C   0  0  0  0  0  0  0  0  0  0  0  0
  -17.6983    9.4377  -17.8215 Cl  0  0  0  0  0  0  0  0  0  0  0  0
  -17.7474   11.9786  -18.9246 C   0  0  0  0  0  0  0  0  0  0  0  0
  -17.5683   12.7953  -19.9647 N   0  0  0  0  0  0  0  0  0  0  0  0
  -18.1651   12.3698  -17.6433 N   0  0  0  0  0  0  0  0  0  0  0  0
  -17.3901   12.7944  -17.0349 H   0  0  0  0  0  0  0  0  0  0  0  0
  -19.4162   12.3068  -17.0115 C   0  0  0  0  0  0  0  0  0  0  0  0
  -19.9464   11.0860  -16.6511 C   0  0  0  0  0  0  0  0  0  0  0  0
  -21.1951   11.0061  -16.0213 C   0  0  0  0  0  0  0  0  0  0  0  0
  -21.8833   12.1546  -15.7677 C   0  0  0  0  0  0  0  0  0  0  0  0
  -21.3512   13.3718  -16.1285 C   0  0  0  0  0  0  0  0  0  0  0  0
  -20.1323   13.4791  -16.7454 C   0  0  0  0  0  0  0  0  0  0  0  0
  -19.4829   15.0032  -17.1875 S   0  0  0  0  0  0  0  0  0  0  0  0
  -19.6106   15.2031  -18.6768 O   0  0  0  0  0  0  0  0  0  0  0  0
  -18.0392   15.2014  -16.8189 O   0  0  0  0  0  0  0  0  0  0  0  0
  -20.3620   16.3630  -16.4414 C   0  0  0  0  0  0  0  0  0  0  0  0
  -19.4101   17.3925  -15.9250 C   0  0  0  0  0  0  0  0  0  0  0  0
  -21.4754   16.8864  -17.2860 C   0  0  0  0  0  0  0  0  0  0  0  0
  -18.1209   15.2657  -23.2364 C   0  0  0  0  0  0  0  0  0  0  0  0
  -18.5523   16.5791  -23.2661 C   0  0  0  0  0  0  0  0  0  0  0  0
  -18.3259   17.4421  -22.2171 C   0  0  0  0  0  0  0  0  0  0  0  0
  -17.6479   16.9252  -21.1400 C   0  0  0  0  0  0  0  0  0  0  0  0
  -17.1977   15.6027  -21.0776 C   0  0  0  0  0  0  0  0  0  0  0  0
  -17.4263   14.7474  -22.1261 C   0  0  0  0  0  0  0  0  0  0  0  0
  -18.7848   18.7960  -22.2593 N   0  0  0  0  0  0  0  0  0  0  0  0
  -18.7659   19.4780  -23.5078 C   0  0  0  0  0  0  0  0  0  0  0  0
  -19.5695   20.7461  -23.5780 C   0  0  0  0  0  0  0  0  0  0  0  0
  -19.4421   21.6242  -22.3789 C   0  0  0  0  0  0  0  0  0  0  0  0
  -18.8454   20.9100  -21.1826 C   0  0  0  0  0  0  0  0  0  0  0  0
  -19.2555   19.4802  -21.0789 C   0  0  0  0  0  0  0  0  0  0  0  0
  -20.5866   22.3345  -21.9675 N   0  0  0  0  0  0  0  0  0  0  0  0
  -21.3490   23.0282  -22.9197 C   0  0  0  0  0  0  0  0  0  0  0  0
  -22.2816   24.0145  -22.2110 C   0  0  0  0  0  0  0  0  0  0  0  0
  -22.8828   23.3241  -21.0865 N   0  0  0  0  0  0  0  0  0  0  0  0
  -23.8431   22.3325  -21.4523 C   0  0  0  0  0  0  0  0  0  0  0  0
  -21.9365   22.9316  -20.0928 C   0  0  0  0  0  0  0  0  0  0  0  0
  -20.5339   22.9803  -20.6952 C   0  0  0  0  0  0  0  0  0  0  0  0
  -17.4670   14.4312  -25.3983 C   0  0  0  0  0  0  0  0  0  0  0  0
  -18.3827   14.4512  -24.3272 O   0  0  0  0  0  0  0  0  0  0  0  0
 43 44  1  0  0  0
 44 24  1  0  0  0
 24 25  2  0  0  0
 25 26  1  0  0  0
 26 27  2  0  0  0
 27 28  1  0  0  0
 28 29  2  0  0  0
 29  1  1  0  0  0
  1  3  1  0  0  0
  3  4  2  0  0  0
  4  5  1  0  0  0
  5  6  2  0  0  0
  6  7  1  0  0  0
  6  8  1  0  0  0
  8 10  1  0  0  0
 10 12  1  0  0  0
 12 13  2  0  0  0
 13 14  1  0  0  0
 14 15  2  0  0  0
 15 16  1  0  0  0
 16 17  2  0  0  0
 17 18  1  0  0  0
 18 19  2  0  0  0
 18 20  2  0  0  0
 18 21  1  0  0  0
 21 22  1  0  0  0
 21 23  1  0  0  0
  8  9  2  0  0  0
 26 30  1  0  0  0
 30 31  1  0  0  0
 31 32  1  0  0  0
 32 33  1  0  0  0
 33 34  1  0  0  0
 34 35  1  0  0  0
 33 36  1  0  0  0
 36 37  1  0  0  0
 37 38  1  0  0  0
 38 39  1  0  0  0
 39 40  1  0  0  0
 39 41  1  0  0  0
 41 42  1  0  0  0
 29 24  1  0  0  0
  9  3  1  0  0  0
 35 30  1  0  0  0
 42 36  1  0  0  0
 17 12  1  0  0  0
  1  2  1  0  0  0
 10 11  1  0  0  0
M  END
> <minimizedAffinity>
-7.50485

> <CNNscore>
0.1650960445

> <CNNaffinity>
7.3433737755

> <CNN_VS>
1.2123619318

> <CNNaffinity_variance>
0.1867582500

$$$$
[H]c1nc(N([H])c2c([H])c([H])c(N3C([H])([H])C([H])([H])C([H])(N4C([H])([H])C([H])([H])N(C([H])([H])[H])C([H])([H])C4([H])[H])C([H])([H])C3([H])[H])c([H])c2OC([H])([H])[H])nc(N([H])c2c([H])c([H])c([H])c([H])c2S(=O)(=O)C([H])(C([H])([H])[H])C([H])([H])[H])c1Cl


 44 48  0  0  0  0  0  0  0  0999 V2000
  -19.4512   11.7318  -17.5466 N   0  0  0  0  0  0  0  0  0  0  0  0
  -19.8987   10.9038  -17.0124 H   0  0  0  0  0  0  0  0  0  0  0  0
  -18.4423   11.3967  -18.4881 C   0  0  0  0  0  0  0  0  0  0  0  0
  -17.6323   10.3366  -18.4328 N   0  0  0  0  0  0  0  0  0  0  0  0
  -16.7001   10.0787  -19.3585 C   0  0  0  0  0  0  0  0  0  0  0  0
  -16.5450   10.9273  -20.4294 C   0  0  0  0  0  0  0  0  0  0  0  0
  -15.3244   10.6042  -21.6568 Cl  0  0  0  0  0  0  0  0  0  0  0  0
  -17.3883   12.0547  -20.5114 C   0  0  0  0  0  0  0  0  0  0  0  0
  -18.2863   12.2247  -19.5390 N   0  0  0  0  0  0  0  0  0  0  0  0
  -17.2109   12.9034  -21.6148 N   0  0  0  0  0  0  0  0  0  0  0  0
  -17.3416   12.4260  -22.5667 H   0  0  0  0  0  0  0  0  0  0  0  0
  -16.8931   14.2673  -21.6995 C   0  0  0  0  0  0  0  0  0  0  0  0
  -17.1331   15.0996  -20.6267 C   0  0  0  0  0  0  0  0  0  0  0  0
  -16.8231   16.4639  -20.6961 C   0  0  0  0  0  0  0  0  0  0  0  0
  -16.2789   16.9616  -21.8420 C   0  0  0  0  0  0  0  0  0  0  0  0
  -16.0403   16.1282  -22.9113 C   0  0  0  0  0  0  0  0  0  0  0  0
  -16.3337   14.7902  -22.8707 C   0  0  0  0  0  0  0  0  0  0  0  0
  -16.0292   13.7651  -24.2111 S   0  0  0  0  0  0  0  0  0  0  0  0
  -15.3475   12.5025  -23.7472 O   0  0  0  0  0  0  0  0  0  0  0  0
  -15.1794   14.3772  -25.2893 O   0  0  0  0  0  0  0  0  0  0  0  0
  -17.5268   13.2352  -25.0202 C   0  0  0  0  0  0  0  0  0  0  0  0
  -18.5661   14.3077  -24.9712 C   0  0  0  0  0  0  0  0  0  0  0  0
  -17.2943   12.6295  -26.3641 C   0  0  0  0  0  0  0  0  0  0  0  0
  -21.0799   13.0505  -16.3716 C   0  0  0  0  0  0  0  0  0  0  0  0
  -21.6367   14.2583  -15.9930 C   0  0  0  0  0  0  0  0  0  0  0  0
  -21.1181   15.4618  -16.4163 C   0  0  0  0  0  0  0  0  0  0  0  0
  -20.0171   15.3952  -17.2351 C   0  0  0  0  0  0  0  0  0  0  0  0
  -19.4297   14.1915  -17.6370 C   0  0  0  0  0  0  0  0  0  0  0  0
  -19.9509   12.9954  -17.2121 C   0  0  0  0  0  0  0  0  0  0  0  0
  -21.7006   16.7033  -16.0102 N   0  0  0  0  0  0  0  0  0  0  0  0
  -22.9039   16.6698  -15.2517 C   0  0  0  0  0  0  0  0  0  0  0  0
  -23.2805   17.9483  -14.5573 C   0  0  0  0  0  0  0  0  0  0  0  0
  -23.0894   19.1772  -15.3809 C   0  0  0  0  0  0  0  0  0  0  0  0
  -22.2112   18.9460  -16.5944 C   0  0  0  0  0  0  0  0  0  0  0  0
  -21.1071   17.9737  -16.3522 C   0  0  0  0  0  0  0  0  0  0  0  0
  -22.6623   20.3448  -14.7191 N   0  0  0  0  0  0  0  0  0  0  0  0
  -22.1989   20.2598  -13.3972 C   0  0  0  0  0  0  0  0  0  0  0  0
  -22.1651   21.6582  -12.7742 C   0  0  0  0  0  0  0  0  0  0  0  0
  -21.5808   22.5613  -13.7466 N   0  0  0  0  0  0  0  0  0  0  0  0
  -20.1801   22.3749  -13.9528 C   0  0  0  0  0  0  0  0  0  0  0  0
  -22.3665   22.7030  -14.9297 C   0  0  0  0  0  0  0  0  0  0  0  0
  -23.3688   21.5529  -15.0017 C   0  0  0  0  0  0  0  0  0  0  0  0
  -21.5019   11.5333  -14.5501 C   0  0  0  0  0  0  0  0  0  0  0  0
  -21.6527   11.8760  -15.9088 O   0  0  0  0  0  0  0  0  0  0  0  0
 43 44  1  0  0  0
 44 24  1  0  0  0
 24 25  2  0  0  0
 25 26  1  0  0  0
 26 27  2  0  0  0
 27 28  1  0  0  0
 28 29  2  0  0  0
 29  1  1  0  0  0
  1  3  1  0  0  0
  3  4  2  0  0  0
  4  5  1  0  0  0
  5  6  2  0  0  0
  6  7  1  0  0  0
  6  8  1  0  0  0
  8 10  1  0  0  0
 10 12  1  0  0  0
 12 13  2  0  0  0
 13 14  1  0  0  0
 14 15  2  0  0  0
 15 16  1  0  0  0
 16 17  2  0  0  0
 17 18  1  0  0  0
 18 19  2  0  0  0
 18 20  2  0  0  0
 18 21  1  0  0  0
 21 22  1  0  0  0
 21 23  1  0  0  0
  8  9  2  0  0  0
 26 30  1  0  0  0
 30 31  1  0  0  0
 31 32  1  0  0  0
 32 33  1  0  0  0
 33 34  1  0  0  0
 34 35  1  0  0  0
 33 36  1  0  0  0
 36 37  1  0  0  0
 37 38  1  0  0  0
 38 39  1  0  0  0
 39 40  1  0  0  0
 39 41  1  0  0  0
 41 42  1  0  0  0
 29 24  1  0  0  0
  9  3  1  0  0  0
 35 30  1  0  0  0
 42 36  1  0  0  0
 17 12  1  0  0  0
  1  2  1  0  0  0
 10 11  1  0  0  0
M  END
> <minimizedAffinity>
-8.05115

> <CNNscore>
0.1642215550

> <CNNaffinity>
7.2557396889

> <CNN_VS>
1.1915488243

> <CNNaffinity_variance>
0.0626383424

$$$$
[H]c1nc(N([H])c2c([H])c([H])c(N3C([H])([H])C([H])([H])C([H])(N4C([H])([H])C([H])([H])N(C([H])([H])[H])C([H])([H])C4([H])[H])C([H])([H])C3([H])[H])c([H])c2OC([H])([H])[H])nc(N([H])c2c([H])c([H])c([H])c([H])c2S(=O)(=O)C([H])(C([H])([H])[H])C([H])([H])[H])c1Cl


 44 48  0  0  0  0  0  0  0  0999 V2000
  -17.3518   13.7697  -20.7270 N   0  0  0  0  0  0  0  0  0  0  0  0
  -16.6790   13.2575  -21.4025 H   0  0  0  0  0  0  0  0  0  0  0  0
  -17.5112   15.1644  -20.9414 C   0  0  0  0  0  0  0  0  0  0  0  0
  -16.5786   16.1025  -20.7582 N   0  0  0  0  0  0  0  0  0  0  0  0
  -16.7965   17.4045  -20.9816 C   0  0  0  0  0  0  0  0  0  0  0  0
  -18.0290   17.8272  -21.4212 C   0  0  0  0  0  0  0  0  0  0  0  0
  -18.3338   19.5355  -21.7205 Cl  0  0  0  0  0  0  0  0  0  0  0  0
  -19.0316   16.8562  -21.6226 C   0  0  0  0  0  0  0  0  0  0  0  0
  -18.7165   15.5838  -21.3720 N   0  0  0  0  0  0  0  0  0  0  0  0
  -20.2794   17.3136  -22.0732 N   0  0  0  0  0  0  0  0  0  0  0  0
  -20.3236   17.5159  -23.1259 H   0  0  0  0  0  0  0  0  0  0  0  0
  -21.4838   17.5546  -21.3950 C   0  0  0  0  0  0  0  0  0  0  0  0
  -21.6606   17.0794  -20.1128 C   0  0  0  0  0  0  0  0  0  0  0  0
  -22.8578   17.3101  -19.4229 C   0  0  0  0  0  0  0  0  0  0  0  0
  -23.8506   18.0131  -20.0368 C   0  0  0  0  0  0  0  0  0  0  0  0
  -23.6710   18.4864  -21.3169 C   0  0  0  0  0  0  0  0  0  0  0  0
  -22.5106   18.2755  -22.0146 C   0  0  0  0  0  0  0  0  0  0  0  0
  -22.3022   18.8729  -23.6083 S   0  0  0  0  0  0  0  0  0  0  0  0
  -22.3385   17.7314  -24.5932 O   0  0  0  0  0  0  0  0  0  0  0  0
  -21.0247   19.6327  -23.8319 O   0  0  0  0  0  0  0  0  0  0  0  0
  -23.6124   19.9768  -24.1011 C   0  0  0  0  0  0  0  0  0  0  0  0
  -23.1422   21.3951  -24.0986 C   0  0  0  0  0  0  0  0  0  0  0  0
  -24.3243   19.5403  -25.3379 C   0  0  0  0  0  0  0  0  0  0  0  0
  -17.4307   11.6629  -19.5750 C   0  0  0  0  0  0  0  0  0  0  0  0
  -17.9637   10.7987  -18.6362 C   0  0  0  0  0  0  0  0  0  0  0  0
  -19.0231   11.1606  -17.8343 C   0  0  0  0  0  0  0  0  0  0  0  0
  -19.5205   12.4277  -18.0190 C   0  0  0  0  0  0  0  0  0  0  0  0
  -19.0056   13.3262  -18.9587 C   0  0  0  0  0  0  0  0  0  0  0  0
  -17.9499   12.9599  -19.7551 C   0  0  0  0  0  0  0  0  0  0  0  0
  -19.5588   10.2582  -16.8625 N   0  0  0  0  0  0  0  0  0  0  0  0
  -20.7746   10.6086  -16.2120 C   0  0  0  0  0  0  0  0  0  0  0  0
  -21.4732    9.4980  -15.4790 C   0  0  0  0  0  0  0  0  0  0  0  0
  -20.5673    8.6155  -14.6879 C   0  0  0  0  0  0  0  0  0  0  0  0
  -19.1090    8.7678  -15.0714 C   0  0  0  0  0  0  0  0  0  0  0  0
  -18.9003    9.0187  -16.5263 C   0  0  0  0  0  0  0  0  0  0  0  0
  -20.8860    7.2451  -14.6238 N   0  0  0  0  0  0  0  0  0  0  0  0
  -22.2321    6.8484  -14.6092 C   0  0  0  0  0  0  0  0  0  0  0  0
  -22.3326    5.3903  -14.1526 C   0  0  0  0  0  0  0  0  0  0  0  0
  -21.3074    4.6374  -14.8489 N   0  0  0  0  0  0  0  0  0  0  0  0
  -21.5596    4.4528  -16.2423 C   0  0  0  0  0  0  0  0  0  0  0  0
  -19.9811    5.0403  -14.5086 C   0  0  0  0  0  0  0  0  0  0  0  0
  -20.0347    6.4112  -13.8374 C   0  0  0  0  0  0  0  0  0  0  0  0
  -16.2809    9.8713  -20.6998 C   0  0  0  0  0  0  0  0  0  0  0  0
  -16.3640   11.2337  -20.3493 O   0  0  0  0  0  0  0  0  0  0  0  0
 43 44  1  0  0  0
 44 24  1  0  0  0
 24 25  2  0  0  0
 25 26  1  0  0  0
 26 27  2  0  0  0
 27 28  1  0  0  0
 28 29  2  0  0  0
 29  1  1  0  0  0
  1  3  1  0  0  0
  3  4  2  0  0  0
  4  5  1  0  0  0
  5  6  2  0  0  0
  6  7  1  0  0  0
  6  8  1  0  0  0
  8 10  1  0  0  0
 10 12  1  0  0  0
 12 13  2  0  0  0
 13 14  1  0  0  0
 14 15  2  0  0  0
 15 16  1  0  0  0
 16 17  2  0  0  0
 17 18  1  0  0  0
 18 19  2  0  0  0
 18 20  2  0  0  0
 18 21  1  0  0  0
 21 22  1  0  0  0
 21 23  1  0  0  0
  8  9  2  0  0  0
 26 30  1  0  0  0
 30 31  1  0  0  0
 31 32  1  0  0  0
 32 33  1  0  0  0
 33 34  1  0  0  0
 34 35  1  0  0  0
 33 36  1  0  0  0
 36 37  1  0  0  0
 37 38  1  0  0  0
 38 39  1  0  0  0
 39 40  1  0  0  0
 39 41  1  0  0  0
 41 42  1  0  0  0
 29 24  1  0  0  0
  9  3  1  0  0  0
 35 30  1  0  0  0
 42 36  1  0  0  0
 17 12  1  0  0  0
  1  2  1  0  0  0
 10 11  1  0  0  0
M  END
> <minimizedAffinity>
-8.45325

> <CNNscore>
0.1557455361

> <CNNaffinity>
6.9069914818

> <CNN_VS>
1.0757330656

> <CNNaffinity_variance>
0.1915616393

$$$$
[H]c1c([H])c(-c2c([H])c([H])c(OC([H])(C([H])([H])[H])C([H])([H])[H])c(C#N)c2[H])c(C#N)c([H])c1C#N


 22 23  0  0  0  0  0  0  0  0999 V2000
  -16.7586   14.5818  -23.8700 C   0  0  0  0  0  0  0  0  0  0  0  0
  -16.5886   15.1200  -22.6148 C   0  0  0  0  0  0  0  0  0  0  0  0
  -16.8962   14.3844  -21.4775 C   0  0  0  0  0  0  0  0  0  0  0  0
  -17.3715   13.1172  -21.5727 C   0  0  0  0  0  0  0  0  0  0  0  0
  -17.5358   12.5930  -22.8527 C   0  0  0  0  0  0  0  0  0  0  0  0
  -17.2446   13.2858  -23.9827 C   0  0  0  0  0  0  0  0  0  0  0  0
  -17.7158   12.2606  -20.4449 C   0  0  0  0  0  0  0  0  0  0  0  0
  -18.7875   12.6112  -19.6195 C   0  0  0  0  0  0  0  0  0  0  0  0
  -19.1539   11.8466  -18.5325 C   0  0  0  0  0  0  0  0  0  0  0  0
  -18.4763   10.6906  -18.2038 C   0  0  0  0  0  0  0  0  0  0  0  0
  -17.4173   10.3338  -19.0102 C   0  0  0  0  0  0  0  0  0  0  0  0
  -17.0468   11.1072  -20.1102 C   0  0  0  0  0  0  0  0  0  0  0  0
  -15.9451   10.6830  -20.9213 C   0  0  0  0  0  0  0  0  0  0  0  0
  -15.0437   10.3234  -21.5630 N   0  0  0  0  0  0  0  0  0  0  0  0
  -18.8711    9.9044  -17.0662 C   0  0  0  0  0  0  0  0  0  0  0  0
  -19.1731    9.2767  -16.1437 N   0  0  0  0  0  0  0  0  0  0  0  0
  -17.4355   12.6893  -25.2868 C   0  0  0  0  0  0  0  0  0  0  0  0
  -17.5792   12.2037  -26.3354 N   0  0  0  0  0  0  0  0  0  0  0  0
  -16.4865   15.2205  -25.0542 O   0  0  0  0  0  0  0  0  0  0  0  0
  -14.1052   14.7763  -25.0675 C   0  0  0  0  0  0  0  0  0  0  0  0
  -15.2643   15.6609  -25.5243 C   0  0  0  0  0  0  0  0  0  0  0  0
  -15.2992   15.5375  -27.0498 C   0  0  0  0  0  0  0  0  0  0  0  0
 20 21  1  0  0  0
 21 22  1  0  0  0
 21 19  1  0  0  0
 19  1  1  0  0  0
  1  2  2  0  0  0
  2  3  1  0  0  0
  3  4  2  0  0  0
  4  5  1  0  0  0
  5  6  2  0  0  0
  6 17  1  0  0  0
 17 18  3  0  0  0
  4  7  1  0  0  0
  7  8  2  0  0  0
  8  9  1  0  0  0
  9 10  2  0  0  0
 10 11  1  0  0  0
 11 12  2  0  0  0
 12 13  1  0  0  0
 13 14  3  0  0  0
 10 15  1  0  0  0
 15 16  3  0  0  0
  6  1  1  0  0  0
 12  7  1  0  0  0
M  END
> <minimizedAffinity>
-8.15891

> <CNNscore>
0.9577970505

> <CNNaffinity>
6.7217054367

> <CNN_VS>
6.4380297661

> <CNNaffinity_variance>
0.0597786494

$$$$
[H]c1c([H])c(-c2c([H])c([H])c(OC([H])(C([H])([H])[H])C([H])([H])[H])c(C#N)c2[H])c(C#N)c([H])c1C#N


 22 23  0  0  0  0  0  0  0  0999 V2000
  -16.8575   14.6941  -23.0852 C   0  0  0  0  0  0  0  0  0  0  0  0
  -17.2018   13.3958  -23.3854 C   0  0  0  0  0  0  0  0  0  0  0  0
  -17.5551   12.5031  -22.3816 C   0  0  0  0  0  0  0  0  0  0  0  0
  -17.5709   12.8860  -21.0802 C   0  0  0  0  0  0  0  0  0  0  0  0
  -17.2190   14.2042  -20.7997 C   0  0  0  0  0  0  0  0  0  0  0  0
  -16.8691   15.1000  -21.7573 C   0  0  0  0  0  0  0  0  0  0  0  0
  -17.9332   12.0321  -19.9560 C   0  0  0  0  0  0  0  0  0  0  0  0
  -19.0066   12.3942  -19.1377 C   0  0  0  0  0  0  0  0  0  0  0  0
  -19.3896   11.6325  -18.0543 C   0  0  0  0  0  0  0  0  0  0  0  0
  -18.7279   10.4683  -17.7224 C   0  0  0  0  0  0  0  0  0  0  0  0
  -17.6674   10.1001  -18.5218 C   0  0  0  0  0  0  0  0  0  0  0  0
  -17.2801   10.8704  -19.6181 C   0  0  0  0  0  0  0  0  0  0  0  0
  -16.1777   10.4344  -20.4220 C   0  0  0  0  0  0  0  0  0  0  0  0
  -15.2871   10.0578  -21.0689 N   0  0  0  0  0  0  0  0  0  0  0  0
  -19.1399    9.6854  -16.5887 C   0  0  0  0  0  0  0  0  0  0  0  0
  -19.4867    9.0647  -15.6772 N   0  0  0  0  0  0  0  0  0  0  0  0
  -16.5126   16.4575  -21.4064 C   0  0  0  0  0  0  0  0  0  0  0  0
  -16.2341   17.5503  -21.1164 N   0  0  0  0  0  0  0  0  0  0  0  0
  -16.4939   15.6530  -23.9977 O   0  0  0  0  0  0  0  0  0  0  0  0
  -14.2537   14.7662  -24.2488 C   0  0  0  0  0  0  0  0  0  0  0  0
  -15.3381   15.7181  -24.7515 C   0  0  0  0  0  0  0  0  0  0  0  0
  -15.6922   15.2312  -26.1591 C   0  0  0  0  0  0  0  0  0  0  0  0
 20 21  1  0  0  0
 21 22  1  0  0  0
 21 19  1  0  0  0
 19  1  1  0  0  0
  1  2  2  0  0  0
  2  3  1  0  0  0
  3  4  2  0  0  0
  4  5  1  0  0  0
  5  6  2  0  0  0
  6 17  1  0  0  0
 17 18  3  0  0  0
  4  7  1  0  0  0
  7  8  2  0  0  0
  8  9  1  0  0  0
  9 10  2  0  0  0
 10 11  1  0  0  0
 11 12  2  0  0  0
 12 13  1  0  0  0
 13 14  3  0  0  0
 10 15  1  0  0  0
 15 16  3  0  0  0
  6  1  1  0  0  0
 12  7  1  0  0  0
M  END
> <minimizedAffinity>
-7.83521

> <CNNscore>
0.9222038984

> <CNNaffinity>
6.5476212502

> <CNN_VS>
6.0382418633

> <CNNaffinity_variance>
0.1727968454

$$$$
[H]c1c([H])c(-c2c([H])c([H])c(OC([H])(C([H])([H])[H])C([H])([H])[H])c(C#N)c2[H])c(C#N)c([H])c1C#N


 22 23  0  0  0  0  0  0  0  0999 V2000
  -17.1041   14.6822  -22.4536 C   0  0  0  0  0  0  0  0  0  0  0  0
  -17.1748   15.0636  -21.1332 C   0  0  0  0  0  0  0  0  0  0  0  0
  -17.4547   14.1354  -20.1384 C   0  0  0  0  0  0  0  0  0  0  0  0
  -17.6653   12.8297  -20.4408 C   0  0  0  0  0  0  0  0  0  0  0  0
  -17.5890   12.4663  -21.7833 C   0  0  0  0  0  0  0  0  0  0  0  0
  -17.3177   13.3489  -22.7780 C   0  0  0  0  0  0  0  0  0  0  0  0
  -17.9569   11.7785  -19.4743 C   0  0  0  0  0  0  0  0  0  0  0  0
  -19.0070   11.9515  -18.5688 C   0  0  0  0  0  0  0  0  0  0  0  0
  -19.3237   10.9974  -17.6252 C   0  0  0  0  0  0  0  0  0  0  0  0
  -18.6148    9.8178  -17.5277 C   0  0  0  0  0  0  0  0  0  0  0  0
  -17.5766    9.6351  -18.4154 C   0  0  0  0  0  0  0  0  0  0  0  0
  -17.2564   10.6000  -19.3701 C   0  0  0  0  0  0  0  0  0  0  0  0
  -16.1744   10.3529  -20.2756 C   0  0  0  0  0  0  0  0  0  0  0  0
  -15.3080   10.1343  -21.0206 N   0  0  0  0  0  0  0  0  0  0  0  0
  -18.9578    8.8330  -16.5376 C   0  0  0  0  0  0  0  0  0  0  0  0
  -19.2417    8.0317  -15.7542 N   0  0  0  0  0  0  0  0  0  0  0  0
  -17.2509   12.9137  -24.1560 C   0  0  0  0  0  0  0  0  0  0  0  0
  -17.1891   12.5559  -25.2624 N   0  0  0  0  0  0  0  0  0  0  0  0
  -16.8351   15.5161  -23.5104 O   0  0  0  0  0  0  0  0  0  0  0  0
  -14.5553   15.2656  -24.2900 C   0  0  0  0  0  0  0  0  0  0  0  0
  -15.6619   16.1912  -23.7867 C   0  0  0  0  0  0  0  0  0  0  0  0
  -15.9566   17.1475  -24.9453 C   0  0  0  0  0  0  0  0  0  0  0  0
 20 21  1  0  0  0
 21 22  1  0  0  0
 21 19  1  0  0  0
 19  1  1  0  0  0
  1  2  2  0  0  0
  2  3  1  0  0  0
  3  4  2  0  0  0
  4  5  1  0  0  0
  5  6  2  0  0  0
  6 17  1  0  0  0
 17 18  3  0  0  0
  4  7  1  0  0  0
  7  8  2  0  0  0
  8  9  1  0  0  0
  9 10  2  0  0  0
 10 11  1  0  0  0
 11 12  2  0  0  0
 12 13  1  0  0  0
 13 14  3  0  0  0
 10 15  1  0  0  0
 15 16  3  0  0  0
  6  1  1  0  0  0
 12  7  1  0  0  0
M  END
> <minimizedAffinity>
-8.05757

> <CNNscore>
0.8850446343

> <CNNaffinity>
6.4229288101

> <CNN_VS>
5.6845788956

> <CNNaffinity_variance>
0.2057431191

$$$$
[H]c1c([H])c(-c2c([H])c([H])c(OC([H])(C([H])([H])[H])C([H])([H])[H])c(C#N)c2[H])c(C#N)c([H])c1C#N


 22 23  0  0  0  0  0  0  0  0999 V2000
  -16.5079   14.2584  -23.2993 C   0  0  0  0  0  0  0  0  0  0  0  0
  -16.8510   12.9278  -23.3774 C   0  0  0  0  0  0  0  0  0  0  0  0
  -17.3807   12.2638  -22.2784 C   0  0  0  0  0  0  0  0  0  0  0  0
  -17.5743   12.9077  -21.1000 C   0  0  0  0  0  0  0  0  0  0  0  0
  -17.2199   14.2536  -21.0437 C   0  0  0  0  0  0  0  0  0  0  0  0
  -16.7003   14.9302  -22.0992 C   0  0  0  0  0  0  0  0  0  0  0  0
  -18.1291   12.3065  -19.8938 C   0  0  0  0  0  0  0  0  0  0  0  0
  -19.1930   12.9350  -19.2413 C   0  0  0  0  0  0  0  0  0  0  0  0
  -19.7525   12.4200  -18.0913 C   0  0  0  0  0  0  0  0  0  0  0  0
  -19.2866   11.2516  -17.5245 C   0  0  0  0  0  0  0  0  0  0  0  0
  -18.2375   10.6219  -18.1587 C   0  0  0  0  0  0  0  0  0  0  0  0
  -17.6717   11.1428  -19.3222 C   0  0  0  0  0  0  0  0  0  0  0  0
  -16.5905   10.4406  -19.9465 C   0  0  0  0  0  0  0  0  0  0  0  0
  -15.7194    9.8504  -20.4428 N   0  0  0  0  0  0  0  0  0  0  0  0
  -19.8811   10.7279  -16.3244 C   0  0  0  0  0  0  0  0  0  0  0  0
  -20.3614   10.2912  -15.3679 N   0  0  0  0  0  0  0  0  0  0  0  0
  -16.3505   16.3290  -21.9822 C   0  0  0  0  0  0  0  0  0  0  0  0
  -16.0630   17.4527  -21.8785 N   0  0  0  0  0  0  0  0  0  0  0  0
  -15.9791   15.0061  -24.3219 O   0  0  0  0  0  0  0  0  0  0  0  0
  -16.4618   14.6872  -26.6741 C   0  0  0  0  0  0  0  0  0  0  0  0
  -15.4634   14.5625  -25.5243 C   0  0  0  0  0  0  0  0  0  0  0  0
  -14.3024   15.4927  -25.8852 C   0  0  0  0  0  0  0  0  0  0  0  0
 20 21  1  0  0  0
 21 22  1  0  0  0
 21 19  1  0  0  0
 19  1  1  0  0  0
  1  2  2  0  0  0
  2  3  1  0  0  0
  3  4  2  0  0  0
  4  5  1  0  0  0
  5  6  2  0  0  0
  6 17  1  0  0  0
 17 18  3  0  0  0
  4  7  1  0  0  0
  7  8  2  0  0  0
  8  9  1  0  0  0
  9 10  2  0  0  0
 10 11  1  0  0  0
 11 12  2  0  0  0
 12 13  1  0  0  0
 13 14  3  0  0  0
 10 15  1  0  0  0
 15 16  3  0  0  0
  6  1  1  0  0  0
 12  7  1  0  0  0
M  END
> <minimizedAffinity>
-7.65075

> <CNNscore>
0.8840876222

> <CNNaffinity>
6.4982576370

> <CNN_VS>
5.7450289726

> <CNNaffinity_variance>
0.2005631626

$$$$
[H]c1c([H])c(-c2c([H])c([H])c(OC([H])(C([H])([H])[H])C([H])([H])[H])c(C#N)c2[H])c(C#N)c([H])c1C#N


 22 23  0  0  0  0  0  0  0  0999 V2000
  -18.0920   12.6106  -20.2752 C   0  0  0  0  0  0  0  0  0  0  0  0
  -18.7017   13.7660  -20.7082 C   0  0  0  0  0  0  0  0  0  0  0  0
  -18.3770   14.3241  -21.9380 C   0  0  0  0  0  0  0  0  0  0  0  0
  -17.4518   13.7463  -22.7447 C   0  0  0  0  0  0  0  0  0  0  0  0
  -16.8476   12.5779  -22.2863 C   0  0  0  0  0  0  0  0  0  0  0  0
  -17.1429   12.0082  -21.0905 C   0  0  0  0  0  0  0  0  0  0  0  0
  -17.0464   14.2454  -24.0527 C   0  0  0  0  0  0  0  0  0  0  0  0
  -17.3060   13.4769  -25.1906 C   0  0  0  0  0  0  0  0  0  0  0  0
  -16.9373   13.8915  -26.4527 C   0  0  0  0  0  0  0  0  0  0  0  0
  -16.2898   15.0928  -26.6557 C   0  0  0  0  0  0  0  0  0  0  0  0
  -16.0281   15.8601  -25.5413 C   0  0  0  0  0  0  0  0  0  0  0  0
  -16.4014   15.4409  -24.2645 C   0  0  0  0  0  0  0  0  0  0  0  0
  -16.1149   16.2838  -23.1424 C   0  0  0  0  0  0  0  0  0  0  0  0
  -15.8896   16.9872  -22.2435 N   0  0  0  0  0  0  0  0  0  0  0  0
  -15.9117   15.5105  -27.9788 C   0  0  0  0  0  0  0  0  0  0  0  0
  -15.6231   15.8398  -29.0486 N   0  0  0  0  0  0  0  0  0  0  0  0
  -16.4826   10.7929  -20.6662 C   0  0  0  0  0  0  0  0  0  0  0  0
  -15.9415    9.8182  -20.3297 N   0  0  0  0  0  0  0  0  0  0  0  0
  -18.3389   11.9787  -19.0818 O   0  0  0  0  0  0  0  0  0  0  0  0
  -19.5994   11.1187  -17.2005 C   0  0  0  0  0  0  0  0  0  0  0  0
  -19.2951   12.2891  -18.1344 C   0  0  0  0  0  0  0  0  0  0  0  0
  -18.7042   13.3840  -17.2423 C   0  0  0  0  0  0  0  0  0  0  0  0
 20 21  1  0  0  0
 21 22  1  0  0  0
 21 19  1  0  0  0
 19  1  1  0  0  0
  1  2  2  0  0  0
  2  3  1  0  0  0
  3  4  2  0  0  0
  4  5  1  0  0  0
  5  6  2  0  0  0
  6 17  1  0  0  0
 17 18  3  0  0  0
  4  7  1  0  0  0
  7  8  2  0  0  0
  8  9  1  0  0  0
  9 10  2  0  0  0
 10 11  1  0  0  0
 11 12  2  0  0  0
 12 13  1  0  0  0
 13 14  3  0  0  0
 10 15  1  0  0  0
 15 16  3  0  0  0
  6  1  1  0  0  0
 12  7  1  0  0  0
M  END
> <minimizedAffinity>
-7.73558

> <CNNscore>
0.8668439984

> <CNNaffinity>
6.5387582779

> <CNN_VS>
5.6680831909

> <CNNaffinity_variance>
0.2063359022

$$$$
[H]c1c([H])c(-c2c([H])c([H])c(OC([H])(C([H])([H])[H])C([H])([H])[H])c(C#N)c2[H])c(C#N)c([H])c1C#N


 22 23  0  0  0  0  0  0  0  0999 V2000
  -19.4301   11.9147  -16.6625 C   0  0  0  0  0  0  0  0  0  0  0  0
  -19.3336   13.2196  -17.0891 C   0  0  0  0  0  0  0  0  0  0  0  0
  -18.8405   13.5207  -18.3523 C   0  0  0  0  0  0  0  0  0  0  0  0
  -18.4415   12.5383  -19.1987 C   0  0  0  0  0  0  0  0  0  0  0  0
  -18.5479   11.2253  -18.7460 C   0  0  0  0  0  0  0  0  0  0  0  0
  -19.0251   10.8987  -17.5182 C   0  0  0  0  0  0  0  0  0  0  0  0
  -17.9189   12.7467  -20.5431 C   0  0  0  0  0  0  0  0  0  0  0  0
  -18.3634   13.8412  -21.2897 C   0  0  0  0  0  0  0  0  0  0  0  0
  -17.9133   14.0844  -22.5699 C   0  0  0  0  0  0  0  0  0  0  0  0
  -16.9965   13.2540  -23.1810 C   0  0  0  0  0  0  0  0  0  0  0  0
  -16.5502   12.1709  -22.4550 C   0  0  0  0  0  0  0  0  0  0  0  0
  -17.0053   11.9250  -21.1598 C   0  0  0  0  0  0  0  0  0  0  0  0
  -16.4989   10.7908  -20.4464 C   0  0  0  0  0  0  0  0  0  0  0  0
  -16.1083    9.8678  -19.8556 N   0  0  0  0  0  0  0  0  0  0  0  0
  -16.5374   13.5216  -24.5172 C   0  0  0  0  0  0  0  0  0  0  0  0
  -16.1832   13.7290  -25.5978 N   0  0  0  0  0  0  0  0  0  0  0  0
  -19.1129    9.5161  -17.1017 C   0  0  0  0  0  0  0  0  0  0  0  0
  -19.1721    8.4026  -16.7662 N   0  0  0  0  0  0  0  0  0  0  0  0
  -19.9012   11.5096  -15.4385 O   0  0  0  0  0  0  0  0  0  0  0  0
  -22.1820   10.6945  -15.4013 C   0  0  0  0  0  0  0  0  0  0  0  0
  -21.1571   11.7103  -14.8991 C   0  0  0  0  0  0  0  0  0  0  0  0
  -21.0424   11.4678  -13.3919 C   0  0  0  0  0  0  0  0  0  0  0  0
 20 21  1  0  0  0
 21 22  1  0  0  0
 21 19  1  0  0  0
 19  1  1  0  0  0
  1  2  2  0  0  0
  2  3  1  0  0  0
  3  4  2  0  0  0
  4  5  1  0  0  0
  5  6  2  0  0  0
  6 17  1  0  0  0
 17 18  3  0  0  0
  4  7  1  0  0  0
  7  8  2  0  0  0
  8  9  1  0  0  0
  9 10  2  0  0  0
 10 11  1  0  0  0
 11 12  2  0  0  0
 12 13  1  0  0  0
 13 14  3  0  0  0
 10 15  1  0  0  0
 15 16  3  0  0  0
  6  1  1  0  0  0
 12  7  1  0  0  0
M  END
> <minimizedAffinity>
-6.92698

> <CNNscore>
0.8460348248

> <CNNaffinity>
6.0271286964

> <CNN_VS>
5.0991606712

> <CNNaffinity_variance>
0.0579454526

$$$$
[H]c1c([H])c(-c2c([H])c([H])c(OC([H])(C([H])([H])[H])C([H])([H])[H])c(C#N)c2[H])c(C#N)c([H])c1C#N


 22 23  0  0  0  0  0  0  0  0999 V2000
  -19.4828   10.0153  -16.3777 C   0  0  0  0  0  0  0  0  0  0  0  0
  -18.6163    9.4545  -17.2881 C   0  0  0  0  0  0  0  0  0  0  0  0
  -18.2263   10.1535  -18.4232 C   0  0  0  0  0  0  0  0  0  0  0  0
  -18.6878   11.4062  -18.6650 C   0  0  0  0  0  0  0  0  0  0  0  0
  -19.5637   11.9538  -17.7305 C   0  0  0  0  0  0  0  0  0  0  0  0
  -19.9636   11.2968  -16.6124 C   0  0  0  0  0  0  0  0  0  0  0  0
  -18.3351   12.2251  -19.8179 C   0  0  0  0  0  0  0  0  0  0  0  0
  -19.0592   13.3916  -20.0779 C   0  0  0  0  0  0  0  0  0  0  0  0
  -18.7790   14.2007  -21.1584 C   0  0  0  0  0  0  0  0  0  0  0  0
  -17.7638   13.8967  -22.0417 C   0  0  0  0  0  0  0  0  0  0  0  0
  -17.0419   12.7487  -21.7962 C   0  0  0  0  0  0  0  0  0  0  0  0
  -17.3252   11.9303  -20.7030 C   0  0  0  0  0  0  0  0  0  0  0  0
  -16.5352   10.7548  -20.4889 C   0  0  0  0  0  0  0  0  0  0  0  0
  -15.8833    9.8033  -20.3361 N   0  0  0  0  0  0  0  0  0  0  0  0
  -17.4846   14.7512  -23.1642 C   0  0  0  0  0  0  0  0  0  0  0  0
  -17.2474   15.4268  -24.0717 N   0  0  0  0  0  0  0  0  0  0  0  0
  -20.8760   11.9164  -15.6762 C   0  0  0  0  0  0  0  0  0  0  0  0
  -21.6016   12.4192  -14.9168 N   0  0  0  0  0  0  0  0  0  0  0  0
  -19.9301    9.4131  -15.2281 O   0  0  0  0  0  0  0  0  0  0  0  0
  -19.2932    9.9202  -12.9466 C   0  0  0  0  0  0  0  0  0  0  0  0
  -19.1865    8.9809  -14.1470 C   0  0  0  0  0  0  0  0  0  0  0  0
  -19.7944    7.6537  -13.6858 C   0  0  0  0  0  0  0  0  0  0  0  0
 20 21  1  0  0  0
 21 22  1  0  0  0
 21 19  1  0  0  0
 19  1  1  0  0  0
  1  2  2  0  0  0
  2  3  1  0  0  0
  3  4  2  0  0  0
  4  5  1  0  0  0
  5  6  2  0  0  0
  6 17  1  0  0  0
 17 18  3  0  0  0
  4  7  1  0  0  0
  7  8  2  0  0  0
  8  9  1  0  0  0
  9 10  2  0  0  0
 10 11  1  0  0  0
 11 12  2  0  0  0
 12 13  1  0  0  0
 13 14  3  0  0  0
 10 15  1  0  0  0
 15 16  3  0  0  0
  6  1  1  0  0  0
 12  7  1  0  0  0
M  END
> <minimizedAffinity>
-6.96849

> <CNNscore>
0.8382926583

> <CNNaffinity>
6.1031508446

> <CNN_VS>
5.1162266731

> <CNNaffinity_variance>
0.2617458701

$$$$
[H]c1c([H])c(-c2c([H])c([H])c(OC([H])(C([H])([H])[H])C([H])([H])[H])c(C#N)c2[H])c(C#N)c([H])c1C#N


 22 23  0  0  0  0  0  0  0  0999 V2000
  -17.9445   12.5226  -20.9161 C   0  0  0  0  0  0  0  0  0  0  0  0
  -19.0134   13.3334  -20.6093 C   0  0  0  0  0  0  0  0  0  0  0  0
  -19.6851   13.1985  -19.4009 C   0  0  0  0  0  0  0  0  0  0  0  0
  -19.3061   12.2656  -18.4916 C   0  0  0  0  0  0  0  0  0  0  0  0
  -18.2221   11.4562  -18.8232 C   0  0  0  0  0  0  0  0  0  0  0  0
  -17.5456   11.5631  -19.9949 C   0  0  0  0  0  0  0  0  0  0  0  0
  -19.9367   12.0488  -17.1957 C   0  0  0  0  0  0  0  0  0  0  0  0
  -20.6390   13.0948  -16.5911 C   0  0  0  0  0  0  0  0  0  0  0  0
  -21.2473   12.9530  -15.3621 C   0  0  0  0  0  0  0  0  0  0  0  0
  -21.1923   11.7642  -14.6641 C   0  0  0  0  0  0  0  0  0  0  0  0
  -20.5027   10.7247  -15.2498 C   0  0  0  0  0  0  0  0  0  0  0  0
  -19.8875   10.8680  -16.4932 C   0  0  0  0  0  0  0  0  0  0  0  0
  -19.1937    9.7508  -17.0608 C   0  0  0  0  0  0  0  0  0  0  0  0
  -18.6330    8.8527  -17.5433 N   0  0  0  0  0  0  0  0  0  0  0  0
  -21.8320   11.6329  -13.3829 C   0  0  0  0  0  0  0  0  0  0  0  0
  -22.3309   11.5216  -12.3461 N   0  0  0  0  0  0  0  0  0  0  0  0
  -16.4261   10.6941  -20.2852 C   0  0  0  0  0  0  0  0  0  0  0  0
  -15.5184   10.0007  -20.5120 N   0  0  0  0  0  0  0  0  0  0  0  0
  -17.2143   12.5725  -22.0775 O   0  0  0  0  0  0  0  0  0  0  0  0
  -15.8867   14.3618  -23.0281 C   0  0  0  0  0  0  0  0  0  0  0  0
  -17.1951   13.5727  -23.0303 C   0  0  0  0  0  0  0  0  0  0  0  0
  -17.2612   12.8900  -24.3990 C   0  0  0  0  0  0  0  0  0  0  0  0
 20 21  1  0  0  0
 21 22  1  0  0  0
 21 19  1  0  0  0
 19  1  1  0  0  0
  1  2  2  0  0  0
  2  3  1  0  0  0
  3  4  2  0  0  0
  4  5  1  0  0  0
  5  6  2  0  0  0
  6 17  1  0  0  0
 17 18  3  0  0  0
  4  7  1  0  0  0
  7  8  2  0  0  0
  8  9  1  0  0  0
  9 10  2  0  0  0
 10 11  1  0  0  0
 11 12  2  0  0  0
 12 13  1  0  0  0
 13 14  3  0  0  0
 10 15  1  0  0  0
 15 16  3  0  0  0
  6  1  1  0  0  0
 12  7  1  0  0  0
M  END
> <minimizedAffinity>
-6.65905

> <CNNscore>
0.8238027692

> <CNNaffinity>
5.6780219078

> <CNN_VS>
4.6775703430

> <CNNaffinity_variance>
0.0984077901

$$$$
[H]c1c([H])c(-c2c([H])c([H])c(OC([H])(C([H])([H])[H])C([H])([H])[H])c(C#N)c2[H])c(C#N)c([H])c1C#N


 22 23  0  0  0  0  0  0  0  0999 V2000
  -17.7041   12.3906  -21.3595 C   0  0  0  0  0  0  0  0  0  0  0  0
  -18.7791   13.1399  -20.9388 C   0  0  0  0  0  0  0  0  0  0  0  0
  -19.3385   12.9395  -19.6833 C   0  0  0  0  0  0  0  0  0  0  0  0
  -18.8410   12.0015  -18.8387 C   0  0  0  0  0  0  0  0  0  0  0  0
  -17.7532   11.2549  -19.2853 C   0  0  0  0  0  0  0  0  0  0  0  0
  -17.1845   11.4266  -20.5056 C   0  0  0  0  0  0  0  0  0  0  0  0
  -19.3484   11.7189  -17.5020 C   0  0  0  0  0  0  0  0  0  0  0  0
  -19.7601   10.4217  -17.1847 C   0  0  0  0  0  0  0  0  0  0  0  0
  -20.2581   10.0962  -15.9411 C   0  0  0  0  0  0  0  0  0  0  0  0
  -20.3755   11.0408  -14.9424 C   0  0  0  0  0  0  0  0  0  0  0  0
  -19.9725   12.3241  -15.2427 C   0  0  0  0  0  0  0  0  0  0  0  0
  -19.4684   12.6534  -16.5007 C   0  0  0  0  0  0  0  0  0  0  0  0
  -19.0533   14.0006  -16.7547 C   0  0  0  0  0  0  0  0  0  0  0  0
  -18.7019   15.0869  -16.9781 N   0  0  0  0  0  0  0  0  0  0  0  0
  -20.8973   10.6848  -13.6505 C   0  0  0  0  0  0  0  0  0  0  0  0
  -21.3330   10.3966  -12.6193 N   0  0  0  0  0  0  0  0  0  0  0  0
  -16.0551   10.6211  -20.9159 C   0  0  0  0  0  0  0  0  0  0  0  0
  -15.1391    9.9790  -21.2395 N   0  0  0  0  0  0  0  0  0  0  0  0
  -17.0786   12.5077  -22.5758 O   0  0  0  0  0  0  0  0  0  0  0  0
  -15.6698   14.2698  -23.4581 C   0  0  0  0  0  0  0  0  0  0  0  0
  -17.0446   13.6044  -23.4151 C   0  0  0  0  0  0  0  0  0  0  0  0
  -17.2974   13.0910  -24.8350 C   0  0  0  0  0  0  0  0  0  0  0  0
 20 21  1  0  0  0
 21 22  1  0  0  0
 21 19  1  0  0  0
 19  1  1  0  0  0
  1  2  2  0  0  0
  2  3  1  0  0  0
  3  4  2  0  0  0
  4  5  1  0  0  0
  5  6  2  0  0  0
  6 17  1  0  0  0
 17 18  3  0  0  0
  4  7  1  0  0  0
  7  8  2  0  0  0
  8  9  1  0  0  0
  9 10  2  0  0  0
 10 11  1  0  0  0
 11 12  2  0  0  0
 12 13  1  0  0  0
 13 14  3  0  0  0
 10 15  1  0  0  0
 15 16  3  0  0  0
  6  1  1  0  0  0
 12  7  1  0  0  0
M  END
> <minimizedAffinity>
-6.71535

> <CNNscore>
0.8224061728

> <CNNaffinity>
6.0464367867

> <CNN_VS>
4.9726271629

> <CNNaffinity_variance>
0.2427962571

$$$$
[H]c1c([H])c(N([H])c2nc([H])c3c(C(=O)N([H])[H])nn(C([H])([H])[H])c3n2)c([H])c([H])c1Cl


 24 26  0  0  0  0  0  0  0  0999 V2000
  -15.2939   10.4146  -21.4947 C   0  0  0  0  0  0  0  0  0  0  0  0
  -16.3701   10.6380  -20.5552 N   0  0  0  0  0  0  0  0  0  0  0  0
  -16.7201    9.8950  -19.5237 N   0  0  0  0  0  0  0  0  0  0  0  0
  -17.7765   10.4298  -18.8825 C   0  0  0  0  0  0  0  0  0  0  0  0
  -18.0708   11.5745  -19.5901 C   0  0  0  0  0  0  0  0  0  0  0  0
  -19.0247   12.5653  -19.4631 C   0  0  0  0  0  0  0  0  0  0  0  0
  -19.0604   13.5867  -20.3341 N   0  0  0  0  0  0  0  0  0  0  0  0
  -18.2197   13.7391  -21.3588 C   0  0  0  0  0  0  0  0  0  0  0  0
  -17.2691   12.7563  -21.4896 N   0  0  0  0  0  0  0  0  0  0  0  0
  -17.1966   11.7229  -20.6467 C   0  0  0  0  0  0  0  0  0  0  0  0
  -18.4423    9.8937  -17.7012 C   0  0  0  0  0  0  0  0  0  0  0  0
  -18.0501    8.7345  -17.0142 N   0  0  0  0  0  0  0  0  0  0  0  0
  -19.4577   10.5525  -17.2837 O   0  0  0  0  0  0  0  0  0  0  0  0
  -17.4320    8.8137  -16.1772 H   0  0  0  0  0  0  0  0  0  0  0  0
  -18.3362    7.7662  -17.2811 H   0  0  0  0  0  0  0  0  0  0  0  0
  -18.2343   14.8052  -22.2893 N   0  0  0  0  0  0  0  0  0  0  0  0
  -18.8924   15.6199  -22.0467 H   0  0  0  0  0  0  0  0  0  0  0  0
  -17.5182   14.9604  -23.4747 C   0  0  0  0  0  0  0  0  0  0  0  0
  -17.8279   14.2233  -24.5922 C   0  0  0  0  0  0  0  0  0  0  0  0
  -17.1207   14.4087  -25.7747 C   0  0  0  0  0  0  0  0  0  0  0  0
  -16.1212   15.3305  -25.7988 C   0  0  0  0  0  0  0  0  0  0  0  0
  -15.2299   15.5676  -27.2811 Cl  0  0  0  0  0  0  0  0  0  0  0  0
  -15.7889   16.0814  -24.6971 C   0  0  0  0  0  0  0  0  0  0  0  0
  -16.4767   15.9053  -23.5377 C   0  0  0  0  0  0  0  0  0  0  0  0
  1  2  1  0  0  0
  2  3  1  0  0  0
  3  4  2  0  0  0
  4 11  1  0  0  0
 11 12  1  0  0  0
 11 13  2  0  0  0
  4  5  1  0  0  0
  5  6  2  0  0  0
  6  7  1  0  0  0
  7  8  2  0  0  0
  8 16  1  0  0  0
 16 18  1  0  0  0
 18 19  2  0  0  0
 19 20  1  0  0  0
 20 21  2  0  0  0
 21 22  1  0  0  0
 21 23  1  0  0  0
 23 24  2  0  0  0
  8  9  1  0  0  0
  9 10  2  0  0  0
 10  2  1  0  0  0
 10  5  1  0  0  0
 24 18  1  0  0  0
 12 14  1  0  0  0
 12 15  1  0  0  0
 16 17  1  0  0  0
M  END
> <minimizedAffinity>
-7.74236

> <CNNscore>
0.8689352274

> <CNNaffinity>
6.4496164322

> <CNN_VS>
5.6042990685

> <CNNaffinity_variance>
0.2360587418

$$$$
[H]c1c([H])c(N([H])c2nc([H])c3c(C(=O)N([H])[H])nn(C([H])([H])[H])c3n2)c([H])c([H])c1Cl


 24 26  0  0  0  0  0  0  0  0999 V2000
  -19.3580   14.3801  -20.5329 C   0  0  0  0  0  0  0  0  0  0  0  0
  -18.3534   13.6603  -21.2836 N   0  0  0  0  0  0  0  0  0  0  0  0
  -17.8467   13.9591  -22.4636 N   0  0  0  0  0  0  0  0  0  0  0  0
  -16.9304   13.0464  -22.8383 C   0  0  0  0  0  0  0  0  0  0  0  0
  -16.8949   12.1415  -21.8003 C   0  0  0  0  0  0  0  0  0  0  0  0
  -16.1796   10.9855  -21.5559 C   0  0  0  0  0  0  0  0  0  0  0  0
  -16.3698   10.2992  -20.4176 N   0  0  0  0  0  0  0  0  0  0  0  0
  -17.2265   10.6479  -19.4561 C   0  0  0  0  0  0  0  0  0  0  0  0
  -17.9405   11.7969  -19.6943 N   0  0  0  0  0  0  0  0  0  0  0  0
  -17.7836   12.5107  -20.8120 C   0  0  0  0  0  0  0  0  0  0  0  0
  -16.1602   13.0417  -24.0764 C   0  0  0  0  0  0  0  0  0  0  0  0
  -14.8094   13.4071  -24.1841 N   0  0  0  0  0  0  0  0  0  0  0  0
  -16.7916   12.6714  -25.1270 O   0  0  0  0  0  0  0  0  0  0  0  0
  -14.0707   12.6708  -24.1535 H   0  0  0  0  0  0  0  0  0  0  0  0
  -14.4718   14.3889  -24.2962 H   0  0  0  0  0  0  0  0  0  0  0  0
  -17.4450    9.9445  -18.2478 N   0  0  0  0  0  0  0  0  0  0  0  0
  -16.6156    9.3550  -17.9010 H   0  0  0  0  0  0  0  0  0  0  0  0
  -18.5761    9.9043  -17.4345 C   0  0  0  0  0  0  0  0  0  0  0  0
  -19.3861   11.0048  -17.2912 C   0  0  0  0  0  0  0  0  0  0  0  0
  -20.5251   10.9405  -16.4967 C   0  0  0  0  0  0  0  0  0  0  0  0
  -20.8163    9.7702  -15.8684 C   0  0  0  0  0  0  0  0  0  0  0  0
  -22.2456    9.6836  -14.8696 Cl  0  0  0  0  0  0  0  0  0  0  0  0
  -20.0248    8.6540  -15.9927 C   0  0  0  0  0  0  0  0  0  0  0  0
  -18.9096    8.7100  -16.7683 C   0  0  0  0  0  0  0  0  0  0  0  0
  1  2  1  0  0  0
  2  3  1  0  0  0
  3  4  2  0  0  0
  4 11  1  0  0  0
 11 12  1  0  0  0
 11 13  2  0  0  0
  4  5  1  0  0  0
  5  6  2  0  0  0
  6  7  1  0  0  0
  7  8  2  0  0  0
  8 16  1  0  0  0
 16 18  1  0  0  0
 18 19  2  0  0  0
 19 20  1  0  0  0
 20 21  2  0  0  0
 21 22  1  0  0  0
 21 23  1  0  0  0
 23 24  2  0  0  0
  8  9  1  0  0  0
  9 10  2  0  0  0
 10  2  1  0  0  0
 10  5  1  0  0  0
 24 18  1  0  0  0
 12 14  1  0  0  0
 12 15  1  0  0  0
 16 17  1  0  0  0
M  END
> <minimizedAffinity>
-7.75577

> <CNNscore>
0.8314434290

> <CNNaffinity>
6.2962937355

> <CNN_VS>
5.2350120544

> <CNNaffinity_variance>
0.1673947871

$$$$
[H]c1c([H])c(N([H])c2nc([H])c3c(C(=O)N([H])[H])nn(C([H])([H])[H])c3n2)c([H])c([H])c1Cl


 24 26  0  0  0  0  0  0  0  0999 V2000
  -19.6981   15.7061  -20.8451 C   0  0  0  0  0  0  0  0  0  0  0  0
  -19.4051   14.5485  -20.0298 N   0  0  0  0  0  0  0  0  0  0  0  0
  -19.8998   14.2365  -18.8481 N   0  0  0  0  0  0  0  0  0  0  0  0
  -19.3840   13.0753  -18.4024 C   0  0  0  0  0  0  0  0  0  0  0  0
  -18.5202   12.6729  -19.3971 C   0  0  0  0  0  0  0  0  0  0  0  0
  -17.6872   11.5841  -19.5655 C   0  0  0  0  0  0  0  0  0  0  0  0
  -16.9444   11.4652  -20.6777 N   0  0  0  0  0  0  0  0  0  0  0  0
  -16.9369   12.3435  -21.6820 C   0  0  0  0  0  0  0  0  0  0  0  0
  -17.7636   13.4283  -21.5195 N   0  0  0  0  0  0  0  0  0  0  0  0
  -18.5196   13.5871  -20.4301 C   0  0  0  0  0  0  0  0  0  0  0  0
  -19.6904   12.4126  -17.1402 C   0  0  0  0  0  0  0  0  0  0  0  0
  -19.6145   13.0170  -15.8759 N   0  0  0  0  0  0  0  0  0  0  0  0
  -20.0531   11.1875  -17.2249 O   0  0  0  0  0  0  0  0  0  0  0  0
  -20.4729   13.4259  -15.4460 H   0  0  0  0  0  0  0  0  0  0  0  0
  -18.7395   13.0934  -15.3110 H   0  0  0  0  0  0  0  0  0  0  0  0
  -16.1659   12.2417  -22.8643 N   0  0  0  0  0  0  0  0  0  0  0  0
  -15.5045   11.3956  -22.9120 H   0  0  0  0  0  0  0  0  0  0  0  0
  -16.1381   13.0738  -23.9820 C   0  0  0  0  0  0  0  0  0  0  0  0
  -15.1114   13.9659  -24.1767 C   0  0  0  0  0  0  0  0  0  0  0  0
  -15.0850   14.7707  -25.3100 C   0  0  0  0  0  0  0  0  0  0  0  0
  -16.0933   14.6551  -26.2152 C   0  0  0  0  0  0  0  0  0  0  0  0
  -16.0651   15.6630  -27.6403 Cl  0  0  0  0  0  0  0  0  0  0  0  0
  -17.1328   13.7726  -26.0467 C   0  0  0  0  0  0  0  0  0  0  0  0
  -17.1646   12.9825  -24.9408 C   0  0  0  0  0  0  0  0  0  0  0  0
  1  2  1  0  0  0
  2  3  1  0  0  0
  3  4  2  0  0  0
  4 11  1  0  0  0
 11 12  1  0  0  0
 11 13  2  0  0  0
  4  5  1  0  0  0
  5  6  2  0  0  0
  6  7  1  0  0  0
  7  8  2  0  0  0
  8 16  1  0  0  0
 16 18  1  0  0  0
 18 19  2  0  0  0
 19 20  1  0  0  0
 20 21  2  0  0  0
 21 22  1  0  0  0
 21 23  1  0  0  0
 23 24  2  0  0  0
  8  9  1  0  0  0
  9 10  2  0  0  0
 10  2  1  0  0  0
 10  5  1  0  0  0
 24 18  1  0  0  0
 12 14  1  0  0  0
 12 15  1  0  0  0
 16 17  1  0  0  0
M  END
> <minimizedAffinity>
-7.43585

> <CNNscore>
0.6113440394

> <CNNaffinity>
6.1655921936

> <CNN_VS>
3.7692980766

> <CNNaffinity_variance>
0.3789531589

$$$$
[H]c1c([H])c(N([H])c2nc([H])c3c(C(=O)N([H])[H])nn(C([H])([H])[H])c3n2)c([H])c([H])c1Cl


 24 26  0  0  0  0  0  0  0  0999 V2000
  -17.9742    9.9696  -18.2054 C   0  0  0  0  0  0  0  0  0  0  0  0
  -18.4675   11.3182  -18.3753 N   0  0  0  0  0  0  0  0  0  0  0  0
  -19.2327   12.0159  -17.5591 N   0  0  0  0  0  0  0  0  0  0  0  0
  -19.4830   13.2392  -18.0631 C   0  0  0  0  0  0  0  0  0  0  0  0
  -18.8144   13.2637  -19.2672 C   0  0  0  0  0  0  0  0  0  0  0  0
  -18.6637   14.2070  -20.2648 C   0  0  0  0  0  0  0  0  0  0  0  0
  -17.9283   13.9298  -21.3535 N   0  0  0  0  0  0  0  0  0  0  0  0
  -17.3004   12.7727  -21.5700 C   0  0  0  0  0  0  0  0  0  0  0  0
  -17.4472   11.8310  -20.5808 N   0  0  0  0  0  0  0  0  0  0  0  0
  -18.1690   12.0636  -19.4816 C   0  0  0  0  0  0  0  0  0  0  0  0
  -20.2882   14.2876  -17.4478 C   0  0  0  0  0  0  0  0  0  0  0  0
  -19.8207   15.2046  -16.4937 N   0  0  0  0  0  0  0  0  0  0  0  0
  -21.5095   14.3507  -17.8271 O   0  0  0  0  0  0  0  0  0  0  0  0
  -19.4920   16.1465  -16.7996 H   0  0  0  0  0  0  0  0  0  0  0  0
  -19.7734   15.0149  -15.4679 H   0  0  0  0  0  0  0  0  0  0  0  0
  -16.5187   12.4556  -22.7062 N   0  0  0  0  0  0  0  0  0  0  0  0
  -15.9810   11.5263  -22.6511 H   0  0  0  0  0  0  0  0  0  0  0  0
  -16.3440   13.1670  -23.8918 C   0  0  0  0  0  0  0  0  0  0  0  0
  -17.2784   13.1099  -24.8975 C   0  0  0  0  0  0  0  0  0  0  0  0
  -17.1018   13.8461  -26.0636 C   0  0  0  0  0  0  0  0  0  0  0  0
  -15.9891   14.6185  -26.1846 C   0  0  0  0  0  0  0  0  0  0  0  0
  -15.7623   15.5451  -27.6467 Cl  0  0  0  0  0  0  0  0  0  0  0  0
  -15.0378   14.6946  -25.1961 C   0  0  0  0  0  0  0  0  0  0  0  0
  -15.2045   13.9776  -24.0532 C   0  0  0  0  0  0  0  0  0  0  0  0
  1  2  1  0  0  0
  2  3  1  0  0  0
  3  4  2  0  0  0
  4 11  1  0  0  0
 11 12  1  0  0  0
 11 13  2  0  0  0
  4  5  1  0  0  0
  5  6  2  0  0  0
  6  7  1  0  0  0
  7  8  2  0  0  0
  8 16  1  0  0  0
 16 18  1  0  0  0
 18 19  2  0  0  0
 19 20  1  0  0  0
 20 21  2  0  0  0
 21 22  1  0  0  0
 21 23  1  0  0  0
 23 24  2  0  0  0
  8  9  1  0  0  0
  9 10  2  0  0  0
 10  2  1  0  0  0
 10  5  1  0  0  0
 24 18  1  0  0  0
 12 14  1  0  0  0
 12 15  1  0  0  0
 16 17  1  0  0  0
M  END
> <minimizedAffinity>
-7.61999

> <CNNscore>
0.5938253403

> <CNNaffinity>
6.2410173416

> <CNN_VS>
3.7060742378

> <CNNaffinity_variance>
0.3835735321

$$$$
[H]c1c([H])c(N([H])c2nc([H])c3c(C(=O)N([H])[H])nn(C([H])([H])[H])c3n2)c([H])c([H])c1Cl


 24 26  0  0  0  0  0  0  0  0999 V2000
  -15.7745   10.5035  -21.2904 C   0  0  0  0  0  0  0  0  0  0  0  0
  -16.7059   10.6900  -20.2003 N   0  0  0  0  0  0  0  0  0  0  0  0
  -17.1450    9.7927  -19.3396 N   0  0  0  0  0  0  0  0  0  0  0  0
  -18.0066   10.3464  -18.4655 C   0  0  0  0  0  0  0  0  0  0  0  0
  -18.0805   11.6701  -18.8397 C   0  0  0  0  0  0  0  0  0  0  0  0
  -18.7737   12.7666  -18.3655 C   0  0  0  0  0  0  0  0  0  0  0  0
  -18.6355   13.9635  -18.9582 N   0  0  0  0  0  0  0  0  0  0  0  0
  -17.8533   14.2017  -20.0124 C   0  0  0  0  0  0  0  0  0  0  0  0
  -17.1617   13.1145  -20.4880 N   0  0  0  0  0  0  0  0  0  0  0  0
  -17.2689   11.9060  -19.9298 C   0  0  0  0  0  0  0  0  0  0  0  0
  -18.6954    9.6699  -17.3728 C   0  0  0  0  0  0  0  0  0  0  0  0
  -18.2105    8.5418  -16.6930 N   0  0  0  0  0  0  0  0  0  0  0  0
  -19.8251   10.1660  -17.0309 O   0  0  0  0  0  0  0  0  0  0  0  0
  -17.6867    8.6628  -15.7987 H   0  0  0  0  0  0  0  0  0  0  0  0
  -18.3354    7.5580  -17.0202 H   0  0  0  0  0  0  0  0  0  0  0  0
  -17.6883   15.4521  -20.6544 N   0  0  0  0  0  0  0  0  0  0  0  0
  -16.7209   15.9061  -20.5377 H   0  0  0  0  0  0  0  0  0  0  0  0
  -18.5930   16.1838  -21.4214 C   0  0  0  0  0  0  0  0  0  0  0  0
  -18.4022   16.3556  -22.7712 C   0  0  0  0  0  0  0  0  0  0  0  0
  -19.3276   17.0664  -23.5270 C   0  0  0  0  0  0  0  0  0  0  0  0
  -20.4187   17.5848  -22.9024 C   0  0  0  0  0  0  0  0  0  0  0  0
  -21.5842   18.4782  -23.8466 Cl  0  0  0  0  0  0  0  0  0  0  0  0
  -20.6354   17.4296  -21.5545 C   0  0  0  0  0  0  0  0  0  0  0  0
  -19.7345   16.7353  -20.8097 C   0  0  0  0  0  0  0  0  0  0  0  0
  1  2  1  0  0  0
  2  3  1  0  0  0
  3  4  2  0  0  0
  4 11  1  0  0  0
 11 12  1  0  0  0
 11 13  2  0  0  0
  4  5  1  0  0  0
  5  6  2  0  0  0
  6  7  1  0  0  0
  7  8  2  0  0  0
  8 16  1  0  0  0
 16 18  1  0  0  0
 18 19  2  0  0  0
 19 20  1  0  0  0
 20 21  2  0  0  0
 21 22  1  0  0  0
 21 23  1  0  0  0
 23 24  2  0  0  0
  8  9  1  0  0  0
  9 10  2  0  0  0
 10  2  1  0  0  0
 10  5  1  0  0  0
 24 18  1  0  0  0
 12 14  1  0  0  0
 12 15  1  0  0  0
 16 17  1  0  0  0
M  END
> <minimizedAffinity>
-6.64024

> <CNNscore>
0.4145338535

> <CNNaffinity>
5.9604945183

> <CNN_VS>
2.4708268642

> <CNNaffinity_variance>
0.4238008857

$$$$
[H]c1c([H])c(N([H])c2nc([H])c3c(C(=O)N([H])[H])nn(C([H])([H])[H])c3n2)c([H])c([H])c1Cl


 24 26  0  0  0  0  0  0  0  0999 V2000
  -18.9845   16.1467  -21.8089 C   0  0  0  0  0  0  0  0  0  0  0  0
  -18.3604   15.1163  -22.6086 N   0  0  0  0  0  0  0  0  0  0  0  0
  -18.2026   15.0826  -23.9172 N   0  0  0  0  0  0  0  0  0  0  0  0
  -17.5726   13.9545  -24.2965 C   0  0  0  0  0  0  0  0  0  0  0  0
  -17.3420   13.2724  -23.1222 C   0  0  0  0  0  0  0  0  0  0  0  0
  -16.7449   12.0662  -22.8117 C   0  0  0  0  0  0  0  0  0  0  0  0
  -16.6679   11.6573  -21.5350 N   0  0  0  0  0  0  0  0  0  0  0  0
  -17.1371   12.3415  -20.4902 C   0  0  0  0  0  0  0  0  0  0  0  0
  -17.7320   13.5418  -20.7935 N   0  0  0  0  0  0  0  0  0  0  0  0
  -17.8305   13.9875  -22.0486 C   0  0  0  0  0  0  0  0  0  0  0  0
  -17.2239   13.5662  -25.6580 C   0  0  0  0  0  0  0  0  0  0  0  0
  -17.4210   12.2888  -26.2050 N   0  0  0  0  0  0  0  0  0  0  0  0
  -16.7006   14.4815  -26.3844 O   0  0  0  0  0  0  0  0  0  0  0  0
  -18.2812   12.0919  -26.7618 H   0  0  0  0  0  0  0  0  0  0  0  0
  -16.7544   11.4923  -26.0966 H   0  0  0  0  0  0  0  0  0  0  0  0
  -17.0677   11.9349  -19.1364 N   0  0  0  0  0  0  0  0  0  0  0  0
  -16.1365   12.1410  -18.6404 H   0  0  0  0  0  0  0  0  0  0  0  0
  -18.0297   11.3093  -18.3456 C   0  0  0  0  0  0  0  0  0  0  0  0
  -17.9813    9.9571  -18.1064 C   0  0  0  0  0  0  0  0  0  0  0  0
  -18.9337    9.3525  -17.2940 C   0  0  0  0  0  0  0  0  0  0  0  0
  -19.9085   10.1261  -16.7457 C   0  0  0  0  0  0  0  0  0  0  0  0
  -21.1071    9.3722  -15.7246 Cl  0  0  0  0  0  0  0  0  0  0  0  0
  -19.9824   11.4801  -16.9676 C   0  0  0  0  0  0  0  0  0  0  0  0
  -19.0539   12.0777  -17.7608 C   0  0  0  0  0  0  0  0  0  0  0  0
  1  2  1  0  0  0
  2  3  1  0  0  0
  3  4  2  0  0  0
  4 11  1  0  0  0
 11 12  1  0  0  0
 11 13  2  0  0  0
  4  5  1  0  0  0
  5  6  2  0  0  0
  6  7  1  0  0  0
  7  8  2  0  0  0
  8 16  1  0  0  0
 16 18  1  0  0  0
 18 19  2  0  0  0
 19 20  1  0  0  0
 20 21  2  0  0  0
 21 22  1  0  0  0
 21 23  1  0  0  0
 23 24  2  0  0  0
  8  9  1  0  0  0
  9 10  2  0  0  0
 10  2  1  0  0  0
 10  5  1  0  0  0
 24 18  1  0  0  0
 12 14  1  0  0  0
 12 15  1  0  0  0
 16 17  1  0  0  0
M  END
> <minimizedAffinity>
-7.34440

> <CNNscore>
0.3778785467

> <CNNaffinity>
5.9575033188

> <CNN_VS>
2.2512125969

> <CNNaffinity_variance>
0.3309618831

$$$$
[H]c1c([H])c(N([H])c2nc([H])c3c(C(=O)N([H])[H])nn(C([H])([H])[H])c3n2)c([H])c([H])c1Cl


 24 26  0  0  0  0  0  0  0  0999 V2000
  -18.5676   16.5236  -19.0834 C   0  0  0  0  0  0  0  0  0  0  0  0
  -18.2777   15.9596  -20.3829 N   0  0  0  0  0  0  0  0  0  0  0  0
  -18.2712   16.5673  -21.5531 N   0  0  0  0  0  0  0  0  0  0  0  0
  -17.9527   15.7077  -22.5393 C   0  0  0  0  0  0  0  0  0  0  0  0
  -17.7567   14.5025  -21.9017 C   0  0  0  0  0  0  0  0  0  0  0  0
  -17.4143   13.2337  -22.3267 C   0  0  0  0  0  0  0  0  0  0  0  0
  -17.2953   12.2317  -21.4408 N   0  0  0  0  0  0  0  0  0  0  0  0
  -17.4864   12.3552  -20.1262 C   0  0  0  0  0  0  0  0  0  0  0  0
  -17.8272   13.6151  -19.6982 N   0  0  0  0  0  0  0  0  0  0  0  0
  -17.9566   14.6407  -20.5438 C   0  0  0  0  0  0  0  0  0  0  0  0
  -17.8461   16.0128  -23.9612 C   0  0  0  0  0  0  0  0  0  0  0  0
  -17.5342   15.0799  -24.9623 N   0  0  0  0  0  0  0  0  0  0  0  0
  -18.0585   17.2320  -24.2895 O   0  0  0  0  0  0  0  0  0  0  0  0
  -18.3028   14.6171  -25.4952 H   0  0  0  0  0  0  0  0  0  0  0  0
  -16.5629   14.8016  -25.2263 H   0  0  0  0  0  0  0  0  0  0  0  0
  -17.3661   11.3174  -19.1717 N   0  0  0  0  0  0  0  0  0  0  0  0
  -16.4331   10.7837  -19.1861 H   0  0  0  0  0  0  0  0  0  0  0  0
  -18.2767   10.8845  -18.2095 C   0  0  0  0  0  0  0  0  0  0  0  0
  -19.2209   11.7379  -17.6918 C   0  0  0  0  0  0  0  0  0  0  0  0
  -20.1388   11.2836  -16.7517 C   0  0  0  0  0  0  0  0  0  0  0  0
  -20.0798    9.9831  -16.3587 C   0  0  0  0  0  0  0  0  0  0  0  0
  -21.2301    9.4072  -15.1784 Cl  0  0  0  0  0  0  0  0  0  0  0  0
  -19.1466    9.1072  -16.8584 C   0  0  0  0  0  0  0  0  0  0  0  0
  -18.2463    9.5449  -17.7783 C   0  0  0  0  0  0  0  0  0  0  0  0
  1  2  1  0  0  0
  2  3  1  0  0  0
  3  4  2  0  0  0
  4 11  1  0  0  0
 11 12  1  0  0  0
 11 13  2  0  0  0
  4  5  1  0  0  0
  5  6  2  0  0  0
  6  7  1  0  0  0
  7  8  2  0  0  0
  8 16  1  0  0  0
 16 18  1  0  0  0
 18 19  2  0  0  0
 19 20  1  0  0  0
 20 21  2  0  0  0
 21 22  1  0  0  0
 21 23  1  0  0  0
 23 24  2  0  0  0
  8  9  1  0  0  0
  9 10  2  0  0  0
 10  2  1  0  0  0
 10  5  1  0  0  0
 24 18  1  0  0  0
 12 14  1  0  0  0
 12 15  1  0  0  0
 16 17  1  0  0  0
M  END
> <minimizedAffinity>
-6.84941

> <CNNscore>
0.3357726336

> <CNNaffinity>
5.7781677246

> <CNN_VS>
1.9401506186

> <CNNaffinity_variance>
0.4468347132

$$$$
[H]c1c([H])c(N([H])c2nc([H])c3c(C(=O)N([H])[H])nn(C([H])([H])[H])c3n2)c([H])c([H])c1Cl


 24 26  0  0  0  0  0  0  0  0999 V2000
  -17.6785   12.1930  -26.0079 C   0  0  0  0  0  0  0  0  0  0  0  0
  -17.2096   13.3911  -25.3480 N   0  0  0  0  0  0  0  0  0  0  0  0
  -16.7217   14.4866  -25.8960 N   0  0  0  0  0  0  0  0  0  0  0  0
  -16.3911   15.3894  -24.9532 C   0  0  0  0  0  0  0  0  0  0  0  0
  -16.7085   14.7793  -23.7597 C   0  0  0  0  0  0  0  0  0  0  0  0
  -16.6191   15.1550  -22.4336 C   0  0  0  0  0  0  0  0  0  0  0  0
  -17.0206   14.3176  -21.4638 N   0  0  0  0  0  0  0  0  0  0  0  0
  -17.5214   13.0989  -21.6736 C   0  0  0  0  0  0  0  0  0  0  0  0
  -17.6124   12.7203  -22.9908 N   0  0  0  0  0  0  0  0  0  0  0  0
  -17.2252   13.5207  -23.9873 C   0  0  0  0  0  0  0  0  0  0  0  0
  -15.8236   16.7141  -25.1754 C   0  0  0  0  0  0  0  0  0  0  0  0
  -14.5411   16.9635  -25.6878 N   0  0  0  0  0  0  0  0  0  0  0  0
  -16.5765   17.7039  -24.8703 O   0  0  0  0  0  0  0  0  0  0  0  0
  -14.4181   17.1432  -26.7083 H   0  0  0  0  0  0  0  0  0  0  0  0
  -13.6703   16.9847  -25.1117 H   0  0  0  0  0  0  0  0  0  0  0  0
  -17.9530   12.1980  -20.6713 N   0  0  0  0  0  0  0  0  0  0  0  0
  -17.6094   11.1854  -20.7825 H   0  0  0  0  0  0  0  0  0  0  0  0
  -18.7556   12.4276  -19.5553 C   0  0  0  0  0  0  0  0  0  0  0  0
  -19.6911   13.4338  -19.5494 C   0  0  0  0  0  0  0  0  0  0  0  0
  -20.5019   13.6332  -18.4378 C   0  0  0  0  0  0  0  0  0  0  0  0
  -20.3475   12.8144  -17.3631 C   0  0  0  0  0  0  0  0  0  0  0  0
  -21.3631   13.0601  -15.9645 Cl  0  0  0  0  0  0  0  0  0  0  0  0
  -19.4203   11.8006  -17.3403 C   0  0  0  0  0  0  0  0  0  0  0  0
  -18.6245   11.6000  -18.4242 C   0  0  0  0  0  0  0  0  0  0  0  0
  1  2  1  0  0  0
  2  3  1  0  0  0
  3  4  2  0  0  0
  4 11  1  0  0  0
 11 12  1  0  0  0
 11 13  2  0  0  0
  4  5  1  0  0  0
  5  6  2  0  0  0
  6  7  1  0  0  0
  7  8  2  0  0  0
  8 16  1  0  0  0
 16 18  1  0  0  0
 18 19  2  0  0  0
 19 20  1  0  0  0
 20 21  2  0  0  0
 21 22  1  0  0  0
 21 23  1  0  0  0
 23 24  2  0  0  0
  8  9  1  0  0  0
  9 10  2  0  0  0
 10  2  1  0  0  0
 10  5  1  0  0  0
 24 18  1  0  0  0
 12 14  1  0  0  0
 12 15  1  0  0  0
 16 17  1  0  0  0
M  END
> <minimizedAffinity>
-7.08950

> <CNNscore>
0.3313748538

> <CNNaffinity>
6.0655493736

> <CNN_VS>
2.0099704266

> <CNNaffinity_variance>
0.2746919096

$$$$
[H]c1c([H])c(N([H])c2nc([H])c3c(C(=O)N([H])[H])nn(C([H])([H])[H])c3n2)c([H])c([H])c1Cl


 24 26  0  0  0  0  0  0  0  0999 V2000
  -18.4295    9.4967  -17.5532 C   0  0  0  0  0  0  0  0  0  0  0  0
  -18.8398   10.8812  -17.6292 N   0  0  0  0  0  0  0  0  0  0  0  0
  -19.6106   11.5507  -16.7948 N   0  0  0  0  0  0  0  0  0  0  0  0
  -19.7667   12.8247  -17.2018 C   0  0  0  0  0  0  0  0  0  0  0  0
  -19.0320   12.9121  -18.3637 C   0  0  0  0  0  0  0  0  0  0  0  0
  -18.7759   13.9260  -19.2660 C   0  0  0  0  0  0  0  0  0  0  0  0
  -17.9971   13.6996  -20.3361 N   0  0  0  0  0  0  0  0  0  0  0  0
  -17.4211   12.5304  -20.6210 C   0  0  0  0  0  0  0  0  0  0  0  0
  -17.6727   11.5186  -19.7268 N   0  0  0  0  0  0  0  0  0  0  0  0
  -18.4409   11.6989  -18.6494 C   0  0  0  0  0  0  0  0  0  0  0  0
  -20.5475   13.8624  -16.5386 C   0  0  0  0  0  0  0  0  0  0  0  0
  -20.1709   15.2106  -16.4374 N   0  0  0  0  0  0  0  0  0  0  0  0
  -21.6550   13.4838  -16.0196 O   0  0  0  0  0  0  0  0  0  0  0  0
  -20.5289   15.9010  -17.1331 H   0  0  0  0  0  0  0  0  0  0  0  0
  -19.5402   15.5922  -15.6976 H   0  0  0  0  0  0  0  0  0  0  0  0
  -16.5957   12.2656  -21.7396 N   0  0  0  0  0  0  0  0  0  0  0  0
  -15.9165   11.4401  -21.6262 H   0  0  0  0  0  0  0  0  0  0  0  0
  -16.5337   12.9135  -22.9719 C   0  0  0  0  0  0  0  0  0  0  0  0
  -17.6752   13.1992  -23.6813 C   0  0  0  0  0  0  0  0  0  0  0  0
  -17.5980   13.8692  -24.8970 C   0  0  0  0  0  0  0  0  0  0  0  0
  -16.3738   14.2322  -25.3646 C   0  0  0  0  0  0  0  0  0  0  0  0
  -16.2709   15.0740  -26.8907 Cl  0  0  0  0  0  0  0  0  0  0  0  0
  -15.2155   13.9594  -24.6777 C   0  0  0  0  0  0  0  0  0  0  0  0
  -15.2839   13.3048  -23.4881 C   0  0  0  0  0  0  0  0  0  0  0  0
  1  2  1  0  0  0
  2  3  1  0  0  0
  3  4  2  0  0  0
  4 11  1  0  0  0
 11 12  1  0  0  0
 11 13  2  0  0  0
  4  5  1  0  0  0
  5  6  2  0  0  0
  6  7  1  0  0  0
  7  8  2  0  0  0
  8 16  1  0  0  0
 16 18  1  0  0  0
 18 19  2  0  0  0
 19 20  1  0  0  0
 20 21  2  0  0  0
 21 22  1  0  0  0
 21 23  1  0  0  0
 23 24  2  0  0  0
  8  9  1  0  0  0
  9 10  2  0  0  0
 10  2  1  0  0  0
 10  5  1  0  0  0
 24 18  1  0  0  0
 12 14  1  0  0  0
 12 15  1  0  0  0
 16 17  1  0  0  0
M  END
> <minimizedAffinity>
-6.98857

> <CNNscore>
0.3135089278

> <CNNaffinity>
5.8254575729

> <CNN_VS>
1.8263329268

> <CNNaffinity_variance>
0.3361558318

$$$$
[H]c1c([H])c([H])c(C([H])([H])OC(=O)[C@@]([H])(N([H])C(=O)[C@@]([H])(N([H])C(=O)[C@]2([H])OC(=O)[C@@]2([H])[C@@]([H])(C([H])([H])[H])C([H])([H])C([H])([H])[H])C([H])([H])c2c([H])c([H])c([H])c([H])c2[H])C([H])(C([H])([H])[H])C([H])([H])[H])c([H])c1[H]


 39 41  0  0  0  0  0  0  0  0999 V2000
  -18.5060   14.5370  -21.0671 C   0  0  0  0  0  0  0  0  0  0  0  0
  -16.9276   14.7851  -22.9790 C   0  0  0  0  0  0  0  0  0  0  0  0
  -17.6327   13.9501  -23.6038 O   0  0  0  0  0  0  0  0  0  0  0  0
  -17.3103   15.1296  -21.6617 N   0  0  0  0  0  0  0  0  0  0  0  0
  -16.7506   15.7970  -21.1135 H   0  0  0  0  0  0  0  0  0  0  0  0
  -16.1133   15.6709  -25.1214 C   0  0  0  0  0  0  0  0  0  0  0  0
  -15.7581   15.3338  -23.6843 C   0  0  0  0  0  0  0  0  0  0  0  0
  -15.5921   16.7045  -23.4725 O   0  0  0  0  0  0  0  0  0  0  0  0
  -16.4950   16.9653  -24.4934 C   0  0  0  0  0  0  0  0  0  0  0  0
  -17.3144   17.8832  -24.8102 O   0  0  0  0  0  0  0  0  0  0  0  0
  -14.9708   15.8237  -26.0628 C   0  0  0  0  0  0  0  0  0  0  0  0
  -13.7249   15.0822  -25.6902 C   0  0  0  0  0  0  0  0  0  0  0  0
  -16.5166   14.6663  -27.6508 C   0  0  0  0  0  0  0  0  0  0  0  0
  -15.3378   15.5957  -27.5118 C   0  0  0  0  0  0  0  0  0  0  0  0
  -19.5225   15.5910  -20.8381 C   0  0  0  0  0  0  0  0  0  0  0  0
  -20.6254   15.2731  -20.3968 O   0  0  0  0  0  0  0  0  0  0  0  0
  -19.2115   16.9187  -21.1208 N   0  0  0  0  0  0  0  0  0  0  0  0
  -18.2651   17.1512  -21.4796 H   0  0  0  0  0  0  0  0  0  0  0  0
  -20.1039   18.0375  -20.9500 C   0  0  0  0  0  0  0  0  0  0  0  0
  -19.4752   19.2605  -20.3919 C   0  0  0  0  0  0  0  0  0  0  0  0
  -20.5678   20.2320  -20.0065 C   0  0  0  0  0  0  0  0  0  0  0  0
  -18.6356   19.0457  -19.1685 C   0  0  0  0  0  0  0  0  0  0  0  0
  -20.7101   18.3523  -22.2564 C   0  0  0  0  0  0  0  0  0  0  0  0
  -19.9928   18.8504  -23.1743 O   0  0  0  0  0  0  0  0  0  0  0  0
  -22.0305   18.1483  -22.5795 O   0  0  0  0  0  0  0  0  0  0  0  0
  -22.9457   19.0452  -23.1118 C   0  0  0  0  0  0  0  0  0  0  0  0
  -23.1114   18.8541  -24.5794 C   0  0  0  0  0  0  0  0  0  0  0  0
  -22.9686   19.9252  -25.4604 C   0  0  0  0  0  0  0  0  0  0  0  0
  -23.1437   19.6779  -26.8050 C   0  0  0  0  0  0  0  0  0  0  0  0
  -23.4481   18.4236  -27.2669 C   0  0  0  0  0  0  0  0  0  0  0  0
  -23.5839   17.3795  -26.3750 C   0  0  0  0  0  0  0  0  0  0  0  0
  -23.4158   17.5962  -25.0351 C   0  0  0  0  0  0  0  0  0  0  0  0
  -18.1286   14.0030  -19.6917 C   0  0  0  0  0  0  0  0  0  0  0  0
  -17.7965   12.5920  -19.6469 C   0  0  0  0  0  0  0  0  0  0  0  0
  -17.2356   11.9627  -20.7428 C   0  0  0  0  0  0  0  0  0  0  0  0
  -16.9081   10.5988  -20.6891 C   0  0  0  0  0  0  0  0  0  0  0  0
  -17.1343    9.8742  -19.5632 C   0  0  0  0  0  0  0  0  0  0  0  0
  -17.6930   10.4868  -18.4625 C   0  0  0  0  0  0  0  0  0  0  0  0
  -18.0173   11.8410  -18.5198 C   0  0  0  0  0  0  0  0  0  0  0  0
 13 14  1  0  0  0
 14 11  1  0  0  0
 11 12  1  0  0  0
 11  6  1  0  0  0
  6  7  1  0  0  0
  7  8  1  0  0  0
  8  9  1  0  0  0
  9 10  2  0  0  0
  7  2  1  0  0  0
  2  3  2  0  0  0
  2  4  1  0  0  0
  4  1  1  0  0  0
  1 33  1  0  0  0
 33 34  1  0  0  0
 34 35  2  0  0  0
 35 36  1  0  0  0
 36 37  2  0  0  0
 37 38  1  0  0  0
 38 39  2  0  0  0
  1 15  1  0  0  0
 15 16  2  0  0  0
 15 17  1  0  0  0
 17 19  1  0  0  0
 19 20  1  0  0  0
 20 21  1  0  0  0
 20 22  1  0  0  0
 19 23  1  0  0  0
 23 24  2  0  0  0
 23 25  1  0  0  0
 25 26  1  0  0  0
 26 27  1  0  0  0
 27 28  2  0  0  0
 28 29  1  0  0  0
 29 30  2  0  0  0
 30 31  1  0  0  0
 31 32  2  0  0  0
  9  6  1  0  0  0
 39 34  1  0  0  0
 32 27  1  0  0  0
  4  5  1  0  0  0
 17 18  1  0  0  0
M  END
> <minimizedAffinity>
-8.74330

> <CNNscore>
0.7326663136

> <CNNaffinity>
7.7634820938

> <CNN_VS>
5.6880416870

> <CNNaffinity_variance>
0.2147665769

$$$$
[H]c1c([H])c([H])c(C([H])([H])OC(=O)[C@@]([H])(N([H])C(=O)[C@@]([H])(N([H])C(=O)[C@]2([H])OC(=O)[C@@]2([H])[C@@]([H])(C([H])([H])[H])C([H])([H])C([H])([H])[H])C([H])([H])c2c([H])c([H])c([H])c([H])c2[H])C([H])(C([H])([H])[H])C([H])([H])[H])c([H])c1[H]


 39 41  0  0  0  0  0  0  0  0999 V2000
  -19.2065   13.3413  -20.4732 C   0  0  0  0  0  0  0  0  0  0  0  0
  -17.5645   12.7187  -22.2409 C   0  0  0  0  0  0  0  0  0  0  0  0
  -17.7710   11.5145  -21.9375 O   0  0  0  0  0  0  0  0  0  0  0  0
  -18.2616   13.7177  -21.5220 N   0  0  0  0  0  0  0  0  0  0  0  0
  -18.1081   14.7137  -21.7308 H   0  0  0  0  0  0  0  0  0  0  0  0
  -17.1651   14.0145  -24.2901 C   0  0  0  0  0  0  0  0  0  0  0  0
  -16.6079   12.9800  -23.3285 C   0  0  0  0  0  0  0  0  0  0  0  0
  -15.6368   13.9220  -22.9806 O   0  0  0  0  0  0  0  0  0  0  0  0
  -16.5112   14.9423  -23.3272 C   0  0  0  0  0  0  0  0  0  0  0  0
  -16.7157   16.1537  -23.0034 O   0  0  0  0  0  0  0  0  0  0  0  0
  -16.5316   14.0702  -25.6356 C   0  0  0  0  0  0  0  0  0  0  0  0
  -17.0998   13.1327  -26.6550 C   0  0  0  0  0  0  0  0  0  0  0  0
  -15.9915   15.4613  -27.6415 C   0  0  0  0  0  0  0  0  0  0  0  0
  -16.3931   15.4706  -26.1885 C   0  0  0  0  0  0  0  0  0  0  0  0
  -20.1931   14.4299  -20.2783 C   0  0  0  0  0  0  0  0  0  0  0  0
  -21.2821   14.1671  -19.7712 O   0  0  0  0  0  0  0  0  0  0  0  0
  -19.8702   15.7278  -20.6666 N   0  0  0  0  0  0  0  0  0  0  0  0
  -18.9356   15.9146  -21.0791 H   0  0  0  0  0  0  0  0  0  0  0  0
  -20.7340   16.8744  -20.5393 C   0  0  0  0  0  0  0  0  0  0  0  0
  -20.3170   17.8618  -19.5130 C   0  0  0  0  0  0  0  0  0  0  0  0
  -21.2120   17.7087  -18.3039 C   0  0  0  0  0  0  0  0  0  0  0  0
  -18.9055   17.7210  -19.0273 C   0  0  0  0  0  0  0  0  0  0  0  0
  -20.8193   17.5402  -21.8518 C   0  0  0  0  0  0  0  0  0  0  0  0
  -19.9846   17.2446  -22.7578 O   0  0  0  0  0  0  0  0  0  0  0  0
  -21.7552   18.4875  -22.1929 O   0  0  0  0  0  0  0  0  0  0  0  0
  -23.0698   18.3067  -22.5985 C   0  0  0  0  0  0  0  0  0  0  0  0
  -23.2104   18.4321  -24.0758 C   0  0  0  0  0  0  0  0  0  0  0  0
  -23.1472   19.6788  -24.6967 C   0  0  0  0  0  0  0  0  0  0  0  0
  -23.2936   19.7217  -26.0666 C   0  0  0  0  0  0  0  0  0  0  0  0
  -23.4947   18.5808  -26.7995 C   0  0  0  0  0  0  0  0  0  0  0  0
  -23.5532   17.3584  -26.1619 C   0  0  0  0  0  0  0  0  0  0  0  0
  -23.4113   17.2863  -24.8035 C   0  0  0  0  0  0  0  0  0  0  0  0
  -18.4332   13.2280  -19.1661 C   0  0  0  0  0  0  0  0  0  0  0  0
  -18.6729   12.0138  -18.4101 C   0  0  0  0  0  0  0  0  0  0  0  0
  -19.6959   11.9492  -17.4821 C   0  0  0  0  0  0  0  0  0  0  0  0
  -19.9279   10.7677  -16.7607 C   0  0  0  0  0  0  0  0  0  0  0  0
  -19.1554    9.6690  -16.9604 C   0  0  0  0  0  0  0  0  0  0  0  0
  -18.1317    9.7175  -17.8816 C   0  0  0  0  0  0  0  0  0  0  0  0
  -17.9039   10.8925  -18.5956 C   0  0  0  0  0  0  0  0  0  0  0  0
 13 14  1  0  0  0
 14 11  1  0  0  0
 11 12  1  0  0  0
 11  6  1  0  0  0
  6  7  1  0  0  0
  7  8  1  0  0  0
  8  9  1  0  0  0
  9 10  2  0  0  0
  7  2  1  0  0  0
  2  3  2  0  0  0
  2  4  1  0  0  0
  4  1  1  0  0  0
  1 33  1  0  0  0
 33 34  1  0  0  0
 34 35  2  0  0  0
 35 36  1  0  0  0
 36 37  2  0  0  0
 37 38  1  0  0  0
 38 39  2  0  0  0
  1 15  1  0  0  0
 15 16  2  0  0  0
 15 17  1  0  0  0
 17 19  1  0  0  0
 19 20  1  0  0  0
 20 21  1  0  0  0
 20 22  1  0  0  0
 19 23  1  0  0  0
 23 24  2  0  0  0
 23 25  1  0  0  0
 25 26  1  0  0  0
 26 27  1  0  0  0
 27 28  2  0  0  0
 28 29  1  0  0  0
 29 30  2  0  0  0
 30 31  1  0  0  0
 31 32  2  0  0  0
  9  6  1  0  0  0
 39 34  1  0  0  0
 32 27  1  0  0  0
  4  5  1  0  0  0
 17 18  1  0  0  0
M  END
> <minimizedAffinity>
-8.59113

> <CNNscore>
0.7048726082

> <CNNaffinity>
7.3689184189

> <CNN_VS>
5.1941485405

> <CNNaffinity_variance>
0.0330063440

$$$$
[H]c1c([H])c([H])c(C([H])([H])OC(=O)[C@@]([H])(N([H])C(=O)[C@@]([H])(N([H])C(=O)[C@]2([H])OC(=O)[C@@]2([H])[C@@]([H])(C([H])([H])[H])C([H])([H])C([H])([H])[H])C([H])([H])c2c([H])c([H])c([H])c([H])c2[H])C([H])(C([H])([H])[H])C([H])([H])[H])c([H])c1[H]


 39 41  0  0  0  0  0  0  0  0999 V2000
  -19.1563   14.1520  -20.1268 C   0  0  0  0  0  0  0  0  0  0  0  0
  -17.3759   14.5061  -21.8336 C   0  0  0  0  0  0  0  0  0  0  0  0
  -17.6226   13.3468  -22.2579 O   0  0  0  0  0  0  0  0  0  0  0  0
  -18.1199   14.9861  -20.7306 N   0  0  0  0  0  0  0  0  0  0  0  0
  -17.9367   15.9228  -20.3457 H   0  0  0  0  0  0  0  0  0  0  0  0
  -16.5900   15.2856  -24.0273 C   0  0  0  0  0  0  0  0  0  0  0  0
  -16.3259   15.2648  -22.5323 C   0  0  0  0  0  0  0  0  0  0  0  0
  -16.5648   16.6411  -22.5371 O   0  0  0  0  0  0  0  0  0  0  0  0
  -17.3796   16.4896  -23.6501 C   0  0  0  0  0  0  0  0  0  0  0  0
  -18.3752   17.0817  -24.1721 O   0  0  0  0  0  0  0  0  0  0  0  0
  -15.4308   15.6288  -24.8953 C   0  0  0  0  0  0  0  0  0  0  0  0
  -14.1465   14.9371  -24.5589 C   0  0  0  0  0  0  0  0  0  0  0  0
  -16.6782   14.4217  -26.6946 C   0  0  0  0  0  0  0  0  0  0  0  0
  -15.7305   15.5497  -26.3751 C   0  0  0  0  0  0  0  0  0  0  0  0
  -20.4121   14.9294  -20.0045 C   0  0  0  0  0  0  0  0  0  0  0  0
  -21.4822   14.3290  -19.9231 O   0  0  0  0  0  0  0  0  0  0  0  0
  -20.3594   16.3208  -19.9791 N   0  0  0  0  0  0  0  0  0  0  0  0
  -19.4364   16.7932  -20.0364 H   0  0  0  0  0  0  0  0  0  0  0  0
  -21.4997   17.1954  -19.8693 C   0  0  0  0  0  0  0  0  0  0  0  0
  -21.1978   18.5574  -19.3631 C   0  0  0  0  0  0  0  0  0  0  0  0
  -21.7115   18.6704  -17.9455 C   0  0  0  0  0  0  0  0  0  0  0  0
  -19.7429   18.9173  -19.3263 C   0  0  0  0  0  0  0  0  0  0  0  0
  -22.1370   17.2968  -21.1947 C   0  0  0  0  0  0  0  0  0  0  0  0
  -23.3589   16.9886  -21.3258 O   0  0  0  0  0  0  0  0  0  0  0  0
  -21.5023   17.7090  -22.3423 O   0  0  0  0  0  0  0  0  0  0  0  0
  -21.6128   18.9190  -23.0123 C   0  0  0  0  0  0  0  0  0  0  0  0
  -22.3393   18.7670  -24.3035 C   0  0  0  0  0  0  0  0  0  0  0  0
  -22.7983   17.5191  -24.7227 C   0  0  0  0  0  0  0  0  0  0  0  0
  -23.4555   17.4503  -25.9324 C   0  0  0  0  0  0  0  0  0  0  0  0
  -23.6544   18.5673  -26.7018 C   0  0  0  0  0  0  0  0  0  0  0  0
  -23.1908   19.7914  -26.2649 C   0  0  0  0  0  0  0  0  0  0  0  0
  -22.5351   19.8889  -25.0687 C   0  0  0  0  0  0  0  0  0  0  0  0
  -18.7203   13.8204  -18.7058 C   0  0  0  0  0  0  0  0  0  0  0  0
  -18.5629   12.4069  -18.4221 C   0  0  0  0  0  0  0  0  0  0  0  0
  -19.4223   11.7603  -17.5531 C   0  0  0  0  0  0  0  0  0  0  0  0
  -19.2697   10.3899  -17.2905 C   0  0  0  0  0  0  0  0  0  0  0  0
  -18.2791    9.6753  -17.8835 C   0  0  0  0  0  0  0  0  0  0  0  0
  -17.4142   10.3052  -18.7519 C   0  0  0  0  0  0  0  0  0  0  0  0
  -17.5684   11.6661  -19.0099 C   0  0  0  0  0  0  0  0  0  0  0  0
 13 14  1  0  0  0
 14 11  1  0  0  0
 11 12  1  0  0  0
 11  6  1  0  0  0
  6  7  1  0  0  0
  7  8  1  0  0  0
  8  9  1  0  0  0
  9 10  2  0  0  0
  7  2  1  0  0  0
  2  3  2  0  0  0
  2  4  1  0  0  0
  4  1  1  0  0  0
  1 33  1  0  0  0
 33 34  1  0  0  0
 34 35  2  0  0  0
 35 36  1  0  0  0
 36 37  2  0  0  0
 37 38  1  0  0  0
 38 39  2  0  0  0
  1 15  1  0  0  0
 15 16  2  0  0  0
 15 17  1  0  0  0
 17 19  1  0  0  0
 19 20  1  0  0  0
 20 21  1  0  0  0
 20 22  1  0  0  0
 19 23  1  0  0  0
 23 24  2  0  0  0
 23 25  1  0  0  0
 25 26  1  0  0  0
 26 27  1  0  0  0
 27 28  2  0  0  0
 28 29  1  0  0  0
 29 30  2  0  0  0
 30 31  1  0  0  0
 31 32  2  0  0  0
  9  6  1  0  0  0
 39 34  1  0  0  0
 32 27  1  0  0  0
  4  5  1  0  0  0
 17 18  1  0  0  0
M  END
> <minimizedAffinity>
-8.23139

> <CNNscore>
0.6623805165

> <CNNaffinity>
7.2827920914

> <CNN_VS>
4.8239793777

> <CNNaffinity_variance>
0.1416116655

$$$$
[H]c1c([H])c([H])c(C([H])([H])OC(=O)[C@@]([H])(N([H])C(=O)[C@@]([H])(N([H])C(=O)[C@]2([H])OC(=O)[C@@]2([H])[C@@]([H])(C([H])([H])[H])C([H])([H])C([H])([H])[H])C([H])([H])c2c([H])c([H])c([H])c([H])c2[H])C([H])(C([H])([H])[H])C([H])([H])[H])c([H])c1[H]


 39 41  0  0  0  0  0  0  0  0999 V2000
  -18.5735   14.6861  -20.8083 C   0  0  0  0  0  0  0  0  0  0  0  0
  -17.1355   15.0949  -22.8016 C   0  0  0  0  0  0  0  0  0  0  0  0
  -18.1344   14.8182  -23.5160 O   0  0  0  0  0  0  0  0  0  0  0  0
  -17.2832   15.0383  -21.3960 N   0  0  0  0  0  0  0  0  0  0  0  0
  -16.4854   15.2429  -20.7789 H   0  0  0  0  0  0  0  0  0  0  0  0
  -16.1793   15.8009  -24.9521 C   0  0  0  0  0  0  0  0  0  0  0  0
  -15.8924   15.4574  -23.5013 C   0  0  0  0  0  0  0  0  0  0  0  0
  -15.5411   16.7974  -23.3216 O   0  0  0  0  0  0  0  0  0  0  0  0
  -16.3862   17.1523  -24.3635 C   0  0  0  0  0  0  0  0  0  0  0  0
  -17.0666   18.1654  -24.7167 O   0  0  0  0  0  0  0  0  0  0  0  0
  -15.0148   15.7688  -25.8783 C   0  0  0  0  0  0  0  0  0  0  0  0
  -13.9149   14.8270  -25.4985 C   0  0  0  0  0  0  0  0  0  0  0  0
  -16.4699   14.5771  -27.5255 C   0  0  0  0  0  0  0  0  0  0  0  0
  -15.3952   15.6168  -27.3337 C   0  0  0  0  0  0  0  0  0  0  0  0
  -19.2728   15.9168  -20.3691 C   0  0  0  0  0  0  0  0  0  0  0  0
  -19.4030   16.1343  -19.1658 O   0  0  0  0  0  0  0  0  0  0  0  0
  -19.7646   16.8051  -21.3223 N   0  0  0  0  0  0  0  0  0  0  0  0
  -19.6241   16.5951  -22.3296 H   0  0  0  0  0  0  0  0  0  0  0  0
  -20.4654   18.0312  -21.0347 C   0  0  0  0  0  0  0  0  0  0  0  0
  -20.3437   19.0812  -22.0763 C   0  0  0  0  0  0  0  0  0  0  0  0
  -19.1163   19.9136  -21.7815 C   0  0  0  0  0  0  0  0  0  0  0  0
  -20.1964   18.5748  -23.4798 C   0  0  0  0  0  0  0  0  0  0  0  0
  -21.8897   17.7142  -20.8245 C   0  0  0  0  0  0  0  0  0  0  0  0
  -22.4106   17.9040  -19.6854 O   0  0  0  0  0  0  0  0  0  0  0  0
  -22.7332   17.2122  -21.7868 O   0  0  0  0  0  0  0  0  0  0  0  0
  -23.9071   17.7576  -22.2868 C   0  0  0  0  0  0  0  0  0  0  0  0
  -23.7660   18.1460  -23.7175 C   0  0  0  0  0  0  0  0  0  0  0  0
  -23.5754   17.1803  -24.7049 C   0  0  0  0  0  0  0  0  0  0  0  0
  -23.4442   17.6117  -26.0075 C   0  0  0  0  0  0  0  0  0  0  0  0
  -23.4985   18.9434  -26.3278 C   0  0  0  0  0  0  0  0  0  0  0  0
  -23.6883   19.8802  -25.3326 C   0  0  0  0  0  0  0  0  0  0  0  0
  -23.8213   19.4806  -24.0314 C   0  0  0  0  0  0  0  0  0  0  0  0
  -18.3069   13.8746  -19.5474 C   0  0  0  0  0  0  0  0  0  0  0  0
  -17.6725   12.5885  -19.7634 C   0  0  0  0  0  0  0  0  0  0  0  0
  -17.7682   11.9495  -20.9859 C   0  0  0  0  0  0  0  0  0  0  0  0
  -17.1437   10.7092  -21.1906 C   0  0  0  0  0  0  0  0  0  0  0  0
  -16.4353   10.1157  -20.1958 C   0  0  0  0  0  0  0  0  0  0  0  0
  -16.3308   10.7397  -18.9716 C   0  0  0  0  0  0  0  0  0  0  0  0
  -16.9525   11.9708  -18.7718 C   0  0  0  0  0  0  0  0  0  0  0  0
 13 14  1  0  0  0
 14 11  1  0  0  0
 11 12  1  0  0  0
 11  6  1  0  0  0
  6  7  1  0  0  0
  7  8  1  0  0  0
  8  9  1  0  0  0
  9 10  2  0  0  0
  7  2  1  0  0  0
  2  3  2  0  0  0
  2  4  1  0  0  0
  4  1  1  0  0  0
  1 33  1  0  0  0
 33 34  1  0  0  0
 34 35  2  0  0  0
 35 36  1  0  0  0
 36 37  2  0  0  0
 37 38  1  0  0  0
 38 39  2  0  0  0
  1 15  1  0  0  0
 15 16  2  0  0  0
 15 17  1  0  0  0
 17 19  1  0  0  0
 19 20  1  0  0  0
 20 21  1  0  0  0
 20 22  1  0  0  0
 19 23  1  0  0  0
 23 24  2  0  0  0
 23 25  1  0  0  0
 25 26  1  0  0  0
 26 27  1  0  0  0
 27 28  2  0  0  0
 28 29  1  0  0  0
 29 30  2  0  0  0
 30 31  1  0  0  0
 31 32  2  0  0  0
  9  6  1  0  0  0
 39 34  1  0  0  0
 32 27  1  0  0  0
  4  5  1  0  0  0
 17 18  1  0  0  0
M  END
> <minimizedAffinity>
-8.68478

> <CNNscore>
0.5362209082

> <CNNaffinity>
7.3562736511

> <CNN_VS>
3.9445877075

> <CNNaffinity_variance>
0.1320545822

$$$$
[H]c1c([H])c([H])c(C([H])([H])OC(=O)[C@@]([H])(N([H])C(=O)[C@@]([H])(N([H])C(=O)[C@]2([H])OC(=O)[C@@]2([H])[C@@]([H])(C([H])([H])[H])C([H])([H])C([H])([H])[H])C([H])([H])c2c([H])c([H])c([H])c([H])c2[H])C([H])(C([H])([H])[H])C([H])([H])[H])c([H])c1[H]


 39 41  0  0  0  0  0  0  0  0999 V2000
  -20.1315   18.1353  -22.3374 C   0  0  0  0  0  0  0  0  0  0  0  0
  -18.3958   17.2131  -23.8689 C   0  0  0  0  0  0  0  0  0  0  0  0
  -17.9462   18.3835  -23.9822 O   0  0  0  0  0  0  0  0  0  0  0  0
  -19.5275   17.0090  -23.0453 N   0  0  0  0  0  0  0  0  0  0  0  0
  -19.9332   16.0691  -22.9397 H   0  0  0  0  0  0  0  0  0  0  0  0
  -16.1910   16.3165  -24.4790 C   0  0  0  0  0  0  0  0  0  0  0  0
  -17.6947   16.1525  -24.6103 C   0  0  0  0  0  0  0  0  0  0  0  0
  -17.5646   14.9726  -23.8740 O   0  0  0  0  0  0  0  0  0  0  0  0
  -16.4257   15.4836  -23.2679 C   0  0  0  0  0  0  0  0  0  0  0  0
  -15.8045   15.3439  -22.1685 O   0  0  0  0  0  0  0  0  0  0  0  0
  -15.3612   15.6074  -25.4907 C   0  0  0  0  0  0  0  0  0  0  0  0
  -14.3740   14.6255  -24.9410 C   0  0  0  0  0  0  0  0  0  0  0  0
  -15.6694   15.4923  -27.9691 C   0  0  0  0  0  0  0  0  0  0  0  0
  -16.1602   15.0111  -26.6274 C   0  0  0  0  0  0  0  0  0  0  0  0
  -19.8417   18.0254  -20.8882 C   0  0  0  0  0  0  0  0  0  0  0  0
  -19.4415   19.0169  -20.2808 O   0  0  0  0  0  0  0  0  0  0  0  0
  -20.0312   16.8075  -20.2399 N   0  0  0  0  0  0  0  0  0  0  0  0
  -20.3835   15.9950  -20.7824 H   0  0  0  0  0  0  0  0  0  0  0  0
  -19.7847   16.5613  -18.8414 C   0  0  0  0  0  0  0  0  0  0  0  0
  -20.9408   16.0151  -18.0883 C   0  0  0  0  0  0  0  0  0  0  0  0
  -22.0971   16.9815  -18.2112 C   0  0  0  0  0  0  0  0  0  0  0  0
  -21.4387   14.6821  -18.5607 C   0  0  0  0  0  0  0  0  0  0  0  0
  -18.6445   15.6339  -18.7266 C   0  0  0  0  0  0  0  0  0  0  0  0
  -18.1157   15.4310  -17.5933 O   0  0  0  0  0  0  0  0  0  0  0  0
  -18.0825   14.9461  -19.7757 O   0  0  0  0  0  0  0  0  0  0  0  0
  -18.5894   13.8618  -20.4777 C   0  0  0  0  0  0  0  0  0  0  0  0
  -17.7650   12.6392  -20.2691 C   0  0  0  0  0  0  0  0  0  0  0  0
  -17.5797   12.1112  -18.9921 C   0  0  0  0  0  0  0  0  0  0  0  0
  -16.7979   10.9825  -18.8716 C   0  0  0  0  0  0  0  0  0  0  0  0
  -16.2194   10.3940  -19.9662 C   0  0  0  0  0  0  0  0  0  0  0  0
  -16.4179   10.9353  -21.2200 C   0  0  0  0  0  0  0  0  0  0  0  0
  -17.1889   12.0550  -21.3689 C   0  0  0  0  0  0  0  0  0  0  0  0
  -21.6434   18.0201  -22.4796 C   0  0  0  0  0  0  0  0  0  0  0  0
  -22.1849   18.5096  -23.7328 C   0  0  0  0  0  0  0  0  0  0  0  0
  -23.0156   17.7157  -24.5020 C   0  0  0  0  0  0  0  0  0  0  0  0
  -23.5435   18.1995  -25.7092 C   0  0  0  0  0  0  0  0  0  0  0  0
  -23.2504   19.4524  -26.1428 C   0  0  0  0  0  0  0  0  0  0  0  0
  -22.4238   20.2559  -25.3877 C   0  0  0  0  0  0  0  0  0  0  0  0
  -21.9010   19.7720  -24.1898 C   0  0  0  0  0  0  0  0  0  0  0  0
 13 14  1  0  0  0
 14 11  1  0  0  0
 11 12  1  0  0  0
 11  6  1  0  0  0
  6  7  1  0  0  0
  7  8  1  0  0  0
  8  9  1  0  0  0
  9 10  2  0  0  0
  7  2  1  0  0  0
  2  3  2  0  0  0
  2  4  1  0  0  0
  4  1  1  0  0  0
  1 33  1  0  0  0
 33 34  1  0  0  0
 34 35  2  0  0  0
 35 36  1  0  0  0
 36 37  2  0  0  0
 37 38  1  0  0  0
 38 39  2  0  0  0
  1 15  1  0  0  0
 15 16  2  0  0  0
 15 17  1  0  0  0
 17 19  1  0  0  0
 19 20  1  0  0  0
 20 21  1  0  0  0
 20 22  1  0  0  0
 19 23  1  0  0  0
 23 24  2  0  0  0
 23 25  1  0  0  0
 25 26  1  0  0  0
 26 27  1  0  0  0
 27 28  2  0  0  0
 28 29  1  0  0  0
 29 30  2  0  0  0
 30 31  1  0  0  0
 31 32  2  0  0  0
  9  6  1  0  0  0
 39 34  1  0  0  0
 32 27  1  0  0  0
  4  5  1  0  0  0
 17 18  1  0  0  0
M  END
> <minimizedAffinity>
-8.39895

> <CNNscore>
0.3566069603

> <CNNaffinity>
6.8979225159

> <CNN_VS>
2.4598472118

> <CNNaffinity_variance>
0.3040329814

$$$$
[H]c1c([H])c([H])c(C([H])([H])OC(=O)[C@@]([H])(N([H])C(=O)[C@@]([H])(N([H])C(=O)[C@]2([H])OC(=O)[C@@]2([H])[C@@]([H])(C([H])([H])[H])C([H])([H])C([H])([H])[H])C([H])([H])c2c([H])c([H])c([H])c([H])c2[H])C([H])(C([H])([H])[H])C([H])([H])[H])c([H])c1[H]


 39 41  0  0  0  0  0  0  0  0999 V2000
  -17.8728   16.8464  -21.6937 C   0  0  0  0  0  0  0  0  0  0  0  0
  -19.6476   17.9119  -23.0805 C   0  0  0  0  0  0  0  0  0  0  0  0
  -19.5158   16.9581  -23.8915 O   0  0  0  0  0  0  0  0  0  0  0  0
  -18.8271   17.9275  -21.9285 N   0  0  0  0  0  0  0  0  0  0  0  0
  -18.8949   18.6984  -21.2500 H   0  0  0  0  0  0  0  0  0  0  0  0
  -21.9088   18.2848  -23.9669 C   0  0  0  0  0  0  0  0  0  0  0  0
  -20.6553   18.9336  -23.4075 C   0  0  0  0  0  0  0  0  0  0  0  0
  -21.4224   19.3106  -22.3026 O   0  0  0  0  0  0  0  0  0  0  0  0
  -22.2597   18.2259  -22.5216 C   0  0  0  0  0  0  0  0  0  0  0  0
  -23.0177   17.4716  -21.8356 O   0  0  0  0  0  0  0  0  0  0  0  0
  -22.8270   19.1754  -24.7276 C   0  0  0  0  0  0  0  0  0  0  0  0
  -22.1702   20.3022  -25.4623 C   0  0  0  0  0  0  0  0  0  0  0  0
  -23.4525   18.5686  -27.0709 C   0  0  0  0  0  0  0  0  0  0  0  0
  -23.8047   18.4343  -25.6112 C   0  0  0  0  0  0  0  0  0  0  0  0
  -17.6611   16.6773  -20.2367 C   0  0  0  0  0  0  0  0  0  0  0  0
  -16.5369   16.8539  -19.7707 O   0  0  0  0  0  0  0  0  0  0  0  0
  -18.7352   16.3274  -19.4221 N   0  0  0  0  0  0  0  0  0  0  0  0
  -19.6732   16.1998  -19.8490 H   0  0  0  0  0  0  0  0  0  0  0  0
  -18.6684   16.1268  -17.9965 C   0  0  0  0  0  0  0  0  0  0  0  0
  -19.7653   16.7598  -17.2229 C   0  0  0  0  0  0  0  0  0  0  0  0
  -19.1954   17.9197  -16.4379 C   0  0  0  0  0  0  0  0  0  0  0  0
  -20.8938   17.3063  -18.0448 C   0  0  0  0  0  0  0  0  0  0  0  0
  -18.6570   14.6767  -17.7311 C   0  0  0  0  0  0  0  0  0  0  0  0
  -18.1022   14.2382  -16.6800 O   0  0  0  0  0  0  0  0  0  0  0  0
  -19.2125   13.7236  -18.5511 O   0  0  0  0  0  0  0  0  0  0  0  0
  -19.0948   12.3425  -18.4859 C   0  0  0  0  0  0  0  0  0  0  0  0
  -18.0708   11.8334  -19.4400 C   0  0  0  0  0  0  0  0  0  0  0  0
  -17.9875   12.3395  -20.7364 C   0  0  0  0  0  0  0  0  0  0  0  0
  -17.0212   11.8164  -21.5685 C   0  0  0  0  0  0  0  0  0  0  0  0
  -16.1678   10.8320  -21.1421 C   0  0  0  0  0  0  0  0  0  0  0  0
  -16.2700   10.3476  -19.8540 C   0  0  0  0  0  0  0  0  0  0  0  0
  -17.2197   10.8482  -19.0067 C   0  0  0  0  0  0  0  0  0  0  0  0
  -16.5306   17.2738  -22.2726 C   0  0  0  0  0  0  0  0  0  0  0  0
  -15.9500   16.3531  -23.2309 C   0  0  0  0  0  0  0  0  0  0  0  0
  -15.6408   16.7690  -24.5128 C   0  0  0  0  0  0  0  0  0  0  0  0
  -15.0704   15.8748  -25.4322 C   0  0  0  0  0  0  0  0  0  0  0  0
  -14.8115   14.5889  -25.0812 C   0  0  0  0  0  0  0  0  0  0  0  0
  -15.1142   14.1590  -23.8075 C   0  0  0  0  0  0  0  0  0  0  0  0
  -15.6809   15.0495  -22.8974 C   0  0  0  0  0  0  0  0  0  0  0  0
 13 14  1  0  0  0
 14 11  1  0  0  0
 11 12  1  0  0  0
 11  6  1  0  0  0
  6  7  1  0  0  0
  7  8  1  0  0  0
  8  9  1  0  0  0
  9 10  2  0  0  0
  7  2  1  0  0  0
  2  3  2  0  0  0
  2  4  1  0  0  0
  4  1  1  0  0  0
  1 33  1  0  0  0
 33 34  1  0  0  0
 34 35  2  0  0  0
 35 36  1  0  0  0
 36 37  2  0  0  0
 37 38  1  0  0  0
 38 39  2  0  0  0
  1 15  1  0  0  0
 15 16  2  0  0  0
 15 17  1  0  0  0
 17 19  1  0  0  0
 19 20  1  0  0  0
 20 21  1  0  0  0
 20 22  1  0  0  0
 19 23  1  0  0  0
 23 24  2  0  0  0
 23 25  1  0  0  0
 25 26  1  0  0  0
 26 27  1  0  0  0
 27 28  2  0  0  0
 28 29  1  0  0  0
 29 30  2  0  0  0
 30 31  1  0  0  0
 31 32  2  0  0  0
  9  6  1  0  0  0
 39 34  1  0  0  0
 32 27  1  0  0  0
  4  5  1  0  0  0
 17 18  1  0  0  0
M  END
> <minimizedAffinity>
-8.55230

> <CNNscore>
0.3534634113

> <CNNaffinity>
6.9184241295

> <CNN_VS>
2.4454097748

> <CNNaffinity_variance>
0.1072652936

$$$$
[H]c1c([H])c([H])c(C([H])([H])OC(=O)[C@@]([H])(N([H])C(=O)[C@@]([H])(N([H])C(=O)[C@]2([H])OC(=O)[C@@]2([H])[C@@]([H])(C([H])([H])[H])C([H])([H])C([H])([H])[H])C([H])([H])c2c([H])c([H])c([H])c([H])c2[H])C([H])(C([H])([H])[H])C([H])([H])[H])c([H])c1[H]


 39 41  0  0  0  0  0  0  0  0999 V2000
  -19.3562   13.4048  -20.0306 C   0  0  0  0  0  0  0  0  0  0  0  0
  -17.6387   13.6932  -21.8125 C   0  0  0  0  0  0  0  0  0  0  0  0
  -17.6043   12.4387  -21.9120 O   0  0  0  0  0  0  0  0  0  0  0  0
  -18.5111   14.2638  -20.8565 N   0  0  0  0  0  0  0  0  0  0  0  0
  -18.5561   15.2848  -20.7352 H   0  0  0  0  0  0  0  0  0  0  0  0
  -17.2277   14.3318  -24.1494 C   0  0  0  0  0  0  0  0  0  0  0  0
  -16.7600   14.4598  -22.7106 C   0  0  0  0  0  0  0  0  0  0  0  0
  -17.1087   15.8103  -22.7861 O   0  0  0  0  0  0  0  0  0  0  0  0
  -18.0536   15.5059  -23.7557 C   0  0  0  0  0  0  0  0  0  0  0  0
  -19.1563   15.9791  -24.1731 O   0  0  0  0  0  0  0  0  0  0  0  0
  -16.2305   14.6784  -25.1984 C   0  0  0  0  0  0  0  0  0  0  0  0
  -14.8228   14.2561  -24.9143 C   0  0  0  0  0  0  0  0  0  0  0  0
  -16.1308   15.2544  -27.6292 C   0  0  0  0  0  0  0  0  0  0  0  0
  -16.6535   14.2884  -26.5966 C   0  0  0  0  0  0  0  0  0  0  0  0
  -20.6270   14.1030  -19.7244 C   0  0  0  0  0  0  0  0  0  0  0  0
  -21.6459   13.7876  -20.3365 O   0  0  0  0  0  0  0  0  0  0  0  0
  -20.6473   15.0973  -18.7495 N   0  0  0  0  0  0  0  0  0  0  0  0
  -19.7701   15.3276  -18.2435 H   0  0  0  0  0  0  0  0  0  0  0  0
  -21.8084   15.8559  -18.3578 C   0  0  0  0  0  0  0  0  0  0  0  0
  -22.0455   15.9273  -16.8946 C   0  0  0  0  0  0  0  0  0  0  0  0
  -23.5364   15.9866  -16.6495 C   0  0  0  0  0  0  0  0  0  0  0  0
  -21.5230   14.7647  -16.1053 C   0  0  0  0  0  0  0  0  0  0  0  0
  -21.6760   17.2210  -18.8985 C   0  0  0  0  0  0  0  0  0  0  0  0
  -21.7470   17.4071  -20.1496 O   0  0  0  0  0  0  0  0  0  0  0  0
  -21.4738   18.3500  -18.1409 O   0  0  0  0  0  0  0  0  0  0  0  0
  -20.3037   19.0698  -17.9452 C   0  0  0  0  0  0  0  0  0  0  0  0
  -19.1269   18.3758  -18.5379 C   0  0  0  0  0  0  0  0  0  0  0  0
  -18.5641   17.2633  -17.9139 C   0  0  0  0  0  0  0  0  0  0  0  0
  -17.4712   16.6756  -18.5140 C   0  0  0  0  0  0  0  0  0  0  0  0
  -16.9506   17.1633  -19.6845 C   0  0  0  0  0  0  0  0  0  0  0  0
  -17.5257   18.2656  -20.2832 C   0  0  0  0  0  0  0  0  0  0  0  0
  -18.6109   18.8690  -19.7097 C   0  0  0  0  0  0  0  0  0  0  0  0
  -18.6510   13.1988  -18.6965 C   0  0  0  0  0  0  0  0  0  0  0  0
  -18.7471   11.8600  -18.1473 C   0  0  0  0  0  0  0  0  0  0  0  0
  -17.9001   10.8562  -18.5796 C   0  0  0  0  0  0  0  0  0  0  0  0
  -17.9927    9.5651  -18.0369 C   0  0  0  0  0  0  0  0  0  0  0  0
  -18.9120    9.2784  -17.0796 C   0  0  0  0  0  0  0  0  0  0  0  0
  -19.7636   10.2679  -16.6384 C   0  0  0  0  0  0  0  0  0  0  0  0
  -19.6691   11.5485  -17.1799 C   0  0  0  0  0  0  0  0  0  0  0  0
 13 14  1  0  0  0
 14 11  1  0  0  0
 11 12  1  0  0  0
 11  6  1  0  0  0
  6  7  1  0  0  0
  7  8  1  0  0  0
  8  9  1  0  0  0
  9 10  2  0  0  0
  7  2  1  0  0  0
  2  3  2  0  0  0
  2  4  1  0  0  0
  4  1  1  0  0  0
  1 33  1  0  0  0
 33 34  1  0  0  0
 34 35  2  0  0  0
 35 36  1  0  0  0
 36 37  2  0  0  0
 37 38  1  0  0  0
 38 39  2  0  0  0
  1 15  1  0  0  0
 15 16  2  0  0  0
 15 17  1  0  0  0
 17 19  1  0  0  0
 19 20  1  0  0  0
 20 21  1  0  0  0
 20 22  1  0  0  0
 19 23  1  0  0  0
 23 24  2  0  0  0
 23 25  1  0  0  0
 25 26  1  0  0  0
 26 27  1  0  0  0
 27 28  2  0  0  0
 28 29  1  0  0  0
 29 30  2  0  0  0
 30 31  1  0  0  0
 31 32  2  0  0  0
  9  6  1  0  0  0
 39 34  1  0  0  0
 32 27  1  0  0  0
  4  5  1  0  0  0
 17 18  1  0  0  0
M  END
> <minimizedAffinity>
-7.08159

> <CNNscore>
0.3330425918

> <CNNaffinity>
6.7402849197

> <CNN_VS>
2.2448019981

> <CNNaffinity_variance>
0.0556900129

$$$$
[H]c1c([H])c([H])c(C([H])([H])OC(=O)[C@@]([H])(N([H])C(=O)[C@@]([H])(N([H])C(=O)[C@]2([H])OC(=O)[C@@]2([H])[C@@]([H])(C([H])([H])[H])C([H])([H])C([H])([H])[H])C([H])([H])c2c([H])c([H])c([H])c([H])c2[H])C([H])(C([H])([H])[H])C([H])([H])[H])c([H])c1[H]


 39 41  0  0  0  0  0  0  0  0999 V2000
  -19.1685   13.5896  -19.9284 C   0  0  0  0  0  0  0  0  0  0  0  0
  -17.5565   13.8217  -21.8140 C   0  0  0  0  0  0  0  0  0  0  0  0
  -17.7393   12.5995  -22.0542 O   0  0  0  0  0  0  0  0  0  0  0  0
  -18.2519   14.4001  -20.7266 N   0  0  0  0  0  0  0  0  0  0  0  0
  -18.1169   15.3925  -20.4896 H   0  0  0  0  0  0  0  0  0  0  0  0
  -17.1026   14.4802  -24.1374 C   0  0  0  0  0  0  0  0  0  0  0  0
  -16.6273   14.5452  -22.6969 C   0  0  0  0  0  0  0  0  0  0  0  0
  -16.8826   15.9178  -22.7432 O   0  0  0  0  0  0  0  0  0  0  0  0
  -17.8461   15.6995  -23.7177 C   0  0  0  0  0  0  0  0  0  0  0  0
  -18.9138   16.2559  -24.1234 O   0  0  0  0  0  0  0  0  0  0  0  0
  -16.0840   14.7799  -25.1802 C   0  0  0  0  0  0  0  0  0  0  0  0
  -14.7094   14.2529  -24.9090 C   0  0  0  0  0  0  0  0  0  0  0  0
  -16.0252   15.4614  -27.5850 C   0  0  0  0  0  0  0  0  0  0  0  0
  -16.5342   14.4534  -26.5862 C   0  0  0  0  0  0  0  0  0  0  0  0
  -20.3879   14.3740  -19.6215 C   0  0  0  0  0  0  0  0  0  0  0  0
  -21.4718   13.9907  -20.0580 O   0  0  0  0  0  0  0  0  0  0  0  0
  -20.2873   15.5246  -18.8434 N   0  0  0  0  0  0  0  0  0  0  0  0
  -19.3571   15.8102  -18.4807 H   0  0  0  0  0  0  0  0  0  0  0  0
  -21.3875   16.3796  -18.4751 C   0  0  0  0  0  0  0  0  0  0  0  0
  -21.7534   16.3451  -17.0373 C   0  0  0  0  0  0  0  0  0  0  0  0
  -23.2443   16.1203  -16.9239 C   0  0  0  0  0  0  0  0  0  0  0  0
  -21.0906   15.2656  -16.2352 C   0  0  0  0  0  0  0  0  0  0  0  0
  -21.0510   17.7621  -18.8606 C   0  0  0  0  0  0  0  0  0  0  0  0
  -20.7687   18.0231  -20.0677 O   0  0  0  0  0  0  0  0  0  0  0  0
  -21.0134   18.8314  -17.9976 O   0  0  0  0  0  0  0  0  0  0  0  0
  -19.9524   19.2983  -17.2348 C   0  0  0  0  0  0  0  0  0  0  0  0
  -20.2457   19.2142  -15.7771 C   0  0  0  0  0  0  0  0  0  0  0  0
  -21.3469   19.8718  -15.2304 C   0  0  0  0  0  0  0  0  0  0  0  0
  -21.5534   19.7575  -13.8725 C   0  0  0  0  0  0  0  0  0  0  0  0
  -20.7086   19.0236  -13.0807 C   0  0  0  0  0  0  0  0  0  0  0  0
  -19.6256   18.3815  -13.6454 C   0  0  0  0  0  0  0  0  0  0  0  0
  -19.3963   18.4779  -14.9903 C   0  0  0  0  0  0  0  0  0  0  0  0
  -18.4973   13.3049  -18.5913 C   0  0  0  0  0  0  0  0  0  0  0  0
  -18.7347   11.9803  -18.0507 C   0  0  0  0  0  0  0  0  0  0  0  0
  -17.9669   10.9038  -18.4551 C   0  0  0  0  0  0  0  0  0  0  0  0
  -18.1962    9.6263  -17.9207 C   0  0  0  0  0  0  0  0  0  0  0  0
  -19.1724    9.4241  -16.9988 C   0  0  0  0  0  0  0  0  0  0  0  0
  -19.9464   10.4867  -16.5857 C   0  0  0  0  0  0  0  0  0  0  0  0
  -19.7163   11.7536  -17.1189 C   0  0  0  0  0  0  0  0  0  0  0  0
 13 14  1  0  0  0
 14 11  1  0  0  0
 11 12  1  0  0  0
 11  6  1  0  0  0
  6  7  1  0  0  0
  7  8  1  0  0  0
  8  9  1  0  0  0
  9 10  2  0  0  0
  7  2  1  0  0  0
  2  3  2  0  0  0
  2  4  1  0  0  0
  4  1  1  0  0  0
  1 33  1  0  0  0
 33 34  1  0  0  0
 34 35  2  0  0  0
 35 36  1  0  0  0
 36 37  2  0  0  0
 37 38  1  0  0  0
 38 39  2  0  0  0
  1 15  1  0  0  0
 15 16  2  0  0  0
 15 17  1  0  0  0
 17 19  1  0  0  0
 19 20  1  0  0  0
 20 21  1  0  0  0
 20 22  1  0  0  0
 19 23  1  0  0  0
 23 24  2  0  0  0
 23 25  1  0  0  0
 25 26  1  0  0  0
 26 27  1  0  0  0
 27 28  2  0  0  0
 28 29  1  0  0  0
 29 30  2  0  0  0
 30 31  1  0  0  0
 31 32  2  0  0  0
  9  6  1  0  0  0
 39 34  1  0  0  0
 32 27  1  0  0  0
  4  5  1  0  0  0
 17 18  1  0  0  0
M  END
> <minimizedAffinity>
-7.41267

> <CNNscore>
0.3275478482

> <CNNaffinity>
6.4540328979

> <CNN_VS>
2.1140046120

> <CNNaffinity_variance>
0.0972548798

$$$$
[H]c1c([H])c([H])c(C([H])([H])OC(=O)[C@@]([H])(N([H])C(=O)[C@@]([H])(N([H])C(=O)[C@]2([H])OC(=O)[C@@]2([H])[C@@]([H])(C([H])([H])[H])C([H])([H])C([H])([H])[H])C([H])([H])c2c([H])c([H])c([H])c([H])c2[H])C([H])(C([H])([H])[H])C([H])([H])[H])c([H])c1[H]


 39 41  0  0  0  0  0  0  0  0999 V2000
  -18.4057   14.8072  -20.7931 C   0  0  0  0  0  0  0  0  0  0  0  0
  -16.9784   15.0718  -22.8182 C   0  0  0  0  0  0  0  0  0  0  0  0
  -17.8909   14.5039  -23.4736 O   0  0  0  0  0  0  0  0  0  0  0  0
  -17.1684   15.2542  -21.4285 N   0  0  0  0  0  0  0  0  0  0  0  0
  -16.4387   15.7006  -20.8563 H   0  0  0  0  0  0  0  0  0  0  0  0
  -16.1414   15.7973  -25.0115 C   0  0  0  0  0  0  0  0  0  0  0  0
  -15.7851   15.5001  -23.5659 C   0  0  0  0  0  0  0  0  0  0  0  0
  -15.5155   16.8630  -23.4204 O   0  0  0  0  0  0  0  0  0  0  0  0
  -16.4157   17.1434  -24.4386 C   0  0  0  0  0  0  0  0  0  0  0  0
  -17.1715   18.1041  -24.7851 O   0  0  0  0  0  0  0  0  0  0  0  0
  -15.0085   15.8226  -25.9762 C   0  0  0  0  0  0  0  0  0  0  0  0
  -13.8325   14.9709  -25.6120 C   0  0  0  0  0  0  0  0  0  0  0  0
  -16.5415   14.5996  -27.5270 C   0  0  0  0  0  0  0  0  0  0  0  0
  -15.4245   15.6056  -27.4136 C   0  0  0  0  0  0  0  0  0  0  0  0
  -19.2175   15.9838  -20.4019 C   0  0  0  0  0  0  0  0  0  0  0  0
  -19.0677   16.4688  -19.2818 O   0  0  0  0  0  0  0  0  0  0  0  0
  -20.1292   16.5213  -21.3070 N   0  0  0  0  0  0  0  0  0  0  0  0
  -20.2189   16.0935  -22.2491 H   0  0  0  0  0  0  0  0  0  0  0  0
  -20.9818   17.6558  -21.0558 C   0  0  0  0  0  0  0  0  0  0  0  0
  -21.3339   18.4528  -22.2570 C   0  0  0  0  0  0  0  0  0  0  0  0
  -21.0101   19.9045  -21.9851 C   0  0  0  0  0  0  0  0  0  0  0  0
  -20.6048   18.0742  -23.5111 C   0  0  0  0  0  0  0  0  0  0  0  0
  -22.2163   17.1754  -20.4090 C   0  0  0  0  0  0  0  0  0  0  0  0
  -23.2342   16.9185  -21.1183 O   0  0  0  0  0  0  0  0  0  0  0  0
  -22.3686   16.9751  -19.0576 O   0  0  0  0  0  0  0  0  0  0  0  0
  -22.7153   17.8912  -18.0747 C   0  0  0  0  0  0  0  0  0  0  0  0
  -21.7242   17.9048  -16.9632 C   0  0  0  0  0  0  0  0  0  0  0  0
  -21.9938   17.2593  -15.7572 C   0  0  0  0  0  0  0  0  0  0  0  0
  -21.0350   17.3196  -14.7688 C   0  0  0  0  0  0  0  0  0  0  0  0
  -19.8543   17.9897  -14.9588 C   0  0  0  0  0  0  0  0  0  0  0  0
  -19.6107   18.6206  -16.1616 C   0  0  0  0  0  0  0  0  0  0  0  0
  -20.5445   18.5773  -17.1599 C   0  0  0  0  0  0  0  0  0  0  0  0
  -18.0355   14.0955  -19.4985 C   0  0  0  0  0  0  0  0  0  0  0  0
  -17.6830   12.6961  -19.6421 C   0  0  0  0  0  0  0  0  0  0  0  0
  -17.6691   11.8544  -18.5452 C   0  0  0  0  0  0  0  0  0  0  0  0
  -17.3360   10.4990  -18.6932 C   0  0  0  0  0  0  0  0  0  0  0  0
  -17.0230    9.9899  -19.9125 C   0  0  0  0  0  0  0  0  0  0  0  0
  -17.0320   10.8158  -21.0155 C   0  0  0  0  0  0  0  0  0  0  0  0
  -17.3628   12.1613  -20.8647 C   0  0  0  0  0  0  0  0  0  0  0  0
 13 14  1  0  0  0
 14 11  1  0  0  0
 11 12  1  0  0  0
 11  6  1  0  0  0
  6  7  1  0  0  0
  7  8  1  0  0  0
  8  9  1  0  0  0
  9 10  2  0  0  0
  7  2  1  0  0  0
  2  3  2  0  0  0
  2  4  1  0  0  0
  4  1  1  0  0  0
  1 33  1  0  0  0
 33 34  1  0  0  0
 34 35  2  0  0  0
 35 36  1  0  0  0
 36 37  2  0  0  0
 37 38  1  0  0  0
 38 39  2  0  0  0
  1 15  1  0  0  0
 15 16  2  0  0  0
 15 17  1  0  0  0
 17 19  1  0  0  0
 19 20  1  0  0  0
 20 21  1  0  0  0
 20 22  1  0  0  0
 19 23  1  0  0  0
 23 24  2  0  0  0
 23 25  1  0  0  0
 25 26  1  0  0  0
 26 27  1  0  0  0
 27 28  2  0  0  0
 28 29  1  0  0  0
 29 30  2  0  0  0
 30 31  1  0  0  0
 31 32  2  0  0  0
  9  6  1  0  0  0
 39 34  1  0  0  0
 32 27  1  0  0  0
  4  5  1  0  0  0
 17 18  1  0  0  0
M  END
> <minimizedAffinity>
-7.90122

> <CNNscore>
0.3270364702

> <CNNaffinity>
6.6551566124

> <CNN_VS>
2.1764788628

> <CNNaffinity_variance>
0.2536498904

$$$$
[H]C1=C([H])C([H])(F)C([H])([H])C([H])=C1N([H])C(=O)C1(C(=O)N([H])c2c([H])c([H])c(Oc3c([H])c([H])nc4c([H])c(OC([H])([H])C([H])([H])C([H])([H])N5C([H])([H])C([H])([H])OC([H])([H])C5([H])[H])c(OC([H])([H])[H])c([H])c34)c(F)c2[H])C([H])([H])C1([H])[H]


 48 53  0  0  0  0  0  0  0  0999 V2000
  -19.3772   15.1721  -19.1372 C   0  0  0  0  0  0  0  0  0  0  0  0
  -20.1046   15.4280  -20.2911 C   0  0  0  0  0  0  0  0  0  0  0  0
  -19.9874   16.5578  -21.0448 C   0  0  0  0  0  0  0  0  0  0  0  0
  -19.0777   17.5453  -20.6499 C   0  0  0  0  0  0  0  0  0  0  0  0
  -18.3390   17.3324  -19.5178 C   0  0  0  0  0  0  0  0  0  0  0  0
  -18.4811   16.1577  -18.7612 C   0  0  0  0  0  0  0  0  0  0  0  0
  -17.6958   16.0092  -17.6691 F   0  0  0  0  0  0  0  0  0  0  0  0
  -18.9326   18.7140  -21.4785 N   0  0  0  0  0  0  0  0  0  0  0  0
  -19.6702   19.8607  -21.2922 C   0  0  0  0  0  0  0  0  0  0  0  0
  -20.5462   19.8235  -20.3356 O   0  0  0  0  0  0  0  0  0  0  0  0
  -18.2442   18.6013  -22.2383 H   0  0  0  0  0  0  0  0  0  0  0  0
  -19.6500   21.1617  -22.0036 C   0  0  0  0  0  0  0  0  0  0  0  0
  -18.9376   22.2769  -21.2570 C   0  0  0  0  0  0  0  0  0  0  0  0
  -20.3962   22.2993  -21.2005 C   0  0  0  0  0  0  0  0  0  0  0  0
  -19.7801   21.3129  -23.4532 C   0  0  0  0  0  0  0  0  0  0  0  0
  -19.7354   20.1700  -24.1014 O   0  0  0  0  0  0  0  0  0  0  0  0
  -19.9465   22.4105  -24.2889 N   0  0  0  0  0  0  0  0  0  0  0  0
  -20.0303   23.3864  -23.9604 H   0  0  0  0  0  0  0  0  0  0  0  0
  -20.0492   22.2385  -25.7384 C   0  0  0  0  0  0  0  0  0  0  0  0
  -19.0003   22.5649  -26.4588 C   0  0  0  0  0  0  0  0  0  0  0  0
  -18.8942   22.4687  -27.9117 C   0  0  0  0  0  0  0  0  0  0  0  0
  -20.1120   21.9992  -28.6072 C   0  0  0  0  0  0  0  0  0  0  0  0
  -19.8142   20.8330  -29.3577 F   0  0  0  0  0  0  0  0  0  0  0  0
  -21.2221   21.6615  -27.7143 C   0  0  0  0  0  0  0  0  0  0  0  0
  -21.2201   21.7615  -26.4006 C   0  0  0  0  0  0  0  0  0  0  0  0
  -19.5403   14.0067  -18.4210 O   0  0  0  0  0  0  0  0  0  0  0  0
  -20.0794   10.7489  -15.9991 C   0  0  0  0  0  0  0  0  0  0  0  0
  -19.9102   11.8467  -16.7973 C   0  0  0  0  0  0  0  0  0  0  0  0
  -19.0519   11.7620  -17.8724 C   0  0  0  0  0  0  0  0  0  0  0  0
  -18.8430   12.8695  -18.7224 C   0  0  0  0  0  0  0  0  0  0  0  0
  -17.9786   12.7654  -19.7867 C   0  0  0  0  0  0  0  0  0  0  0  0
  -17.3075   11.5902  -20.0437 C   0  0  0  0  0  0  0  0  0  0  0  0
  -17.5089   10.5385  -19.2343 N   0  0  0  0  0  0  0  0  0  0  0  0
  -18.3593   10.6178  -18.1734 C   0  0  0  0  0  0  0  0  0  0  0  0
  -18.5346    9.5080  -17.3608 C   0  0  0  0  0  0  0  0  0  0  0  0
  -19.3844    9.5615  -16.2823 C   0  0  0  0  0  0  0  0  0  0  0  0
  -22.2000   11.2886  -14.9813 C   0  0  0  0  0  0  0  0  0  0  0  0
  -20.9123   10.7224  -14.8971 O   0  0  0  0  0  0  0  0  0  0  0  0
  -19.5691    8.4790  -15.4858 O   0  0  0  0  0  0  0  0  0  0  0  0
  -20.6040    7.5707  -15.5941 C   0  0  0  0  0  0  0  0  0  0  0  0
  -20.3880    6.3370  -14.7287 C   0  0  0  0  0  0  0  0  0  0  0  0
  -20.3560    6.7808  -13.2600 C   0  0  0  0  0  0  0  0  0  0  0  0
  -21.3332    6.0041  -12.5390 N   0  0  0  0  0  0  0  0  0  0  0  0
  -20.8503    5.7432  -11.1629 C   0  0  0  0  0  0  0  0  0  0  0  0
  -22.0243    5.0359  -10.4797 C   0  0  0  0  0  0  0  0  0  0  0  0
  -22.9442    4.5330  -11.3998 O   0  0  0  0  0  0  0  0  0  0  0  0
  -23.6134    5.5633  -12.0897 C   0  0  0  0  0  0  0  0  0  0  0  0
  -22.6142    6.6906  -12.3817 C   0  0  0  0  0  0  0  0  0  0  0  0
 37 38  1  0  0  0
 38 27  1  0  0  0
 27 28  2  0  0  0
 28 29  1  0  0  0
 29 30  2  0  0  0
 30 26  1  0  0  0
 26  1  1  0  0  0
  1  2  2  0  0  0
  2  3  1  0  0  0
  3  4  2  0  0  0
  4  8  1  0  0  0
  8  9  1  0  0  0
  9 10  2  0  0  0
  9 12  1  0  0  0
 12 13  1  0  0  0
 13 14  1  0  0  0
 12 15  1  0  0  0
 15 16  2  0  0  0
 15 17  1  0  0  0
 17 19  1  0  0  0
 19 20  2  0  0  0
 20 21  1  0  0  0
 21 22  1  0  0  0
 22 23  1  0  0  0
 22 24  1  0  0  0
 24 25  2  0  0  0
  4  5  1  0  0  0
  5  6  2  0  0  0
  6  7  1  0  0  0
 30 31  1  0  0  0
 31 32  2  0  0  0
 32 33  1  0  0  0
 33 34  2  0  0  0
 34 35  1  0  0  0
 35 36  2  0  0  0
 36 39  1  0  0  0
 39 40  1  0  0  0
 40 41  1  0  0  0
 41 42  1  0  0  0
 42 43  1  0  0  0
 43 44  1  0  0  0
 44 45  1  0  0  0
 45 46  1  0  0  0
 46 47  1  0  0  0
 47 48  1  0  0  0
 36 27  1  0  0  0
 48 43  1  0  0  0
 34 29  1  0  0  0
  6  1  1  0  0  0
 14 12  1  0  0  0
 25 19  1  0  0  0
  8 11  1  0  0  0
 17 18  1  0  0  0
M  END
> <minimizedAffinity>
-7.58454

> <CNNscore>
0.2098856419

> <CNNaffinity>
6.7027854919

> <CNN_VS>
1.4068183899

> <CNNaffinity_variance>
0.0764956996

$$$$
[H]C1=C([H])C([H])(F)C([H])([H])C([H])=C1N([H])C(=O)C1(C(=O)N([H])c2c([H])c([H])c(Oc3c([H])c([H])nc4c([H])c(OC([H])([H])C([H])([H])C([H])([H])N5C([H])([H])C([H])([H])OC([H])([H])C5([H])[H])c(OC([H])([H])[H])c([H])c34)c(F)c2[H])C([H])([H])C1([H])[H]


 48 53  0  0  0  0  0  0  0  0999 V2000
  -18.0242   17.0399  -21.7750 C   0  0  0  0  0  0  0  0  0  0  0  0
  -19.2965   17.2547  -21.2636 C   0  0  0  0  0  0  0  0  0  0  0  0
  -20.2125   18.1089  -21.8017 C   0  0  0  0  0  0  0  0  0  0  0  0
  -19.8722   18.8328  -22.9501 C   0  0  0  0  0  0  0  0  0  0  0  0
  -18.6273   18.6499  -23.4879 C   0  0  0  0  0  0  0  0  0  0  0  0
  -17.7040   17.7623  -22.9114 C   0  0  0  0  0  0  0  0  0  0  0  0
  -16.5027   17.6166  -23.5173 F   0  0  0  0  0  0  0  0  0  0  0  0
  -20.8641   19.6988  -23.5330 N   0  0  0  0  0  0  0  0  0  0  0  0
  -21.9678   19.2273  -24.2064 C   0  0  0  0  0  0  0  0  0  0  0  0
  -22.0538   17.9378  -24.3232 O   0  0  0  0  0  0  0  0  0  0  0  0
  -20.6560   20.7027  -23.4208 H   0  0  0  0  0  0  0  0  0  0  0  0
  -23.1026   19.9396  -24.8417 C   0  0  0  0  0  0  0  0  0  0  0  0
  -23.7327   19.2032  -26.0119 C   0  0  0  0  0  0  0  0  0  0  0  0
  -22.8217   20.2909  -26.3562 C   0  0  0  0  0  0  0  0  0  0  0  0
  -23.9271   20.9450  -24.1705 C   0  0  0  0  0  0  0  0  0  0  0  0
  -25.1478   21.0226  -24.6524 O   0  0  0  0  0  0  0  0  0  0  0  0
  -23.6930   21.8317  -23.1266 N   0  0  0  0  0  0  0  0  0  0  0  0
  -22.8031   21.8976  -22.6058 H   0  0  0  0  0  0  0  0  0  0  0  0
  -24.7449   22.7376  -22.6642 C   0  0  0  0  0  0  0  0  0  0  0  0
  -24.7646   23.9476  -23.1754 C   0  0  0  0  0  0  0  0  0  0  0  0
  -25.7249   24.9989  -22.8537 C   0  0  0  0  0  0  0  0  0  0  0  0
  -26.7256   24.6504  -21.8221 C   0  0  0  0  0  0  0  0  0  0  0  0
  -28.0320   24.7942  -22.3555 F   0  0  0  0  0  0  0  0  0  0  0  0
  -26.6177   23.2800  -21.3182 C   0  0  0  0  0  0  0  0  0  0  0  0
  -25.7225   22.3858  -21.6856 C   0  0  0  0  0  0  0  0  0  0  0  0
  -17.1450   16.1588  -21.1850 O   0  0  0  0  0  0  0  0  0  0  0  0
  -18.4402   13.2794  -18.5772 C   0  0  0  0  0  0  0  0  0  0  0  0
  -18.0110   14.2537  -19.4358 C   0  0  0  0  0  0  0  0  0  0  0  0
  -17.5104   13.8839  -20.6655 C   0  0  0  0  0  0  0  0  0  0  0  0
  -17.0529   14.8538  -21.5836 C   0  0  0  0  0  0  0  0  0  0  0  0
  -16.5524   14.4632  -22.8033 C   0  0  0  0  0  0  0  0  0  0  0  0
  -16.4897   13.1319  -23.1514 C   0  0  0  0  0  0  0  0  0  0  0  0
  -16.9263   12.2120  -22.2768 N   0  0  0  0  0  0  0  0  0  0  0  0
  -17.4252   12.5745  -21.0624 C   0  0  0  0  0  0  0  0  0  0  0  0
  -17.8616   11.5908  -20.1880 C   0  0  0  0  0  0  0  0  0  0  0  0
  -18.3668   11.9285  -18.9555 C   0  0  0  0  0  0  0  0  0  0  0  0
  -18.8477   14.8288  -16.7724 C   0  0  0  0  0  0  0  0  0  0  0  0
  -18.9580   13.5360  -17.3222 O   0  0  0  0  0  0  0  0  0  0  0  0
  -18.8038   10.9744  -18.0959 O   0  0  0  0  0  0  0  0  0  0  0  0
  -18.3223    9.6821  -18.0196 C   0  0  0  0  0  0  0  0  0  0  0  0
  -18.7001    8.9968  -16.7138 C   0  0  0  0  0  0  0  0  0  0  0  0
  -19.7955    9.8295  -16.0343 C   0  0  0  0  0  0  0  0  0  0  0  0
  -20.1435    9.1806  -14.7950 N   0  0  0  0  0  0  0  0  0  0  0  0
  -19.8737    7.7274  -14.8970 C   0  0  0  0  0  0  0  0  0  0  0  0
  -20.1579    7.1921  -13.4905 C   0  0  0  0  0  0  0  0  0  0  0  0
  -20.9112    8.0856  -12.7289 O   0  0  0  0  0  0  0  0  0  0  0  0
  -20.1905    9.2591  -12.4314 C   0  0  0  0  0  0  0  0  0  0  0  0
  -19.3533    9.6474  -13.6572 C   0  0  0  0  0  0  0  0  0  0  0  0
 37 38  1  0  0  0
 38 27  1  0  0  0
 27 28  2  0  0  0
 28 29  1  0  0  0
 29 30  2  0  0  0
 30 26  1  0  0  0
 26  1  1  0  0  0
  1  2  2  0  0  0
  2  3  1  0  0  0
  3  4  2  0  0  0
  4  8  1  0  0  0
  8  9  1  0  0  0
  9 10  2  0  0  0
  9 12  1  0  0  0
 12 13  1  0  0  0
 13 14  1  0  0  0
 12 15  1  0  0  0
 15 16  2  0  0  0
 15 17  1  0  0  0
 17 19  1  0  0  0
 19 20  2  0  0  0
 20 21  1  0  0  0
 21 22  1  0  0  0
 22 23  1  0  0  0
 22 24  1  0  0  0
 24 25  2  0  0  0
  4  5  1  0  0  0
  5  6  2  0  0  0
  6  7  1  0  0  0
 30 31  1  0  0  0
 31 32  2  0  0  0
 32 33  1  0  0  0
 33 34  2  0  0  0
 34 35  1  0  0  0
 35 36  2  0  0  0
 36 39  1  0  0  0
 39 40  1  0  0  0
 40 41  1  0  0  0
 41 42  1  0  0  0
 42 43  1  0  0  0
 43 44  1  0  0  0
 44 45  1  0  0  0
 45 46  1  0  0  0
 46 47  1  0  0  0
 47 48  1  0  0  0
 36 27  1  0  0  0
 48 43  1  0  0  0
 34 29  1  0  0  0
  6  1  1  0  0  0
 14 12  1  0  0  0
 25 19  1  0  0  0
  8 11  1  0  0  0
 17 18  1  0  0  0
M  END
> <minimizedAffinity>
-8.50218

> <CNNscore>
0.1736070067

> <CNNaffinity>
6.6070823669

> <CNN_VS>
1.1470358372

> <CNNaffinity_variance>
0.1800049245

$$$$
[H]C1=C([H])C([H])(F)C([H])([H])C([H])=C1N([H])C(=O)C1(C(=O)N([H])c2c([H])c([H])c(Oc3c([H])c([H])nc4c([H])c(OC([H])([H])C([H])([H])C([H])([H])N5C([H])([H])C([H])([H])OC([H])([H])C5([H])[H])c(OC([H])([H])[H])c([H])c34)c(F)c2[H])C([H])([H])C1([H])[H]


 48 53  0  0  0  0  0  0  0  0999 V2000
  -17.7248   12.1575  -19.0067 C   0  0  0  0  0  0  0  0  0  0  0  0
  -18.9658   12.1857  -18.3858 C   0  0  0  0  0  0  0  0  0  0  0  0
  -19.5117   11.1416  -17.7002 C   0  0  0  0  0  0  0  0  0  0  0  0
  -18.7920    9.9455  -17.6003 C   0  0  0  0  0  0  0  0  0  0  0  0
  -17.5628    9.8753  -18.1975 C   0  0  0  0  0  0  0  0  0  0  0  0
  -17.0255   10.9681  -18.8974 C   0  0  0  0  0  0  0  0  0  0  0  0
  -15.7926   10.8295  -19.4378 F   0  0  0  0  0  0  0  0  0  0  0  0
  -19.3610    8.8652  -16.8368 N   0  0  0  0  0  0  0  0  0  0  0  0
  -19.4927    8.9035  -15.4676 C   0  0  0  0  0  0  0  0  0  0  0  0
  -19.0369    9.9684  -14.8827 O   0  0  0  0  0  0  0  0  0  0  0  0
  -19.6358    8.0523  -17.4091 H   0  0  0  0  0  0  0  0  0  0  0  0
  -20.0706    7.9260  -14.5139 C   0  0  0  0  0  0  0  0  0  0  0  0
  -20.8764    6.8135  -15.1631 C   0  0  0  0  0  0  0  0  0  0  0  0
  -21.6494    7.8970  -14.5632 C   0  0  0  0  0  0  0  0  0  0  0  0
  -19.5407    7.6655  -13.1751 C   0  0  0  0  0  0  0  0  0  0  0  0
  -19.6457    6.4069  -12.8101 O   0  0  0  0  0  0  0  0  0  0  0  0
  -18.9445    8.4678  -12.2098 N   0  0  0  0  0  0  0  0  0  0  0  0
  -18.7534    9.4764  -12.3266 H   0  0  0  0  0  0  0  0  0  0  0  0
  -18.5060    7.9023  -10.9336 C   0  0  0  0  0  0  0  0  0  0  0  0
  -17.2599    7.4943  -10.8527 C   0  0  0  0  0  0  0  0  0  0  0  0
  -16.6251    6.9051   -9.6775 C   0  0  0  0  0  0  0  0  0  0  0  0
  -17.5061    6.7253   -8.5033 C   0  0  0  0  0  0  0  0  0  0  0  0
  -16.9701    7.4249   -7.3919 F   0  0  0  0  0  0  0  0  0  0  0  0
  -18.8731    7.2126   -8.6969 C   0  0  0  0  0  0  0  0  0  0  0  0
  -19.3559    7.7543   -9.7966 C   0  0  0  0  0  0  0  0  0  0  0  0
  -17.2274   13.2500  -19.6825 O   0  0  0  0  0  0  0  0  0  0  0  0
  -19.0349   16.6950  -20.9610 C   0  0  0  0  0  0  0  0  0  0  0  0
  -18.4336   15.5495  -20.5169 C   0  0  0  0  0  0  0  0  0  0  0  0
  -18.0293   14.6092  -21.4398 C   0  0  0  0  0  0  0  0  0  0  0  0
  -17.4072   13.4105  -21.0287 C   0  0  0  0  0  0  0  0  0  0  0  0
  -17.0158   12.4832  -21.9655 C   0  0  0  0  0  0  0  0  0  0  0  0
  -17.2189   12.7032  -23.3100 C   0  0  0  0  0  0  0  0  0  0  0  0
  -17.8098   13.8444  -23.6980 N   0  0  0  0  0  0  0  0  0  0  0  0
  -18.2069   14.7773  -22.7887 C   0  0  0  0  0  0  0  0  0  0  0  0
  -18.8171   15.9403  -23.2334 C   0  0  0  0  0  0  0  0  0  0  0  0
  -19.2300   16.8968  -22.3374 C   0  0  0  0  0  0  0  0  0  0  0  0
  -18.9206   17.8397  -18.8395 C   0  0  0  0  0  0  0  0  0  0  0  0
  -19.4794   17.7018  -20.1259 O   0  0  0  0  0  0  0  0  0  0  0  0
  -19.8207   18.0417  -22.7625 O   0  0  0  0  0  0  0  0  0  0  0  0
  -21.1743   18.2141  -22.9770 C   0  0  0  0  0  0  0  0  0  0  0  0
  -21.4676   19.3183  -23.9831 C   0  0  0  0  0  0  0  0  0  0  0  0
  -20.4935   20.4753  -23.7234 C   0  0  0  0  0  0  0  0  0  0  0  0
  -20.2239   21.1214  -24.9836 N   0  0  0  0  0  0  0  0  0  0  0  0
  -21.4957   21.3720  -25.7008 C   0  0  0  0  0  0  0  0  0  0  0  0
  -21.0782   22.1686  -26.9404 C   0  0  0  0  0  0  0  0  0  0  0  0
  -19.7116   22.0633  -27.1989 O   0  0  0  0  0  0  0  0  0  0  0  0
  -18.9388   22.6901  -26.2013 C   0  0  0  0  0  0  0  0  0  0  0  0
  -19.5915   22.4312  -24.8370 C   0  0  0  0  0  0  0  0  0  0  0  0
 37 38  1  0  0  0
 38 27  1  0  0  0
 27 28  2  0  0  0
 28 29  1  0  0  0
 29 30  2  0  0  0
 30 26  1  0  0  0
 26  1  1  0  0  0
  1  2  2  0  0  0
  2  3  1  0  0  0
  3  4  2  0  0  0
  4  8  1  0  0  0
  8  9  1  0  0  0
  9 10  2  0  0  0
  9 12  1  0  0  0
 12 13  1  0  0  0
 13 14  1  0  0  0
 12 15  1  0  0  0
 15 16  2  0  0  0
 15 17  1  0  0  0
 17 19  1  0  0  0
 19 20  2  0  0  0
 20 21  1  0  0  0
 21 22  1  0  0  0
 22 23  1  0  0  0
 22 24  1  0  0  0
 24 25  2  0  0  0
  4  5  1  0  0  0
  5  6  2  0  0  0
  6  7  1  0  0  0
 30 31  1  0  0  0
 31 32  2  0  0  0
 32 33  1  0  0  0
 33 34  2  0  0  0
 34 35  1  0  0  0
 35 36  2  0  0  0
 36 39  1  0  0  0
 39 40  1  0  0  0
 40 41  1  0  0  0
 41 42  1  0  0  0
 42 43  1  0  0  0
 43 44  1  0  0  0
 44 45  1  0  0  0
 45 46  1  0  0  0
 46 47  1  0  0  0
 47 48  1  0  0  0
 36 27  1  0  0  0
 48 43  1  0  0  0
 34 29  1  0  0  0
  6  1  1  0  0  0
 14 12  1  0  0  0
 25 19  1  0  0  0
  8 11  1  0  0  0
 17 18  1  0  0  0
M  END
> <minimizedAffinity>
-8.68717

> <CNNscore>
0.1456576586

> <CNNaffinity>
6.2403516769

> <CNN_VS>
0.9089550376

> <CNNaffinity_variance>
0.5006560683

$$$$
[H]C1=C([H])C([H])(F)C([H])([H])C([H])=C1N([H])C(=O)C1(C(=O)N([H])c2c([H])c([H])c(Oc3c([H])c([H])nc4c([H])c(OC([H])([H])C([H])([H])C([H])([H])N5C([H])([H])C([H])([H])OC([H])([H])C5([H])[H])c(OC([H])([H])[H])c([H])c34)c(F)c2[H])C([H])([H])C1([H])[H]


 48 53  0  0  0  0  0  0  0  0999 V2000
  -19.3564   15.1427  -19.1046 C   0  0  0  0  0  0  0  0  0  0  0  0
  -18.6226   16.0838  -19.8134 C   0  0  0  0  0  0  0  0  0  0  0  0
  -19.1436   16.9241  -20.7518 C   0  0  0  0  0  0  0  0  0  0  0  0
  -20.5112   16.8540  -21.0406 C   0  0  0  0  0  0  0  0  0  0  0  0
  -21.2719   15.9401  -20.3633 C   0  0  0  0  0  0  0  0  0  0  0  0
  -20.7072   15.0871  -19.4010 C   0  0  0  0  0  0  0  0  0  0  0  0
  -21.5302   14.2287  -18.7550 F   0  0  0  0  0  0  0  0  0  0  0  0
  -21.0565   17.7765  -22.0024 N   0  0  0  0  0  0  0  0  0  0  0  0
  -21.4768   19.0440  -21.6701 C   0  0  0  0  0  0  0  0  0  0  0  0
  -21.3886   19.3607  -20.4148 O   0  0  0  0  0  0  0  0  0  0  0  0
  -21.1259   17.3893  -22.9559 H   0  0  0  0  0  0  0  0  0  0  0  0
  -22.0290   20.1399  -22.5025 C   0  0  0  0  0  0  0  0  0  0  0  0
  -22.9705   21.0776  -21.7657 C   0  0  0  0  0  0  0  0  0  0  0  0
  -23.6033   20.0749  -22.6175 C   0  0  0  0  0  0  0  0  0  0  0  0
  -21.3934   20.6576  -23.7146 C   0  0  0  0  0  0  0  0  0  0  0  0
  -20.4977   19.8398  -24.2220 O   0  0  0  0  0  0  0  0  0  0  0  0
  -21.5412   21.8299  -24.4459 N   0  0  0  0  0  0  0  0  0  0  0  0
  -22.2149   22.5789  -24.2171 H   0  0  0  0  0  0  0  0  0  0  0  0
  -20.7424   22.0672  -25.6486 C   0  0  0  0  0  0  0  0  0  0  0  0
  -21.3036   21.8004  -26.8060 C   0  0  0  0  0  0  0  0  0  0  0  0
  -20.6849   21.9673  -28.1177 C   0  0  0  0  0  0  0  0  0  0  0  0
  -19.2835   22.4394  -28.1030 C   0  0  0  0  0  0  0  0  0  0  0  0
  -19.1779   23.6464  -28.8406 F   0  0  0  0  0  0  0  0  0  0  0  0
  -18.7533   22.7079  -26.7650 C   0  0  0  0  0  0  0  0  0  0  0  0
  -19.3981   22.5463  -25.6275 C   0  0  0  0  0  0  0  0  0  0  0  0
  -18.7697   14.3239  -18.1649 O   0  0  0  0  0  0  0  0  0  0  0  0
  -20.3475   11.3519  -15.8312 C   0  0  0  0  0  0  0  0  0  0  0  0
  -19.8287   12.3568  -16.6003 C   0  0  0  0  0  0  0  0  0  0  0  0
  -18.9750   12.0320  -17.6325 C   0  0  0  0  0  0  0  0  0  0  0  0
  -18.4127   13.0351  -18.4512 C   0  0  0  0  0  0  0  0  0  0  0  0
  -17.5593   12.6900  -19.4726 C   0  0  0  0  0  0  0  0  0  0  0  0
  -17.2405   11.3722  -19.7166 C   0  0  0  0  0  0  0  0  0  0  0  0
  -17.7776   10.4205  -18.9370 N   0  0  0  0  0  0  0  0  0  0  0  0
  -18.6246   10.7380  -17.9188 C   0  0  0  0  0  0  0  0  0  0  0  0
  -19.1534    9.7231  -17.1357 C   0  0  0  0  0  0  0  0  0  0  0  0
  -20.0081   10.0156  -16.1003 C   0  0  0  0  0  0  0  0  0  0  0  0
  -21.9746   12.7455  -14.7200 C   0  0  0  0  0  0  0  0  0  0  0  0
  -21.2102   11.5627  -14.7728 O   0  0  0  0  0  0  0  0  0  0  0  0
  -20.5373    9.0296  -15.3333 O   0  0  0  0  0  0  0  0  0  0  0  0
  -19.8206    8.1761  -14.5174 C   0  0  0  0  0  0  0  0  0  0  0  0
  -19.0398    8.9187  -13.4420 C   0  0  0  0  0  0  0  0  0  0  0  0
  -18.8733    7.9828  -12.2373 C   0  0  0  0  0  0  0  0  0  0  0  0
  -18.2603    8.7347  -11.1710 N   0  0  0  0  0  0  0  0  0  0  0  0
  -19.0297    9.9770  -10.9269 C   0  0  0  0  0  0  0  0  0  0  0  0
  -18.3563   10.6022   -9.7017 C   0  0  0  0  0  0  0  0  0  0  0  0
  -17.0877   10.0710   -9.4692 O   0  0  0  0  0  0  0  0  0  0  0  0
  -17.1480    8.7172   -9.0835 C   0  0  0  0  0  0  0  0  0  0  0  0
  -18.2498    8.0225   -9.8945 C   0  0  0  0  0  0  0  0  0  0  0  0
 37 38  1  0  0  0
 38 27  1  0  0  0
 27 28  2  0  0  0
 28 29  1  0  0  0
 29 30  2  0  0  0
 30 26  1  0  0  0
 26  1  1  0  0  0
  1  2  2  0  0  0
  2  3  1  0  0  0
  3  4  2  0  0  0
  4  8  1  0  0  0
  8  9  1  0  0  0
  9 10  2  0  0  0
  9 12  1  0  0  0
 12 13  1  0  0  0
 13 14  1  0  0  0
 12 15  1  0  0  0
 15 16  2  0  0  0
 15 17  1  0  0  0
 17 19  1  0  0  0
 19 20  2  0  0  0
 20 21  1  0  0  0
 21 22  1  0  0  0
 22 23  1  0  0  0
 22 24  1  0  0  0
 24 25  2  0  0  0
  4  5  1  0  0  0
  5  6  2  0  0  0
  6  7  1  0  0  0
 30 31  1  0  0  0
 31 32  2  0  0  0
 32 33  1  0  0  0
 33 34  2  0  0  0
 34 35  1  0  0  0
 35 36  2  0  0  0
 36 39  1  0  0  0
 39 40  1  0  0  0
 40 41  1  0  0  0
 41 42  1  0  0  0
 42 43  1  0  0  0
 43 44  1  0  0  0
 44 45  1  0  0  0
 45 46  1  0  0  0
 46 47  1  0  0  0
 47 48  1  0  0  0
 36 27  1  0  0  0
 48 43  1  0  0  0
 34 29  1  0  0  0
  6  1  1  0  0  0
 14 12  1  0  0  0
 25 19  1  0  0  0
  8 11  1  0  0  0
 17 18  1  0  0  0
M  END
> <minimizedAffinity>
-8.26916

> <CNNscore>
0.1410556436

> <CNNaffinity>
6.5117216110

> <CNN_VS>
0.9185150862

> <CNNaffinity_variance>
0.0933790803

$$$$
[H]C1=C([H])C([H])(F)C([H])([H])C([H])=C1N([H])C(=O)C1(C(=O)N([H])c2c([H])c([H])c(Oc3c([H])c([H])nc4c([H])c(OC([H])([H])C([H])([H])C([H])([H])N5C([H])([H])C([H])([H])OC([H])([H])C5([H])[H])c(OC([H])([H])[H])c([H])c34)c(F)c2[H])C([H])([H])C1([H])[H]


 48 53  0  0  0  0  0  0  0  0999 V2000
  -19.3742   15.5946  -19.5332 C   0  0  0  0  0  0  0  0  0  0  0  0
  -20.7207   15.6195  -19.8686 C   0  0  0  0  0  0  0  0  0  0  0  0
  -21.2608   16.4051  -20.8430 C   0  0  0  0  0  0  0  0  0  0  0  0
  -20.4214   17.2558  -21.5713 C   0  0  0  0  0  0  0  0  0  0  0  0
  -19.0858   17.2616  -21.2732 C   0  0  0  0  0  0  0  0  0  0  0  0
  -18.5576   16.4406  -20.2635 C   0  0  0  0  0  0  0  0  0  0  0  0
  -17.2226   16.4838  -20.0462 F   0  0  0  0  0  0  0  0  0  0  0  0
  -20.9977   18.0481  -22.6266 N   0  0  0  0  0  0  0  0  0  0  0  0
  -21.4546   19.3320  -22.4355 C   0  0  0  0  0  0  0  0  0  0  0  0
  -21.3714   19.7901  -21.2243 O   0  0  0  0  0  0  0  0  0  0  0  0
  -21.0589   17.5544  -23.5302 H   0  0  0  0  0  0  0  0  0  0  0  0
  -22.0424   20.3108  -23.3817 C   0  0  0  0  0  0  0  0  0  0  0  0
  -21.9635   19.9004  -24.8425 C   0  0  0  0  0  0  0  0  0  0  0  0
  -20.9765   20.8805  -24.3991 C   0  0  0  0  0  0  0  0  0  0  0  0
  -23.0661   21.2934  -23.0242 C   0  0  0  0  0  0  0  0  0  0  0  0
  -24.1835   21.1503  -23.7019 O   0  0  0  0  0  0  0  0  0  0  0  0
  -23.1076   22.3432  -22.1148 N   0  0  0  0  0  0  0  0  0  0  0  0
  -22.3350   22.5922  -21.4757 H   0  0  0  0  0  0  0  0  0  0  0  0
  -24.3073   23.1701  -21.9809 C   0  0  0  0  0  0  0  0  0  0  0  0
  -24.4311   24.1881  -22.8021 C   0  0  0  0  0  0  0  0  0  0  0  0
  -25.5452   25.1309  -22.8373 C   0  0  0  0  0  0  0  0  0  0  0  0
  -26.5899   24.9173  -21.8126 C   0  0  0  0  0  0  0  0  0  0  0  0
  -27.8449   24.7198  -22.4434 F   0  0  0  0  0  0  0  0  0  0  0  0
  -26.3577   23.7576  -20.9495 C   0  0  0  0  0  0  0  0  0  0  0  0
  -25.3236   22.9432  -21.0049 C   0  0  0  0  0  0  0  0  0  0  0  0
  -18.8900   14.7738  -18.5384 O   0  0  0  0  0  0  0  0  0  0  0  0
  -20.3531   11.8108  -16.1200 C   0  0  0  0  0  0  0  0  0  0  0  0
  -19.8730   12.8128  -16.9177 C   0  0  0  0  0  0  0  0  0  0  0  0
  -19.0111   12.4912  -17.9440 C   0  0  0  0  0  0  0  0  0  0  0  0
  -18.4876   13.4915  -18.7914 C   0  0  0  0  0  0  0  0  0  0  0  0
  -17.6251   13.1499  -19.8064 C   0  0  0  0  0  0  0  0  0  0  0  0
  -17.2597   11.8384  -20.0161 C   0  0  0  0  0  0  0  0  0  0  0  0
  -17.7600   10.8893  -19.2094 N   0  0  0  0  0  0  0  0  0  0  0  0
  -18.6150   11.2034  -18.1968 C   0  0  0  0  0  0  0  0  0  0  0  0
  -19.1046   10.1916  -17.3849 C   0  0  0  0  0  0  0  0  0  0  0  0
  -19.9665   10.4809  -16.3545 C   0  0  0  0  0  0  0  0  0  0  0  0
  -21.9093   13.2435  -14.9580 C   0  0  0  0  0  0  0  0  0  0  0  0
  -21.2199   12.0189  -15.0644 O   0  0  0  0  0  0  0  0  0  0  0  0
  -20.4576    9.4975  -15.5594 O   0  0  0  0  0  0  0  0  0  0  0  0
  -20.1070    8.1631  -15.6247 C   0  0  0  0  0  0  0  0  0  0  0  0
  -20.1430    7.4851  -14.2622 C   0  0  0  0  0  0  0  0  0  0  0  0
  -20.9339    8.3821  -13.3005 C   0  0  0  0  0  0  0  0  0  0  0  0
  -20.0785    8.7018  -12.1851 N   0  0  0  0  0  0  0  0  0  0  0  0
  -18.9158    7.7839  -12.1656 C   0  0  0  0  0  0  0  0  0  0  0  0
  -18.0372    8.3133  -11.0283 C   0  0  0  0  0  0  0  0  0  0  0  0
  -18.7379    9.1643  -10.1737 O   0  0  0  0  0  0  0  0  0  0  0  0
  -19.1049   10.3649  -10.8133 C   0  0  0  0  0  0  0  0  0  0  0  0
  -19.5141   10.0484  -12.2579 C   0  0  0  0  0  0  0  0  0  0  0  0
 37 38  1  0  0  0
 38 27  1  0  0  0
 27 28  2  0  0  0
 28 29  1  0  0  0
 29 30  2  0  0  0
 30 26  1  0  0  0
 26  1  1  0  0  0
  1  2  2  0  0  0
  2  3  1  0  0  0
  3  4  2  0  0  0
  4  8  1  0  0  0
  8  9  1  0  0  0
  9 10  2  0  0  0
  9 12  1  0  0  0
 12 13  1  0  0  0
 13 14  1  0  0  0
 12 15  1  0  0  0
 15 16  2  0  0  0
 15 17  1  0  0  0
 17 19  1  0  0  0
 19 20  2  0  0  0
 20 21  1  0  0  0
 21 22  1  0  0  0
 22 23  1  0  0  0
 22 24  1  0  0  0
 24 25  2  0  0  0
  4  5  1  0  0  0
  5  6  2  0  0  0
  6  7  1  0  0  0
 30 31  1  0  0  0
 31 32  2  0  0  0
 32 33  1  0  0  0
 33 34  2  0  0  0
 34 35  1  0  0  0
 35 36  2  0  0  0
 36 39  1  0  0  0
 39 40  1  0  0  0
 40 41  1  0  0  0
 41 42  1  0  0  0
 42 43  1  0  0  0
 43 44  1  0  0  0
 44 45  1  0  0  0
 45 46  1  0  0  0
 46 47  1  0  0  0
 47 48  1  0  0  0
 36 27  1  0  0  0
 48 43  1  0  0  0
 34 29  1  0  0  0
  6  1  1  0  0  0
 14 12  1  0  0  0
 25 19  1  0  0  0
  8 11  1  0  0  0
 17 18  1  0  0  0
M  END
> <minimizedAffinity>
-7.08726

> <CNNscore>
0.1239567325

> <CNNaffinity>
6.4607567787

> <CNN_VS>
0.8008543253

> <CNNaffinity_variance>
0.3228079677

$$$$
[H]C1=C([H])C([H])(F)C([H])([H])C([H])=C1N([H])C(=O)C1(C(=O)N([H])c2c([H])c([H])c(Oc3c([H])c([H])nc4c([H])c(OC([H])([H])C([H])([H])C([H])([H])N5C([H])([H])C([H])([H])OC([H])([H])C5([H])[H])c(OC([H])([H])[H])c([H])c34)c(F)c2[H])C([H])([H])C1([H])[H]


 48 53  0  0  0  0  0  0  0  0999 V2000
  -17.1081   12.1442  -20.7897 C   0  0  0  0  0  0  0  0  0  0  0  0
  -18.3247   12.7471  -20.5020 C   0  0  0  0  0  0  0  0  0  0  0  0
  -19.0830   12.4732  -19.4028 C   0  0  0  0  0  0  0  0  0  0  0  0
  -18.6266   11.5213  -18.4840 C   0  0  0  0  0  0  0  0  0  0  0  0
  -17.4304   10.9035  -18.7291 C   0  0  0  0  0  0  0  0  0  0  0  0
  -16.6704   11.2065  -19.8706 C   0  0  0  0  0  0  0  0  0  0  0  0
  -15.4855   10.5722  -20.0289 F   0  0  0  0  0  0  0  0  0  0  0  0
  -19.4160   11.2729  -17.3055 N   0  0  0  0  0  0  0  0  0  0  0  0
  -19.5674   10.0207  -16.7553 C   0  0  0  0  0  0  0  0  0  0  0  0
  -18.9806    9.0492  -17.3844 O   0  0  0  0  0  0  0  0  0  0  0  0
  -19.8765   12.1156  -16.9293 H   0  0  0  0  0  0  0  0  0  0  0  0
  -20.2989    9.5658  -15.5483 C   0  0  0  0  0  0  0  0  0  0  0  0
  -21.3918    8.5461  -15.8211 C   0  0  0  0  0  0  0  0  0  0  0  0
  -21.8375    9.9198  -15.6069 C   0  0  0  0  0  0  0  0  0  0  0  0
  -19.7588    9.6101  -14.1891 C   0  0  0  0  0  0  0  0  0  0  0  0
  -18.9499   10.6260  -13.9838 O   0  0  0  0  0  0  0  0  0  0  0  0
  -19.9253    8.8071  -13.0673 N   0  0  0  0  0  0  0  0  0  0  0  0
  -20.5425    7.9795  -13.0289 H   0  0  0  0  0  0  0  0  0  0  0  0
  -19.2338    9.1174  -11.8158 C   0  0  0  0  0  0  0  0  0  0  0  0
  -18.3119    8.2729  -11.4123 C   0  0  0  0  0  0  0  0  0  0  0  0
  -17.5079    8.3959  -10.2000 C   0  0  0  0  0  0  0  0  0  0  0  0
  -17.8163    9.5659   -9.3498 C   0  0  0  0  0  0  0  0  0  0  0  0
  -16.6509   10.3575   -9.1849 F   0  0  0  0  0  0  0  0  0  0  0  0
  -18.8569   10.4436   -9.8890 C   0  0  0  0  0  0  0  0  0  0  0  0
  -19.5203   10.2620  -11.0127 C   0  0  0  0  0  0  0  0  0  0  0  0
  -16.3874   12.4683  -21.9181 O   0  0  0  0  0  0  0  0  0  0  0  0
  -16.8962   16.5300  -22.0305 C   0  0  0  0  0  0  0  0  0  0  0  0
  -16.7195   15.1748  -21.9763 C   0  0  0  0  0  0  0  0  0  0  0  0
  -17.1413   14.4056  -23.0393 C   0  0  0  0  0  0  0  0  0  0  0  0
  -16.9828   13.0029  -23.0272 C   0  0  0  0  0  0  0  0  0  0  0  0
  -17.4151   12.2533  -24.0958 C   0  0  0  0  0  0  0  0  0  0  0  0
  -18.0036   12.8496  -25.1893 C   0  0  0  0  0  0  0  0  0  0  0  0
  -18.1521   14.1837  -25.1983 N   0  0  0  0  0  0  0  0  0  0  0  0
  -17.7328   14.9470  -24.1512 C   0  0  0  0  0  0  0  0  0  0  0  0
  -17.9095   16.3214  -24.2008 C   0  0  0  0  0  0  0  0  0  0  0  0
  -17.4982   17.1148  -23.1570 C   0  0  0  0  0  0  0  0  0  0  0  0
  -17.2228   17.4078  -19.8063 C   0  0  0  0  0  0  0  0  0  0  0  0
  -16.5128   17.3949  -21.0236 O   0  0  0  0  0  0  0  0  0  0  0  0
  -17.6592   18.4611  -23.1990 O   0  0  0  0  0  0  0  0  0  0  0  0
  -18.8620   19.1204  -23.3613 C   0  0  0  0  0  0  0  0  0  0  0  0
  -19.7727   18.9754  -22.1502 C   0  0  0  0  0  0  0  0  0  0  0  0
  -21.0049   19.8640  -22.3672 C   0  0  0  0  0  0  0  0  0  0  0  0
  -22.1717   19.0175  -22.3554 N   0  0  0  0  0  0  0  0  0  0  0  0
  -22.5230   18.6285  -23.7412 C   0  0  0  0  0  0  0  0  0  0  0  0
  -23.6801   17.6395  -23.5727 C   0  0  0  0  0  0  0  0  0  0  0  0
  -24.2631   17.7210  -22.3082 O   0  0  0  0  0  0  0  0  0  0  0  0
  -23.3850   17.2851  -21.2962 C   0  0  0  0  0  0  0  0  0  0  0  0
  -21.9666   17.7618  -21.6356 C   0  0  0  0  0  0  0  0  0  0  0  0
 37 38  1  0  0  0
 38 27  1  0  0  0
 27 28  2  0  0  0
 28 29  1  0  0  0
 29 30  2  0  0  0
 30 26  1  0  0  0
 26  1  1  0  0  0
  1  2  2  0  0  0
  2  3  1  0  0  0
  3  4  2  0  0  0
  4  8  1  0  0  0
  8  9  1  0  0  0
  9 10  2  0  0  0
  9 12  1  0  0  0
 12 13  1  0  0  0
 13 14  1  0  0  0
 12 15  1  0  0  0
 15 16  2  0  0  0
 15 17  1  0  0  0
 17 19  1  0  0  0
 19 20  2  0  0  0
 20 21  1  0  0  0
 21 22  1  0  0  0
 22 23  1  0  0  0
 22 24  1  0  0  0
 24 25  2  0  0  0
  4  5  1  0  0  0
  5  6  2  0  0  0
  6  7  1  0  0  0
 30 31  1  0  0  0
 31 32  2  0  0  0
 32 33  1  0  0  0
 33 34  2  0  0  0
 34 35  1  0  0  0
 35 36  2  0  0  0
 36 39  1  0  0  0
 39 40  1  0  0  0
 40 41  1  0  0  0
 41 42  1  0  0  0
 42 43  1  0  0  0
 43 44  1  0  0  0
 44 45  1  0  0  0
 45 46  1  0  0  0
 46 47  1  0  0  0
 47 48  1  0  0  0
 36 27  1  0  0  0
 48 43  1  0  0  0
 34 29  1  0  0  0
  6  1  1  0  0  0
 14 12  1  0  0  0
 25 19  1  0  0  0
  8 11  1  0  0  0
 17 18  1  0  0  0
M  END
> <minimizedAffinity>
-9.17642

> <CNNscore>
0.1226032823

> <CNNaffinity>
6.6815171242

> <CNN_VS>
0.8191759586

> <CNNaffinity_variance>
0.4644264281

$$$$
[H]C1=C([H])C([H])(F)C([H])([H])C([H])=C1N([H])C(=O)C1(C(=O)N([H])c2c([H])c([H])c(Oc3c([H])c([H])nc4c([H])c(OC([H])([H])C([H])([H])C([H])([H])N5C([H])([H])C([H])([H])OC([H])([H])C5([H])[H])c(OC([H])([H])[H])c([H])c34)c(F)c2[H])C([H])([H])C1([H])[H]


 48 53  0  0  0  0  0  0  0  0999 V2000
  -17.1357   12.4746  -20.5510 C   0  0  0  0  0  0  0  0  0  0  0  0
  -18.3169   12.9703  -20.0168 C   0  0  0  0  0  0  0  0  0  0  0  0
  -19.0508   12.3474  -19.0516 C   0  0  0  0  0  0  0  0  0  0  0  0
  -18.6051   11.1206  -18.5466 C   0  0  0  0  0  0  0  0  0  0  0  0
  -17.4436   10.5964  -19.0453 C   0  0  0  0  0  0  0  0  0  0  0  0
  -16.7081   11.2615  -20.0399 C   0  0  0  0  0  0  0  0  0  0  0  0
  -15.5558   10.6916  -20.4628 F   0  0  0  0  0  0  0  0  0  0  0  0
  -19.3665   10.4945  -17.4969 N   0  0  0  0  0  0  0  0  0  0  0  0
  -19.7737   11.1634  -16.3654 C   0  0  0  0  0  0  0  0  0  0  0  0
  -19.3994   12.4025  -16.2724 O   0  0  0  0  0  0  0  0  0  0  0  0
  -19.5549    9.4938  -17.6611 H   0  0  0  0  0  0  0  0  0  0  0  0
  -20.5780   10.7166  -15.2025 C   0  0  0  0  0  0  0  0  0  0  0  0
  -21.8908   10.0435  -15.5659 C   0  0  0  0  0  0  0  0  0  0  0  0
  -21.9838   11.4340  -15.1307 C   0  0  0  0  0  0  0  0  0  0  0  0
  -20.0253   10.4199  -13.8805 C   0  0  0  0  0  0  0  0  0  0  0  0
  -19.1048   11.2768  -13.4973 O   0  0  0  0  0  0  0  0  0  0  0  0
  -20.2725    9.4255  -12.9420 N   0  0  0  0  0  0  0  0  0  0  0  0
  -20.9792    8.6802  -13.0542 H   0  0  0  0  0  0  0  0  0  0  0  0
  -19.5401    9.3930  -11.6757 C   0  0  0  0  0  0  0  0  0  0  0  0
  -18.5481    8.5376  -11.5761 C   0  0  0  0  0  0  0  0  0  0  0  0
  -17.6937    8.3474  -10.4077 C   0  0  0  0  0  0  0  0  0  0  0  0
  -18.0321    9.1784   -9.2321 C   0  0  0  0  0  0  0  0  0  0  0  0
  -16.9119    9.9679   -8.8664 F   0  0  0  0  0  0  0  0  0  0  0  0
  -19.1513   10.0974   -9.4473 C   0  0  0  0  0  0  0  0  0  0  0  0
  -19.8574   10.2156  -10.5533 C   0  0  0  0  0  0  0  0  0  0  0  0
  -16.4382   13.1558  -21.5242 O   0  0  0  0  0  0  0  0  0  0  0  0
  -17.3393   17.1091  -22.0971 C   0  0  0  0  0  0  0  0  0  0  0  0
  -17.0328   15.7925  -21.8890 C   0  0  0  0  0  0  0  0  0  0  0  0
  -17.3104   14.8793  -22.8833 C   0  0  0  0  0  0  0  0  0  0  0  0
  -17.0147   13.5095  -22.7129 C   0  0  0  0  0  0  0  0  0  0  0  0
  -17.3043   12.6142  -23.7154 C   0  0  0  0  0  0  0  0  0  0  0  0
  -17.8811   13.0313  -24.8948 C   0  0  0  0  0  0  0  0  0  0  0  0
  -18.1602   14.3345  -25.0543 N   0  0  0  0  0  0  0  0  0  0  0  0
  -17.8835   15.2399  -24.0753 C   0  0  0  0  0  0  0  0  0  0  0  0
  -18.1923   16.5760  -24.2808 C   0  0  0  0  0  0  0  0  0  0  0  0
  -17.9262   17.5100  -23.3087 C   0  0  0  0  0  0  0  0  0  0  0  0
  -17.8805   18.1635  -19.9948 C   0  0  0  0  0  0  0  0  0  0  0  0
  -17.1058   18.1071  -21.1706 O   0  0  0  0  0  0  0  0  0  0  0  0
  -18.2170   18.8208  -23.5029 O   0  0  0  0  0  0  0  0  0  0  0  0
  -19.4553   19.4038  -23.3171 C   0  0  0  0  0  0  0  0  0  0  0  0
  -19.4607   20.8838  -23.6735 C   0  0  0  0  0  0  0  0  0  0  0  0
  -20.7020   21.1665  -24.5303 C   0  0  0  0  0  0  0  0  0  0  0  0
  -20.2588   21.4842  -25.8648 N   0  0  0  0  0  0  0  0  0  0  0  0
  -21.4310   21.7158  -26.7407 C   0  0  0  0  0  0  0  0  0  0  0  0
  -20.8229   22.1669  -28.0719 C   0  0  0  0  0  0  0  0  0  0  0  0
  -19.4677   21.8505  -28.1663 O   0  0  0  0  0  0  0  0  0  0  0  0
  -18.6914   22.5880  -27.2505 C   0  0  0  0  0  0  0  0  0  0  0  0
  -19.4689   22.7124  -25.9335 C   0  0  0  0  0  0  0  0  0  0  0  0
 37 38  1  0  0  0
 38 27  1  0  0  0
 27 28  2  0  0  0
 28 29  1  0  0  0
 29 30  2  0  0  0
 30 26  1  0  0  0
 26  1  1  0  0  0
  1  2  2  0  0  0
  2  3  1  0  0  0
  3  4  2  0  0  0
  4  8  1  0  0  0
  8  9  1  0  0  0
  9 10  2  0  0  0
  9 12  1  0  0  0
 12 13  1  0  0  0
 13 14  1  0  0  0
 12 15  1  0  0  0
 15 16  2  0  0  0
 15 17  1  0  0  0
 17 19  1  0  0  0
 19 20  2  0  0  0
 20 21  1  0  0  0
 21 22  1  0  0  0
 22 23  1  0  0  0
 22 24  1  0  0  0
 24 25  2  0  0  0
  4  5  1  0  0  0
  5  6  2  0  0  0
  6  7  1  0  0  0
 30 31  1  0  0  0
 31 32  2  0  0  0
 32 33  1  0  0  0
 33 34  2  0  0  0
 34 35  1  0  0  0
 35 36  2  0  0  0
 36 39  1  0  0  0
 39 40  1  0  0  0
 40 41  1  0  0  0
 41 42  1  0  0  0
 42 43  1  0  0  0
 43 44  1  0  0  0
 44 45  1  0  0  0
 45 46  1  0  0  0
 46 47  1  0  0  0
 47 48  1  0  0  0
 36 27  1  0  0  0
 48 43  1  0  0  0
 34 29  1  0  0  0
  6  1  1  0  0  0
 14 12  1  0  0  0
 25 19  1  0  0  0
  8 11  1  0  0  0
 17 18  1  0  0  0
M  END
> <minimizedAffinity>
-8.96926

> <CNNscore>
0.1129111201

> <CNNaffinity>
6.3324460983

> <CNN_VS>
0.7150036097

> <CNNaffinity_variance>
0.4520103037

$$$$
[H]C1=C([H])C([H])(F)C([H])([H])C([H])=C1N([H])C(=O)C1(C(=O)N([H])c2c([H])c([H])c(Oc3c([H])c([H])nc4c([H])c(OC([H])([H])C([H])([H])C([H])([H])N5C([H])([H])C([H])([H])OC([H])([H])C5([H])[H])c(OC([H])([H])[H])c([H])c34)c(F)c2[H])C([H])([H])C1([H])[H]


 48 53  0  0  0  0  0  0  0  0999 V2000
  -19.9528   19.0644  -16.3212 C   0  0  0  0  0  0  0  0  0  0  0  0
  -19.5642   19.2477  -17.6410 C   0  0  0  0  0  0  0  0  0  0  0  0
  -18.9570   18.2980  -18.4076 C   0  0  0  0  0  0  0  0  0  0  0  0
  -18.6950   17.0416  -17.8497 C   0  0  0  0  0  0  0  0  0  0  0  0
  -19.0631   16.8182  -16.5508 C   0  0  0  0  0  0  0  0  0  0  0  0
  -19.6878   17.8162  -15.7850 C   0  0  0  0  0  0  0  0  0  0  0  0
  -20.0455   17.5098  -14.5163 F   0  0  0  0  0  0  0  0  0  0  0  0
  -18.0925   16.0338  -18.6834 N   0  0  0  0  0  0  0  0  0  0  0  0
  -18.8275   15.1395  -19.4276 C   0  0  0  0  0  0  0  0  0  0  0  0
  -20.1168   15.2281  -19.3109 O   0  0  0  0  0  0  0  0  0  0  0  0
  -17.0617   16.0293  -18.6499 H   0  0  0  0  0  0  0  0  0  0  0  0
  -18.4065   14.0646  -20.3582 C   0  0  0  0  0  0  0  0  0  0  0  0
  -19.2753   12.8188  -20.3159 C   0  0  0  0  0  0  0  0  0  0  0  0
  -18.0041   12.7367  -19.6026 C   0  0  0  0  0  0  0  0  0  0  0  0
  -17.6226   14.2843  -21.5741 C   0  0  0  0  0  0  0  0  0  0  0  0
  -16.9067   15.3864  -21.5392 O   0  0  0  0  0  0  0  0  0  0  0  0
  -17.4713   13.5701  -22.7564 N   0  0  0  0  0  0  0  0  0  0  0  0
  -17.9326   12.6673  -22.9556 H   0  0  0  0  0  0  0  0  0  0  0  0
  -16.5899   14.0578  -23.8176 C   0  0  0  0  0  0  0  0  0  0  0  0
  -17.1560   14.6450  -24.8475 C   0  0  0  0  0  0  0  0  0  0  0  0
  -16.4624   15.2009  -26.0056 C   0  0  0  0  0  0  0  0  0  0  0  0
  -14.9934   15.0307  -26.0075 C   0  0  0  0  0  0  0  0  0  0  0  0
  -14.3652   16.2999  -26.0878 F   0  0  0  0  0  0  0  0  0  0  0  0
  -14.4634   14.3657  -24.8157 C   0  0  0  0  0  0  0  0  0  0  0  0
  -15.1703   13.9114  -23.8009 C   0  0  0  0  0  0  0  0  0  0  0  0
  -20.5664   20.0653  -15.6006 O   0  0  0  0  0  0  0  0  0  0  0  0
  -22.0695   22.0058  -12.3227 C   0  0  0  0  0  0  0  0  0  0  0  0
  -21.5508   21.3602  -13.4113 C   0  0  0  0  0  0  0  0  0  0  0  0
  -22.4150   20.8117  -14.3341 C   0  0  0  0  0  0  0  0  0  0  0  0
  -21.9262   20.1336  -15.4717 C   0  0  0  0  0  0  0  0  0  0  0  0
  -22.8057   19.5892  -16.3777 C   0  0  0  0  0  0  0  0  0  0  0  0
  -24.1672   19.6949  -16.1969 C   0  0  0  0  0  0  0  0  0  0  0  0
  -24.6290   20.3411  -15.1148 N   0  0  0  0  0  0  0  0  0  0  0  0
  -23.7776   20.8876  -14.2031 C   0  0  0  0  0  0  0  0  0  0  0  0
  -24.2980   21.5430  -13.0975 C   0  0  0  0  0  0  0  0  0  0  0  0
  -23.4616   22.1011  -12.1609 C   0  0  0  0  0  0  0  0  0  0  0  0
  -20.5760   23.7670  -11.6216 C   0  0  0  0  0  0  0  0  0  0  0  0
  -21.2975   22.5904  -11.3372 O   0  0  0  0  0  0  0  0  0  0  0  0
  -23.9605   22.7515  -11.0799 O   0  0  0  0  0  0  0  0  0  0  0  0
  -24.9509   22.2746  -10.2436 C   0  0  0  0  0  0  0  0  0  0  0  0
  -24.4183   21.2850   -9.2167 C   0  0  0  0  0  0  0  0  0  0  0  0
  -25.0918   19.9284   -9.4633 C   0  0  0  0  0  0  0  0  0  0  0  0
  -24.0552   18.9459   -9.6588 N   0  0  0  0  0  0  0  0  0  0  0  0
  -24.4604   17.6604   -9.0438 C   0  0  0  0  0  0  0  0  0  0  0  0
  -23.3445   16.6873   -9.4356 C   0  0  0  0  0  0  0  0  0  0  0  0
  -22.1926   17.3498   -9.8599 O   0  0  0  0  0  0  0  0  0  0  0  0
  -22.3969   18.0313  -11.0761 C   0  0  0  0  0  0  0  0  0  0  0  0
  -23.8032   18.6449  -11.0669 C   0  0  0  0  0  0  0  0  0  0  0  0
 37 38  1  0  0  0
 38 27  1  0  0  0
 27 28  2  0  0  0
 28 29  1  0  0  0
 29 30  2  0  0  0
 30 26  1  0  0  0
 26  1  1  0  0  0
  1  2  2  0  0  0
  2  3  1  0  0  0
  3  4  2  0  0  0
  4  8  1  0  0  0
  8  9  1  0  0  0
  9 10  2  0  0  0
  9 12  1  0  0  0
 12 13  1  0  0  0
 13 14  1  0  0  0
 12 15  1  0  0  0
 15 16  2  0  0  0
 15 17  1  0  0  0
 17 19  1  0  0  0
 19 20  2  0  0  0
 20 21  1  0  0  0
 21 22  1  0  0  0
 22 23  1  0  0  0
 22 24  1  0  0  0
 24 25  2  0  0  0
  4  5  1  0  0  0
  5  6  2  0  0  0
  6  7  1  0  0  0
 30 31  1  0  0  0
 31 32  2  0  0  0
 32 33  1  0  0  0
 33 34  2  0  0  0
 34 35  1  0  0  0
 35 36  2  0  0  0
 36 39  1  0  0  0
 39 40  1  0  0  0
 40 41  1  0  0  0
 41 42  1  0  0  0
 42 43  1  0  0  0
 43 44  1  0  0  0
 44 45  1  0  0  0
 45 46  1  0  0  0
 46 47  1  0  0  0
 47 48  1  0  0  0
 36 27  1  0  0  0
 48 43  1  0  0  0
 34 29  1  0  0  0
  6  1  1  0  0  0
 14 12  1  0  0  0
 25 19  1  0  0  0
  8 11  1  0  0  0
 17 18  1  0  0  0
M  END
> <minimizedAffinity>
-6.58901

> <CNNscore>
0.0819741488

> <CNNaffinity>
6.2238397598

> <CNN_VS>
0.5101939440

> <CNNaffinity_variance>
0.1935434043

$$$$
[H]C1=C([H])C([H])(F)C([H])([H])C([H])=C1N([H])C(=O)C1(C(=O)N([H])c2c([H])c([H])c(Oc3c([H])c([H])nc4c([H])c(OC([H])([H])C([H])([H])C([H])([H])N5C([H])([H])C([H])([H])OC([H])([H])C5([H])[H])c(OC([H])([H])[H])c([H])c34)c(F)c2[H])C([H])([H])C1([H])[H]


 48 53  0  0  0  0  0  0  0  0999 V2000
  -19.0912   15.7245  -19.5571 C   0  0  0  0  0  0  0  0  0  0  0  0
  -20.4656   15.7768  -19.7435 C   0  0  0  0  0  0  0  0  0  0  0  0
  -21.0875   16.5054  -20.7133 C   0  0  0  0  0  0  0  0  0  0  0  0
  -20.3098   17.2633  -21.5960 C   0  0  0  0  0  0  0  0  0  0  0  0
  -18.9496   17.2392  -21.4479 C   0  0  0  0  0  0  0  0  0  0  0  0
  -18.3365   16.4784  -20.4390 C   0  0  0  0  0  0  0  0  0  0  0  0
  -16.9848   16.4854  -20.3739 F   0  0  0  0  0  0  0  0  0  0  0  0
  -20.9767   17.9939  -22.6426 N   0  0  0  0  0  0  0  0  0  0  0  0
  -21.4388   19.2800  -22.4812 C   0  0  0  0  0  0  0  0  0  0  0  0
  -21.2722   19.7998  -21.3040 O   0  0  0  0  0  0  0  0  0  0  0  0
  -21.0976   17.4543  -23.5132 H   0  0  0  0  0  0  0  0  0  0  0  0
  -22.1120   20.2021  -23.4274 C   0  0  0  0  0  0  0  0  0  0  0  0
  -22.0907   19.7443  -24.8760 C   0  0  0  0  0  0  0  0  0  0  0  0
  -21.1222   20.7760  -24.5168 C   0  0  0  0  0  0  0  0  0  0  0  0
  -23.1545   21.1571  -23.0499 C   0  0  0  0  0  0  0  0  0  0  0  0
  -24.2861   20.9729  -23.6932 O   0  0  0  0  0  0  0  0  0  0  0  0
  -23.2019   22.2149  -22.1500 N   0  0  0  0  0  0  0  0  0  0  0  0
  -22.4191   22.4940  -21.5363 H   0  0  0  0  0  0  0  0  0  0  0  0
  -24.4219   23.0065  -21.9894 C   0  0  0  0  0  0  0  0  0  0  0  0
  -24.5953   24.0179  -22.8097 C   0  0  0  0  0  0  0  0  0  0  0  0
  -25.7372   24.9273  -22.8204 C   0  0  0  0  0  0  0  0  0  0  0  0
  -26.7505   24.6861  -21.7705 C   0  0  0  0  0  0  0  0  0  0  0  0
  -28.0138   24.4498  -22.3706 F   0  0  0  0  0  0  0  0  0  0  0  0
  -26.4636   23.5364  -20.9106 C   0  0  0  0  0  0  0  0  0  0  0  0
  -25.4075   22.7526  -20.9888 C   0  0  0  0  0  0  0  0  0  0  0  0
  -18.5235   14.9646  -18.5581 O   0  0  0  0  0  0  0  0  0  0  0  0
  -20.7507   12.6558  -16.0130 C   0  0  0  0  0  0  0  0  0  0  0  0
  -20.0130   13.4417  -16.8549 C   0  0  0  0  0  0  0  0  0  0  0  0
  -19.1852   12.8366  -17.7757 C   0  0  0  0  0  0  0  0  0  0  0  0
  -18.4027   13.6064  -18.6633 C   0  0  0  0  0  0  0  0  0  0  0  0
  -17.5795   12.9828  -19.5712 C   0  0  0  0  0  0  0  0  0  0  0  0
  -17.5037   11.6088  -19.6338 C   0  0  0  0  0  0  0  0  0  0  0  0
  -18.2497   10.8795  -18.7892 N   0  0  0  0  0  0  0  0  0  0  0  0
  -19.0717   11.4744  -17.8808 C   0  0  0  0  0  0  0  0  0  0  0  0
  -19.8217   10.6824  -17.0247 C   0  0  0  0  0  0  0  0  0  0  0  0
  -20.6570   11.2567  -16.0968 C   0  0  0  0  0  0  0  0  0  0  0  0
  -22.3946   14.2899  -15.3410 C   0  0  0  0  0  0  0  0  0  0  0  0
  -21.6103   13.1549  -15.0534 O   0  0  0  0  0  0  0  0  0  0  0  0
  -21.4010   10.4909  -15.2600 O   0  0  0  0  0  0  0  0  0  0  0  0
  -22.6865   10.0498  -15.5065 C   0  0  0  0  0  0  0  0  0  0  0  0
  -22.8924    8.5987  -15.0947 C   0  0  0  0  0  0  0  0  0  0  0  0
  -21.7798    8.2171  -14.1091 C   0  0  0  0  0  0  0  0  0  0  0  0
  -21.4653    6.8248  -14.3102 N   0  0  0  0  0  0  0  0  0  0  0  0
  -22.1928    6.3124  -15.4948 C   0  0  0  0  0  0  0  0  0  0  0  0
  -21.6715    4.8828  -15.6674 C   0  0  0  0  0  0  0  0  0  0  0  0
  -21.0407    4.4094  -14.5170 O   0  0  0  0  0  0  0  0  0  0  0  0
  -19.8438    5.1036  -14.2512 C   0  0  0  0  0  0  0  0  0  0  0  0
  -20.0496    6.5868  -14.5861 C   0  0  0  0  0  0  0  0  0  0  0  0
 37 38  1  0  0  0
 38 27  1  0  0  0
 27 28  2  0  0  0
 28 29  1  0  0  0
 29 30  2  0  0  0
 30 26  1  0  0  0
 26  1  1  0  0  0
  1  2  2  0  0  0
  2  3  1  0  0  0
  3  4  2  0  0  0
  4  8  1  0  0  0
  8  9  1  0  0  0
  9 10  2  0  0  0
  9 12  1  0  0  0
 12 13  1  0  0  0
 13 14  1  0  0  0
 12 15  1  0  0  0
 15 16  2  0  0  0
 15 17  1  0  0  0
 17 19  1  0  0  0
 19 20  2  0  0  0
 20 21  1  0  0  0
 21 22  1  0  0  0
 22 23  1  0  0  0
 22 24  1  0  0  0
 24 25  2  0  0  0
  4  5  1  0  0  0
  5  6  2  0  0  0
  6  7  1  0  0  0
 30 31  1  0  0  0
 31 32  2  0  0  0
 32 33  1  0  0  0
 33 34  2  0  0  0
 34 35  1  0  0  0
 35 36  2  0  0  0
 36 39  1  0  0  0
 39 40  1  0  0  0
 40 41  1  0  0  0
 41 42  1  0  0  0
 42 43  1  0  0  0
 43 44  1  0  0  0
 44 45  1  0  0  0
 45 46  1  0  0  0
 46 47  1  0  0  0
 47 48  1  0  0  0
 36 27  1  0  0  0
 48 43  1  0  0  0
 34 29  1  0  0  0
  6  1  1  0  0  0
 14 12  1  0  0  0
 25 19  1  0  0  0
  8 11  1  0  0  0
 17 18  1  0  0  0
M  END
> <minimizedAffinity>
-6.79777

> <CNNscore>
0.0588369705

> <CNNaffinity>
6.1793718338

> <CNN_VS>
0.3635755181

> <CNNaffinity_variance>
0.1782010794

$$$$
[H]c1c([H])c([H])c(C([H])([H])[C@@]2([H])C(=O)N3C([H])([H])C([H])([H])C([H])([H])[C@@]3([H])C(=O)N([H])[C@]([H])(C([H])([H])c3c([H])n([H])c4c([H])c([H])c([H])c([H])c34)C(=O)N([H])[C@]([H])(C([H])([H])c3c([H])n([H])c4c([H])c([H])c([H])c([H])c34)C(=O)N([H])[C@@]([H])(C([H])([H])c3c([H])c([H])c([H])c([H])c3[H])C(=O)N([H])[C@@]([H])(C([H])(C([H])([H])[H])C([H])([H])[H])C(=O)N2[H])c([H])c1[H]


 71 78  0  0  0  0  0  0  0  0999 V2000
  -16.1932   13.6904  -21.7886 C   0  0  0  0  0  0  0  0  0  0  0  0
  -16.2066   13.5886  -20.3504 N   0  0  0  0  0  0  0  0  0  0  0  0
  -17.1151   13.0389  -19.4528 C   0  0  0  0  0  0  0  0  0  0  0  0
  -17.6544   13.8925  -18.6493 O   0  0  0  0  0  0  0  0  0  0  0  0
  -17.5911   11.6702  -19.2220 C   0  0  0  0  0  0  0  0  0  0  0  0
  -18.1771   11.4636  -17.9169 N   0  0  0  0  0  0  0  0  0  0  0  0
  -18.8398   12.2988  -17.0301 C   0  0  0  0  0  0  0  0  0  0  0  0
  -18.1634   12.6088  -15.9554 O   0  0  0  0  0  0  0  0  0  0  0  0
  -20.1710   12.9145  -17.0502 C   0  0  0  0  0  0  0  0  0  0  0  0
  -20.1697   14.1770  -16.3366 N   0  0  0  0  0  0  0  0  0  0  0  0
  -20.3755   15.4734  -16.8319 C   0  0  0  0  0  0  0  0  0  0  0  0
  -19.7828   16.3836  -16.2214 O   0  0  0  0  0  0  0  0  0  0  0  0
  -21.2160   15.8253  -17.9822 C   0  0  0  0  0  0  0  0  0  0  0  0
  -20.9089   16.9636  -18.7495 N   0  0  0  0  0  0  0  0  0  0  0  0
  -19.9528   17.3265  -19.6951 C   0  0  0  0  0  0  0  0  0  0  0  0
  -20.3715   17.5314  -20.9183 O   0  0  0  0  0  0  0  0  0  0  0  0
  -18.4965   17.5327  -19.5653 C   0  0  0  0  0  0  0  0  0  0  0  0
  -18.1253   18.5386  -18.4660 C   0  0  0  0  0  0  0  0  0  0  0  0
  -17.9048   19.8601  -19.1100 C   0  0  0  0  0  0  0  0  0  0  0  0
  -18.4136   19.5835  -20.5341 C   0  0  0  0  0  0  0  0  0  0  0  0
  -17.8690   18.2151  -20.6803 N   0  0  0  0  0  0  0  0  0  0  0  0
  -16.9439   17.7276  -21.6058 C   0  0  0  0  0  0  0  0  0  0  0  0
  -15.8066   18.3996  -21.5971 O   0  0  0  0  0  0  0  0  0  0  0  0
  -16.9347   16.6549  -22.5828 C   0  0  0  0  0  0  0  0  0  0  0  0
  -17.7975   15.5464  -22.4426 N   0  0  0  0  0  0  0  0  0  0  0  0
  -17.4216   14.1559  -22.4273 C   0  0  0  0  0  0  0  0  0  0  0  0
  -18.1857   13.2977  -22.9912 O   0  0  0  0  0  0  0  0  0  0  0  0
  -15.3048   14.0585  -19.9261 H   0  0  0  0  0  0  0  0  0  0  0  0
  -18.0652   10.4414  -17.5486 H   0  0  0  0  0  0  0  0  0  0  0  0
  -19.9742   14.0190  -15.2824 H   0  0  0  0  0  0  0  0  0  0  0  0
  -21.6079   17.7730  -18.5843 H   0  0  0  0  0  0  0  0  0  0  0  0
  -18.8199   15.6989  -22.3475 H   0  0  0  0  0  0  0  0  0  0  0  0
  -16.7249   11.4978  -22.7318 C   0  0  0  0  0  0  0  0  0  0  0  0
  -15.5744   12.4600  -22.4627 C   0  0  0  0  0  0  0  0  0  0  0  0
  -14.6992   11.7521  -21.4446 C   0  0  0  0  0  0  0  0  0  0  0  0
  -18.5229   11.1063  -20.2261 C   0  0  0  0  0  0  0  0  0  0  0  0
  -19.6416   12.0557  -20.4530 C   0  0  0  0  0  0  0  0  0  0  0  0
  -19.5334   13.4059  -20.4945 C   0  0  0  0  0  0  0  0  0  0  0  0
  -20.6373   14.2193  -20.7028 C   0  0  0  0  0  0  0  0  0  0  0  0
  -21.9004   13.7009  -20.8789 C   0  0  0  0  0  0  0  0  0  0  0  0
  -22.0332   12.3320  -20.8408 C   0  0  0  0  0  0  0  0  0  0  0  0
  -20.9317   11.5270  -20.6330 C   0  0  0  0  0  0  0  0  0  0  0  0
  -21.2758   12.0981  -16.4256 C   0  0  0  0  0  0  0  0  0  0  0  0
  -21.1345   11.7065  -15.0334 C   0  0  0  0  0  0  0  0  0  0  0  0
  -21.6218   12.4490  -13.9721 C   0  0  0  0  0  0  0  0  0  0  0  0
  -21.2938   11.8279  -12.8469 N   0  0  0  0  0  0  0  0  0  0  0  0
  -20.6062   10.6983  -13.1431 C   0  0  0  0  0  0  0  0  0  0  0  0
  -20.0636    9.7066  -12.3482 C   0  0  0  0  0  0  0  0  0  0  0  0
  -19.4326    8.6537  -12.9308 C   0  0  0  0  0  0  0  0  0  0  0  0
  -19.3090    8.5302  -14.3044 C   0  0  0  0  0  0  0  0  0  0  0  0
  -19.8416    9.5051  -15.0884 C   0  0  0  0  0  0  0  0  0  0  0  0
  -20.4982   10.6074  -14.5182 C   0  0  0  0  0  0  0  0  0  0  0  0
  -21.5232   12.1473  -11.8764 H   0  0  0  0  0  0  0  0  0  0  0  0
  -22.6412   15.8456  -17.4352 C   0  0  0  0  0  0  0  0  0  0  0  0
  -22.9690   16.9078  -16.4924 C   0  0  0  0  0  0  0  0  0  0  0  0
  -23.6531   16.6777  -15.2815 C   0  0  0  0  0  0  0  0  0  0  0  0
  -23.7335   17.8307  -14.6095 N   0  0  0  0  0  0  0  0  0  0  0  0
  -23.1449   18.8328  -15.2914 C   0  0  0  0  0  0  0  0  0  0  0  0
  -22.9725   20.1850  -15.0641 C   0  0  0  0  0  0  0  0  0  0  0  0
  -22.3349   20.9775  -15.9896 C   0  0  0  0  0  0  0  0  0  0  0  0
  -21.8561   20.4228  -17.1678 C   0  0  0  0  0  0  0  0  0  0  0  0
  -22.0421   19.0907  -17.3571 C   0  0  0  0  0  0  0  0  0  0  0  0
  -22.6740   18.2474  -16.4605 C   0  0  0  0  0  0  0  0  0  0  0  0
  -24.1925   17.9680  -13.6617 H   0  0  0  0  0  0  0  0  0  0  0  0
  -17.2610   17.3435  -23.9308 C   0  0  0  0  0  0  0  0  0  0  0  0
  -16.6515   16.6880  -25.0836 C   0  0  0  0  0  0  0  0  0  0  0  0
  -17.3865   15.7809  -25.8509 C   0  0  0  0  0  0  0  0  0  0  0  0
  -16.8434   15.1249  -26.9382 C   0  0  0  0  0  0  0  0  0  0  0  0
  -15.5328   15.3543  -27.3007 C   0  0  0  0  0  0  0  0  0  0  0  0
  -14.7875   16.2439  -26.5604 C   0  0  0  0  0  0  0  0  0  0  0  0
  -15.3464   16.8983  -25.4678 C   0  0  0  0  0  0  0  0  0  0  0  0
 33 34  1  0  0  0
 34 35  1  0  0  0
 34  1  1  0  0  0
  1  2  1  0  0  0
  2  3  1  0  0  0
  3  4  2  0  0  0
  3  5  1  0  0  0
  5 36  1  0  0  0
 36 37  1  0  0  0
 37 38  2  0  0  0
 38 39  1  0  0  0
 39 40  2  0  0  0
 40 41  1  0  0  0
 41 42  2  0  0  0
  5  6  1  0  0  0
  6  7  1  0  0  0
  7  8  2  0  0  0
  7  9  1  0  0  0
  9 43  1  0  0  0
 43 44  1  0  0  0
 44 45  2  0  0  0
 45 46  1  0  0  0
 46 47  1  0  0  0
 47 48  2  0  0  0
 48 49  1  0  0  0
 49 50  2  0  0  0
 50 51  1  0  0  0
 51 52  2  0  0  0
  9 10  1  0  0  0
 10 11  1  0  0  0
 11 12  2  0  0  0
 11 13  1  0  0  0
 13 54  1  0  0  0
 54 55  1  0  0  0
 55 56  2  0  0  0
 56 57  1  0  0  0
 57 58  1  0  0  0
 58 59  2  0  0  0
 59 60  1  0  0  0
 60 61  2  0  0  0
 61 62  1  0  0  0
 62 63  2  0  0  0
 13 14  1  0  0  0
 14 15  1  0  0  0
 15 16  2  0  0  0
 15 17  1  0  0  0
 17 18  1  0  0  0
 18 19  1  0  0  0
 19 20  1  0  0  0
 20 21  1  0  0  0
 21 22  1  0  0  0
 22 23  2  0  0  0
 22 24  1  0  0  0
 24 65  1  0  0  0
 65 66  1  0  0  0
 66 67  2  0  0  0
 67 68  1  0  0  0
 68 69  2  0  0  0
 69 70  1  0  0  0
 70 71  2  0  0  0
 24 25  1  0  0  0
 25 26  1  0  0  0
 26 27  2  0  0  0
 26  1  1  0  0  0
 42 37  1  0  0  0
 52 44  1  0  0  0
 63 55  1  0  0  0
 21 17  1  0  0  0
 71 66  1  0  0  0
 52 47  1  0  0  0
 63 58  1  0  0  0
  2 28  1  0  0  0
  6 29  1  0  0  0
 46 53  1  0  0  0
 10 30  1  0  0  0
 57 64  1  0  0  0
 14 31  1  0  0  0
 25 32  1  0  0  0
M  END
> <minimizedAffinity>
10.33000

> <CNNscore>
0.2899122834

> <CNNaffinity>
7.5801558495

> <CNN_VS>
2.1975803375

> <CNNaffinity_variance>
0.1517343521

$$$$
[H]c1c([H])c([H])c(C([H])([H])[C@@]2([H])C(=O)N3C([H])([H])C([H])([H])C([H])([H])[C@@]3([H])C(=O)N([H])[C@]([H])(C([H])([H])c3c([H])n([H])c4c([H])c([H])c([H])c([H])c34)C(=O)N([H])[C@]([H])(C([H])([H])c3c([H])n([H])c4c([H])c([H])c([H])c([H])c34)C(=O)N([H])[C@@]([H])(C([H])([H])c3c([H])c([H])c([H])c([H])c3[H])C(=O)N([H])[C@@]([H])(C([H])(C([H])([H])[H])C([H])([H])[H])C(=O)N2[H])c([H])c1[H]


 71 78  0  0  0  0  0  0  0  0999 V2000
  -17.8071   13.3340  -18.1891 C   0  0  0  0  0  0  0  0  0  0  0  0
  -18.1657   14.4657  -17.3708 N   0  0  0  0  0  0  0  0  0  0  0  0
  -19.3899   14.9864  -16.9663 C   0  0  0  0  0  0  0  0  0  0  0  0
  -19.6346   16.1755  -17.4035 O   0  0  0  0  0  0  0  0  0  0  0  0
  -20.4745   14.4600  -16.1299 C   0  0  0  0  0  0  0  0  0  0  0  0
  -21.3482   15.4775  -15.5910 N   0  0  0  0  0  0  0  0  0  0  0  0
  -21.7256   16.7368  -16.0324 C   0  0  0  0  0  0  0  0  0  0  0  0
  -21.2236   17.7326  -15.3506 O   0  0  0  0  0  0  0  0  0  0  0  0
  -22.5916   17.1885  -17.1267 C   0  0  0  0  0  0  0  0  0  0  0  0
  -22.1634   18.4801  -17.6283 N   0  0  0  0  0  0  0  0  0  0  0  0
  -21.6462   18.8122  -18.8894 C   0  0  0  0  0  0  0  0  0  0  0  0
  -20.8457   19.7668  -18.9089 O   0  0  0  0  0  0  0  0  0  0  0  0
  -21.9722   18.1378  -20.1513 C   0  0  0  0  0  0  0  0  0  0  0  0
  -21.0267   18.1090  -21.1925 N   0  0  0  0  0  0  0  0  0  0  0  0
  -19.8366   17.4403  -21.4689 C   0  0  0  0  0  0  0  0  0  0  0  0
  -19.8496   16.5842  -22.4591 O   0  0  0  0  0  0  0  0  0  0  0  0
  -18.5100   17.5249  -20.8260 C   0  0  0  0  0  0  0  0  0  0  0  0
  -17.9596   18.9571  -20.7649 C   0  0  0  0  0  0  0  0  0  0  0  0
  -17.0311   19.1402  -21.9112 C   0  0  0  0  0  0  0  0  0  0  0  0
  -17.2999   17.8588  -22.7169 C   0  0  0  0  0  0  0  0  0  0  0  0
  -17.4229   16.9252  -21.5752 N   0  0  0  0  0  0  0  0  0  0  0  0
  -16.6519   15.8026  -21.2660 C   0  0  0  0  0  0  0  0  0  0  0  0
  -15.3634   16.0766  -21.1672 O   0  0  0  0  0  0  0  0  0  0  0  0
  -16.9295   14.3983  -21.0291 C   0  0  0  0  0  0  0  0  0  0  0  0
  -18.2109   13.9784  -20.6115 N   0  0  0  0  0  0  0  0  0  0  0  0
  -18.5237   13.1817  -19.4528 C   0  0  0  0  0  0  0  0  0  0  0  0
  -19.4584   12.3107  -19.5295 O   0  0  0  0  0  0  0  0  0  0  0  0
  -17.2599   14.9924  -17.0298 H   0  0  0  0  0  0  0  0  0  0  0  0
  -21.7950   15.2021  -14.6330 H   0  0  0  0  0  0  0  0  0  0  0  0
  -22.2867   19.2438  -16.8693 H   0  0  0  0  0  0  0  0  0  0  0  0
  -21.2964   18.7618  -22.0124 H   0  0  0  0  0  0  0  0  0  0  0  0
  -19.0455   14.2382  -21.1715 H   0  0  0  0  0  0  0  0  0  0  0  0
  -16.5498   11.2444  -18.0090 C   0  0  0  0  0  0  0  0  0  0  0  0
  -17.6927   12.0344  -17.3833 C   0  0  0  0  0  0  0  0  0  0  0  0
  -18.9355   11.2035  -17.6457 C   0  0  0  0  0  0  0  0  0  0  0  0
  -21.3280   13.4052  -16.7244 C   0  0  0  0  0  0  0  0  0  0  0  0
  -21.4070   12.2492  -15.7960 C   0  0  0  0  0  0  0  0  0  0  0  0
  -20.8155   12.1736  -14.5792 C   0  0  0  0  0  0  0  0  0  0  0  0
  -20.9348   11.0466  -13.7797 C   0  0  0  0  0  0  0  0  0  0  0  0
  -21.6595    9.9458  -14.1773 C   0  0  0  0  0  0  0  0  0  0  0  0
  -22.2690   10.0011  -15.4095 C   0  0  0  0  0  0  0  0  0  0  0  0
  -22.1470   11.1247  -16.2014 C   0  0  0  0  0  0  0  0  0  0  0  0
  -24.0502   17.3538  -16.7771 C   0  0  0  0  0  0  0  0  0  0  0  0
  -24.5419   16.7121  -15.5696 C   0  0  0  0  0  0  0  0  0  0  0  0
  -25.0446   15.4234  -15.5333 C   0  0  0  0  0  0  0  0  0  0  0  0
  -25.4332   15.1651  -14.2917 N   0  0  0  0  0  0  0  0  0  0  0  0
  -25.1973   16.2496  -13.5140 C   0  0  0  0  0  0  0  0  0  0  0  0
  -25.4001   16.4884  -12.1681 C   0  0  0  0  0  0  0  0  0  0  0  0
  -25.0408   17.6881  -11.6407 C   0  0  0  0  0  0  0  0  0  0  0  0
  -24.4724   18.6939  -12.4041 C   0  0  0  0  0  0  0  0  0  0  0  0
  -24.2725   18.4613  -13.7286 C   0  0  0  0  0  0  0  0  0  0  0  0
  -24.6344   17.2333  -14.3054 C   0  0  0  0  0  0  0  0  0  0  0  0
  -25.8566   14.2700  -13.9513 H   0  0  0  0  0  0  0  0  0  0  0  0
  -23.3098   18.7350  -20.5813 C   0  0  0  0  0  0  0  0  0  0  0  0
  -23.6921   18.5563  -21.9765 C   0  0  0  0  0  0  0  0  0  0  0  0
  -24.4303   17.4466  -22.4358 C   0  0  0  0  0  0  0  0  0  0  0  0
  -24.6843   17.6110  -23.7381 N   0  0  0  0  0  0  0  0  0  0  0  0
  -24.1621   18.7669  -24.1931 C   0  0  0  0  0  0  0  0  0  0  0  0
  -24.1186   19.3876  -25.4271 C   0  0  0  0  0  0  0  0  0  0  0  0
  -23.4651   20.5868  -25.5879 C   0  0  0  0  0  0  0  0  0  0  0  0
  -22.8391   21.1880  -24.5055 C   0  0  0  0  0  0  0  0  0  0  0  0
  -22.9031   20.5505  -23.3079 C   0  0  0  0  0  0  0  0  0  0  0  0
  -23.5472   19.3455  -23.0893 C   0  0  0  0  0  0  0  0  0  0  0  0
  -25.2246   16.9378  -24.3567 H   0  0  0  0  0  0  0  0  0  0  0  0
  -16.6157   13.6997  -22.3749 C   0  0  0  0  0  0  0  0  0  0  0  0
  -16.0598   12.3590  -22.2209 C   0  0  0  0  0  0  0  0  0  0  0  0
  -14.7394   12.0947  -22.5931 C   0  0  0  0  0  0  0  0  0  0  0  0
  -14.1796   10.8371  -22.4813 C   0  0  0  0  0  0  0  0  0  0  0  0
  -14.9272    9.7881  -21.9889 C   0  0  0  0  0  0  0  0  0  0  0  0
  -16.2310   10.0231  -21.6151 C   0  0  0  0  0  0  0  0  0  0  0  0
  -16.7830   11.2943  -21.7324 C   0  0  0  0  0  0  0  0  0  0  0  0
 33 34  1  0  0  0
 34 35  1  0  0  0
 34  1  1  0  0  0
  1  2  1  0  0  0
  2  3  1  0  0  0
  3  4  2  0  0  0
  3  5  1  0  0  0
  5 36  1  0  0  0
 36 37  1  0  0  0
 37 38  2  0  0  0
 38 39  1  0  0  0
 39 40  2  0  0  0
 40 41  1  0  0  0
 41 42  2  0  0  0
  5  6  1  0  0  0
  6  7  1  0  0  0
  7  8  2  0  0  0
  7  9  1  0  0  0
  9 43  1  0  0  0
 43 44  1  0  0  0
 44 45  2  0  0  0
 45 46  1  0  0  0
 46 47  1  0  0  0
 47 48  2  0  0  0
 48 49  1  0  0  0
 49 50  2  0  0  0
 50 51  1  0  0  0
 51 52  2  0  0  0
  9 10  1  0  0  0
 10 11  1  0  0  0
 11 12  2  0  0  0
 11 13  1  0  0  0
 13 54  1  0  0  0
 54 55  1  0  0  0
 55 56  2  0  0  0
 56 57  1  0  0  0
 57 58  1  0  0  0
 58 59  2  0  0  0
 59 60  1  0  0  0
 60 61  2  0  0  0
 61 62  1  0  0  0
 62 63  2  0  0  0
 13 14  1  0  0  0
 14 15  1  0  0  0
 15 16  2  0  0  0
 15 17  1  0  0  0
 17 18  1  0  0  0
 18 19  1  0  0  0
 19 20  1  0  0  0
 20 21  1  0  0  0
 21 22  1  0  0  0
 22 23  2  0  0  0
 22 24  1  0  0  0
 24 65  1  0  0  0
 65 66  1  0  0  0
 66 67  2  0  0  0
 67 68  1  0  0  0
 68 69  2  0  0  0
 69 70  1  0  0  0
 70 71  2  0  0  0
 24 25  1  0  0  0
 25 26  1  0  0  0
 26 27  2  0  0  0
 26  1  1  0  0  0
 42 37  1  0  0  0
 52 44  1  0  0  0
 63 55  1  0  0  0
 21 17  1  0  0  0
 71 66  1  0  0  0
 52 47  1  0  0  0
 63 58  1  0  0  0
  2 28  1  0  0  0
  6 29  1  0  0  0
 46 53  1  0  0  0
 10 30  1  0  0  0
 57 64  1  0  0  0
 14 31  1  0  0  0
 25 32  1  0  0  0
M  END
> <minimizedAffinity>
-3.43687

> <CNNscore>
0.2666142881

> <CNNaffinity>
7.7081933022

> <CNN_VS>
2.0551145077

> <CNNaffinity_variance>
0.4444227815

$$$$
[H]c1c([H])c([H])c(C([H])([H])[C@@]2([H])C(=O)N3C([H])([H])C([H])([H])C([H])([H])[C@@]3([H])C(=O)N([H])[C@]([H])(C([H])([H])c3c([H])n([H])c4c([H])c([H])c([H])c([H])c34)C(=O)N([H])[C@]([H])(C([H])([H])c3c([H])n([H])c4c([H])c([H])c([H])c([H])c34)C(=O)N([H])[C@@]([H])(C([H])([H])c3c([H])c([H])c([H])c([H])c3[H])C(=O)N([H])[C@@]([H])(C([H])(C([H])([H])[H])C([H])([H])[H])C(=O)N2[H])c([H])c1[H]


 71 78  0  0  0  0  0  0  0  0999 V2000
  -19.6518   11.6480  -17.5320 C   0  0  0  0  0  0  0  0  0  0  0  0
  -20.6757   12.1558  -18.4109 N   0  0  0  0  0  0  0  0  0  0  0  0
  -20.8933   13.4046  -18.9824 C   0  0  0  0  0  0  0  0  0  0  0  0
  -21.9829   13.9825  -18.6030 O   0  0  0  0  0  0  0  0  0  0  0  0
  -20.1340   14.2113  -19.9445 C   0  0  0  0  0  0  0  0  0  0  0  0
  -20.9198   15.2242  -20.6122 N   0  0  0  0  0  0  0  0  0  0  0  0
  -22.0456   15.9470  -20.2473 C   0  0  0  0  0  0  0  0  0  0  0  0
  -23.1421   15.6126  -20.8752 O   0  0  0  0  0  0  0  0  0  0  0  0
  -22.2611   17.0328  -19.2849 C   0  0  0  0  0  0  0  0  0  0  0  0
  -23.6106   16.9964  -18.7550 N   0  0  0  0  0  0  0  0  0  0  0  0
  -24.0394   16.7451  -17.4430 C   0  0  0  0  0  0  0  0  0  0  0  0
  -25.1577   16.2063  -17.3358 O   0  0  0  0  0  0  0  0  0  0  0  0
  -23.2890   17.0639  -16.2229 C   0  0  0  0  0  0  0  0  0  0  0  0
  -23.4732   16.2851  -15.0660 N   0  0  0  0  0  0  0  0  0  0  0  0
  -23.1055   15.0167  -14.6233 C   0  0  0  0  0  0  0  0  0  0  0  0
  -22.2575   14.9550  -13.6280 O   0  0  0  0  0  0  0  0  0  0  0  0
  -23.5147   13.6761  -15.0874 C   0  0  0  0  0  0  0  0  0  0  0  0
  -25.0378   13.4815  -15.1018 C   0  0  0  0  0  0  0  0  0  0  0  0
  -25.4222   12.7837  -13.8468 C   0  0  0  0  0  0  0  0  0  0  0  0
  -24.1026   12.8418  -13.0602 C   0  0  0  0  0  0  0  0  0  0  0  0
  -23.1827   12.5857  -14.1910 N   0  0  0  0  0  0  0  0  0  0  0  0
  -22.2822   11.5345  -14.3755 C   0  0  0  0  0  0  0  0  0  0  0  0
  -22.8584   10.3476  -14.3089 O   0  0  0  0  0  0  0  0  0  0  0  0
  -20.8557   11.4339  -14.6212 C   0  0  0  0  0  0  0  0  0  0  0  0
  -20.1467   12.5107  -15.1960 N   0  0  0  0  0  0  0  0  0  0  0  0
  -19.3145   12.4677  -16.3710 C   0  0  0  0  0  0  0  0  0  0  0  0
  -18.2438   13.1684  -16.4021 O   0  0  0  0  0  0  0  0  0  0  0  0
  -21.4090   11.3657  -18.6393 H   0  0  0  0  0  0  0  0  0  0  0  0
  -20.5586   15.4614  -21.6154 H   0  0  0  0  0  0  0  0  0  0  0  0
  -24.3330   17.1977  -19.5374 H   0  0  0  0  0  0  0  0  0  0  0  0
  -24.0308   16.8091  -14.3008 H   0  0  0  0  0  0  0  0  0  0  0  0
  -20.1910   13.4497  -14.7555 H   0  0  0  0  0  0  0  0  0  0  0  0
  -18.0095    9.8370  -17.5855 C   0  0  0  0  0  0  0  0  0  0  0  0
  -18.4288   11.1203  -18.2919 C   0  0  0  0  0  0  0  0  0  0  0  0
  -17.2795   12.0862  -18.0687 C   0  0  0  0  0  0  0  0  0  0  0  0
  -18.8971   14.8582  -19.4483 C   0  0  0  0  0  0  0  0  0  0  0  0
  -17.8895   14.9032  -20.5378 C   0  0  0  0  0  0  0  0  0  0  0  0
  -17.0022   15.9052  -20.7499 C   0  0  0  0  0  0  0  0  0  0  0  0
  -16.0997   15.8688  -21.8024 C   0  0  0  0  0  0  0  0  0  0  0  0
  -16.0555   14.8148  -22.6869 C   0  0  0  0  0  0  0  0  0  0  0  0
  -16.9475   13.7860  -22.4899 C   0  0  0  0  0  0  0  0  0  0  0  0
  -17.8437   13.8272  -21.4413 C   0  0  0  0  0  0  0  0  0  0  0  0
  -22.0768   18.4292  -19.8263 C   0  0  0  0  0  0  0  0  0  0  0  0
  -20.9229   18.6895  -20.6702 C   0  0  0  0  0  0  0  0  0  0  0  0
  -19.6351   18.2913  -20.3570 C   0  0  0  0  0  0  0  0  0  0  0  0
  -18.8250   18.7158  -21.3177 N   0  0  0  0  0  0  0  0  0  0  0  0
  -19.5479   19.3800  -22.2519 C   0  0  0  0  0  0  0  0  0  0  0  0
  -19.1919   19.9918  -23.4388 C   0  0  0  0  0  0  0  0  0  0  0  0
  -20.1514   20.5750  -24.2040 C   0  0  0  0  0  0  0  0  0  0  0  0
  -21.4876   20.5821  -23.8408 C   0  0  0  0  0  0  0  0  0  0  0  0
  -21.8400   19.9813  -22.6731 C   0  0  0  0  0  0  0  0  0  0  0  0
  -20.8729   19.3713  -21.8581 C   0  0  0  0  0  0  0  0  0  0  0  0
  -17.7892   18.5684  -21.3612 H   0  0  0  0  0  0  0  0  0  0  0  0
  -23.5420   18.5503  -15.9837 C   0  0  0  0  0  0  0  0  0  0  0  0
  -22.8265   19.4861  -16.8422 C   0  0  0  0  0  0  0  0  0  0  0  0
  -23.4759   20.4574  -17.6309 C   0  0  0  0  0  0  0  0  0  0  0  0
  -22.5488   21.2035  -18.2403 N   0  0  0  0  0  0  0  0  0  0  0  0
  -21.3062   20.7973  -17.9137 C   0  0  0  0  0  0  0  0  0  0  0  0
  -20.0333   21.1989  -18.2719 C   0  0  0  0  0  0  0  0  0  0  0  0
  -18.9264   20.5488  -17.7787 C   0  0  0  0  0  0  0  0  0  0  0  0
  -19.0789   19.4766  -16.9114 C   0  0  0  0  0  0  0  0  0  0  0  0
  -20.3441   19.1103  -16.5801 C   0  0  0  0  0  0  0  0  0  0  0  0
  -21.4914   19.7288  -17.0447 C   0  0  0  0  0  0  0  0  0  0  0  0
  -22.7372   22.0157  -18.8981 H   0  0  0  0  0  0  0  0  0  0  0  0
  -20.2340   11.1426  -13.2332 C   0  0  0  0  0  0  0  0  0  0  0  0
  -19.8944    9.7379  -13.0290 C   0  0  0  0  0  0  0  0  0  0  0  0
  -19.3771    9.3069  -11.8049 C   0  0  0  0  0  0  0  0  0  0  0  0
  -19.0256    7.9911  -11.5753 C   0  0  0  0  0  0  0  0  0  0  0  0
  -19.1796    7.0498  -12.5713 C   0  0  0  0  0  0  0  0  0  0  0  0
  -19.6875    7.4497  -13.7867 C   0  0  0  0  0  0  0  0  0  0  0  0
  -20.0379    8.7778  -14.0051 C   0  0  0  0  0  0  0  0  0  0  0  0
 33 34  1  0  0  0
 34 35  1  0  0  0
 34  1  1  0  0  0
  1  2  1  0  0  0
  2  3  1  0  0  0
  3  4  2  0  0  0
  3  5  1  0  0  0
  5 36  1  0  0  0
 36 37  1  0  0  0
 37 38  2  0  0  0
 38 39  1  0  0  0
 39 40  2  0  0  0
 40 41  1  0  0  0
 41 42  2  0  0  0
  5  6  1  0  0  0
  6  7  1  0  0  0
  7  8  2  0  0  0
  7  9  1  0  0  0
  9 43  1  0  0  0
 43 44  1  0  0  0
 44 45  2  0  0  0
 45 46  1  0  0  0
 46 47  1  0  0  0
 47 48  2  0  0  0
 48 49  1  0  0  0
 49 50  2  0  0  0
 50 51  1  0  0  0
 51 52  2  0  0  0
  9 10  1  0  0  0
 10 11  1  0  0  0
 11 12  2  0  0  0
 11 13  1  0  0  0
 13 54  1  0  0  0
 54 55  1  0  0  0
 55 56  2  0  0  0
 56 57  1  0  0  0
 57 58  1  0  0  0
 58 59  2  0  0  0
 59 60  1  0  0  0
 60 61  2  0  0  0
 61 62  1  0  0  0
 62 63  2  0  0  0
 13 14  1  0  0  0
 14 15  1  0  0  0
 15 16  2  0  0  0
 15 17  1  0  0  0
 17 18  1  0  0  0
 18 19  1  0  0  0
 19 20  1  0  0  0
 20 21  1  0  0  0
 21 22  1  0  0  0
 22 23  2  0  0  0
 22 24  1  0  0  0
 24 65  1  0  0  0
 65 66  1  0  0  0
 66 67  2  0  0  0
 67 68  1  0  0  0
 68 69  2  0  0  0
 69 70  1  0  0  0
 70 71  2  0  0  0
 24 25  1  0  0  0
 25 26  1  0  0  0
 26 27  2  0  0  0
 26  1  1  0  0  0
 42 37  1  0  0  0
 52 44  1  0  0  0
 63 55  1  0  0  0
 21 17  1  0  0  0
 71 66  1  0  0  0
 52 47  1  0  0  0
 63 58  1  0  0  0
  2 28  1  0  0  0
  6 29  1  0  0  0
 46 53  1  0  0  0
 10 30  1  0  0  0
 57 64  1  0  0  0
 14 31  1  0  0  0
 25 32  1  0  0  0
M  END
> <minimizedAffinity>
-4.88928

> <CNNscore>
0.2649070024

> <CNNaffinity>
7.4565124512

> <CNN_VS>
1.9752823114

> <CNNaffinity_variance>
0.5976995826

$$$$
[H]c1c([H])c([H])c(C([H])([H])[C@@]2([H])C(=O)N3C([H])([H])C([H])([H])C([H])([H])[C@@]3([H])C(=O)N([H])[C@]([H])(C([H])([H])c3c([H])n([H])c4c([H])c([H])c([H])c([H])c34)C(=O)N([H])[C@]([H])(C([H])([H])c3c([H])n([H])c4c([H])c([H])c([H])c([H])c34)C(=O)N([H])[C@@]([H])(C([H])([H])c3c([H])c([H])c([H])c([H])c3[H])C(=O)N([H])[C@@]([H])(C([H])(C([H])([H])[H])C([H])([H])[H])C(=O)N2[H])c([H])c1[H]


 71 78  0  0  0  0  0  0  0  0999 V2000
  -19.7192   11.2099  -16.7989 C   0  0  0  0  0  0  0  0  0  0  0  0
  -20.6270   11.8739  -17.7010 N   0  0  0  0  0  0  0  0  0  0  0  0
  -20.6492   13.1541  -18.2432 C   0  0  0  0  0  0  0  0  0  0  0  0
  -21.6654   13.8660  -17.8890 O   0  0  0  0  0  0  0  0  0  0  0  0
  -19.7476   13.8726  -19.1510 C   0  0  0  0  0  0  0  0  0  0  0  0
  -20.3601   14.9992  -19.8181 N   0  0  0  0  0  0  0  0  0  0  0  0
  -21.3921   15.8599  -19.4755 C   0  0  0  0  0  0  0  0  0  0  0  0
  -22.4963   15.6936  -20.1548 O   0  0  0  0  0  0  0  0  0  0  0  0
  -21.4989   16.9413  -18.4903 C   0  0  0  0  0  0  0  0  0  0  0  0
  -22.8620   17.0768  -18.0140 N   0  0  0  0  0  0  0  0  0  0  0  0
  -23.3758   16.8547  -16.7276 C   0  0  0  0  0  0  0  0  0  0  0  0
  -24.5603   16.4712  -16.6795 O   0  0  0  0  0  0  0  0  0  0  0  0
  -22.6413   17.0385  -15.4705 C   0  0  0  0  0  0  0  0  0  0  0  0
  -22.9779   16.2644  -14.3452 N   0  0  0  0  0  0  0  0  0  0  0  0
  -22.8044   14.9474  -13.9265 C   0  0  0  0  0  0  0  0  0  0  0  0
  -22.0152   14.7464  -12.9015 O   0  0  0  0  0  0  0  0  0  0  0  0
  -23.3714   13.6868  -14.4456 C   0  0  0  0  0  0  0  0  0  0  0  0
  -24.9049   13.7024  -14.5243 C   0  0  0  0  0  0  0  0  0  0  0  0
  -25.4328   13.0335  -13.3063 C   0  0  0  0  0  0  0  0  0  0  0  0
  -24.1518   12.8919  -12.4681 C   0  0  0  0  0  0  0  0  0  0  0  0
  -23.2283   12.5400  -13.5698 N   0  0  0  0  0  0  0  0  0  0  0  0
  -22.4715   11.3804  -13.7507 C   0  0  0  0  0  0  0  0  0  0  0  0
  -23.2054   10.2821  -13.7415 O   0  0  0  0  0  0  0  0  0  0  0  0
  -21.0627   11.0920  -13.9441 C   0  0  0  0  0  0  0  0  0  0  0  0
  -20.1908   12.0754  -14.4591 N   0  0  0  0  0  0  0  0  0  0  0  0
  -19.3232   11.9476  -15.6019 C   0  0  0  0  0  0  0  0  0  0  0  0
  -18.1672   12.4960  -15.5710 O   0  0  0  0  0  0  0  0  0  0  0  0
  -21.4503   11.1970  -17.9808 H   0  0  0  0  0  0  0  0  0  0  0  0
  -19.9282   15.2090  -20.7992 H   0  0  0  0  0  0  0  0  0  0  0  0
  -23.5169   17.3936  -18.8173 H   0  0  0  0  0  0  0  0  0  0  0  0
  -23.4911   16.8410  -13.5868 H   0  0  0  0  0  0  0  0  0  0  0  0
  -20.1260   13.0007  -13.9929 H   0  0  0  0  0  0  0  0  0  0  0  0
  -18.7701   10.7892  -19.0129 C   0  0  0  0  0  0  0  0  0  0  0  0
  -18.5481   10.5387  -17.5264 C   0  0  0  0  0  0  0  0  0  0  0  0
  -18.6830    9.0365  -17.3559 C   0  0  0  0  0  0  0  0  0  0  0  0
  -18.4566   14.3324  -18.5886 C   0  0  0  0  0  0  0  0  0  0  0  0
  -17.7444   15.1608  -19.5940 C   0  0  0  0  0  0  0  0  0  0  0  0
  -17.2659   14.7195  -20.7826 C   0  0  0  0  0  0  0  0  0  0  0  0
  -16.6019   15.5642  -21.6597 C   0  0  0  0  0  0  0  0  0  0  0  0
  -16.3936   16.8942  -21.3718 C   0  0  0  0  0  0  0  0  0  0  0  0
  -16.8717   17.3636  -20.1702 C   0  0  0  0  0  0  0  0  0  0  0  0
  -17.5314   16.5191  -19.3008 C   0  0  0  0  0  0  0  0  0  0  0  0
  -21.1045   18.3122  -18.9826 C   0  0  0  0  0  0  0  0  0  0  0  0
  -21.9563   18.9572  -19.9674 C   0  0  0  0  0  0  0  0  0  0  0  0
  -21.7053   18.9441  -21.3282 C   0  0  0  0  0  0  0  0  0  0  0  0
  -22.6530   19.6498  -21.9310 N   0  0  0  0  0  0  0  0  0  0  0  0
  -23.5181   20.1234  -21.0017 C   0  0  0  0  0  0  0  0  0  0  0  0
  -24.6663   20.8854  -21.1053 C   0  0  0  0  0  0  0  0  0  0  0  0
  -25.3628   21.2006  -19.9820 C   0  0  0  0  0  0  0  0  0  0  0  0
  -24.9664   20.7852  -18.7220 C   0  0  0  0  0  0  0  0  0  0  0  0
  -23.8366   20.0359  -18.6176 C   0  0  0  0  0  0  0  0  0  0  0  0
  -23.0926   19.6944  -19.7584 C   0  0  0  0  0  0  0  0  0  0  0  0
  -22.7333   19.8221  -22.9607 H   0  0  0  0  0  0  0  0  0  0  0  0
  -22.7005   18.5393  -15.1972 C   0  0  0  0  0  0  0  0  0  0  0  0
  -23.4544   18.9653  -14.0247 C   0  0  0  0  0  0  0  0  0  0  0  0
  -24.8052   18.6227  -13.8123 C   0  0  0  0  0  0  0  0  0  0  0  0
  -25.1847   19.0963  -12.6210 N   0  0  0  0  0  0  0  0  0  0  0  0
  -24.1722   19.7418  -12.0096 C   0  0  0  0  0  0  0  0  0  0  0  0
  -24.0404   20.4153  -10.8100 C   0  0  0  0  0  0  0  0  0  0  0  0
  -22.8508   21.0137  -10.4670 C   0  0  0  0  0  0  0  0  0  0  0  0
  -21.7650   20.9464  -11.3282 C   0  0  0  0  0  0  0  0  0  0  0  0
  -21.9301   20.2754  -12.4976 C   0  0  0  0  0  0  0  0  0  0  0  0
  -23.1020   19.6545  -12.8918 C   0  0  0  0  0  0  0  0  0  0  0  0
  -26.1486   18.9913  -12.1878 H   0  0  0  0  0  0  0  0  0  0  0  0
  -20.5452   10.6850  -12.5425 C   0  0  0  0  0  0  0  0  0  0  0  0
  -20.2565    9.2598  -12.4181 C   0  0  0  0  0  0  0  0  0  0  0  0
  -20.3239    8.4251  -13.5364 C   0  0  0  0  0  0  0  0  0  0  0  0
  -20.0765    7.0684  -13.4598 C   0  0  0  0  0  0  0  0  0  0  0  0
  -19.7500    6.4918  -12.2503 C   0  0  0  0  0  0  0  0  0  0  0  0
  -19.6771    7.2933  -11.1336 C   0  0  0  0  0  0  0  0  0  0  0  0
  -19.9283    8.6583  -11.2241 C   0  0  0  0  0  0  0  0  0  0  0  0
 33 34  1  0  0  0
 34 35  1  0  0  0
 34  1  1  0  0  0
  1  2  1  0  0  0
  2  3  1  0  0  0
  3  4  2  0  0  0
  3  5  1  0  0  0
  5 36  1  0  0  0
 36 37  1  0  0  0
 37 38  2  0  0  0
 38 39  1  0  0  0
 39 40  2  0  0  0
 40 41  1  0  0  0
 41 42  2  0  0  0
  5  6  1  0  0  0
  6  7  1  0  0  0
  7  8  2  0  0  0
  7  9  1  0  0  0
  9 43  1  0  0  0
 43 44  1  0  0  0
 44 45  2  0  0  0
 45 46  1  0  0  0
 46 47  1  0  0  0
 47 48  2  0  0  0
 48 49  1  0  0  0
 49 50  2  0  0  0
 50 51  1  0  0  0
 51 52  2  0  0  0
  9 10  1  0  0  0
 10 11  1  0  0  0
 11 12  2  0  0  0
 11 13  1  0  0  0
 13 54  1  0  0  0
 54 55  1  0  0  0
 55 56  2  0  0  0
 56 57  1  0  0  0
 57 58  1  0  0  0
 58 59  2  0  0  0
 59 60  1  0  0  0
 60 61  2  0  0  0
 61 62  1  0  0  0
 62 63  2  0  0  0
 13 14  1  0  0  0
 14 15  1  0  0  0
 15 16  2  0  0  0
 15 17  1  0  0  0
 17 18  1  0  0  0
 18 19  1  0  0  0
 19 20  1  0  0  0
 20 21  1  0  0  0
 21 22  1  0  0  0
 22 23  2  0  0  0
 22 24  1  0  0  0
 24 65  1  0  0  0
 65 66  1  0  0  0
 66 67  2  0  0  0
 67 68  1  0  0  0
 68 69  2  0  0  0
 69 70  1  0  0  0
 70 71  2  0  0  0
 24 25  1  0  0  0
 25 26  1  0  0  0
 26 27  2  0  0  0
 26  1  1  0  0  0
 42 37  1  0  0  0
 52 44  1  0  0  0
 63 55  1  0  0  0
 21 17  1  0  0  0
 71 66  1  0  0  0
 52 47  1  0  0  0
 63 58  1  0  0  0
  2 28  1  0  0  0
  6 29  1  0  0  0
 46 53  1  0  0  0
 10 30  1  0  0  0
 57 64  1  0  0  0
 14 31  1  0  0  0
 25 32  1  0  0  0
M  END
> <minimizedAffinity>
-4.09100

> <CNNscore>
0.2602241039

> <CNNaffinity>
7.7026138306

> <CNN_VS>
2.0044057369

> <CNNaffinity_variance>
0.8040429950

$$$$
[H]c1c([H])c([H])c(C([H])([H])[C@@]2([H])C(=O)N3C([H])([H])C([H])([H])C([H])([H])[C@@]3([H])C(=O)N([H])[C@]([H])(C([H])([H])c3c([H])n([H])c4c([H])c([H])c([H])c([H])c34)C(=O)N([H])[C@]([H])(C([H])([H])c3c([H])n([H])c4c([H])c([H])c([H])c([H])c34)C(=O)N([H])[C@@]([H])(C([H])([H])c3c([H])c([H])c([H])c([H])c3[H])C(=O)N([H])[C@@]([H])(C([H])(C([H])([H])[H])C([H])([H])[H])C(=O)N2[H])c([H])c1[H]


 71 78  0  0  0  0  0  0  0  0999 V2000
  -18.5764   11.4021  -20.0973 C   0  0  0  0  0  0  0  0  0  0  0  0
  -19.4905   12.3979  -20.5991 N   0  0  0  0  0  0  0  0  0  0  0  0
  -19.3625   13.7625  -20.8330 C   0  0  0  0  0  0  0  0  0  0  0  0
  -20.1313   14.5027  -20.1076 O   0  0  0  0  0  0  0  0  0  0  0  0
  -18.5273   14.5472  -21.7495 C   0  0  0  0  0  0  0  0  0  0  0  0
  -19.0212   15.8827  -21.9976 N   0  0  0  0  0  0  0  0  0  0  0  0
  -19.7779   16.7704  -21.2475 C   0  0  0  0  0  0  0  0  0  0  0  0
  -21.0023   16.9445  -21.6706 O   0  0  0  0  0  0  0  0  0  0  0  0
  -19.4787   17.5716  -20.0558 C   0  0  0  0  0  0  0  0  0  0  0  0
  -20.6714   17.7802  -19.2578 N   0  0  0  0  0  0  0  0  0  0  0  0
  -20.9634   17.3181  -17.9657 C   0  0  0  0  0  0  0  0  0  0  0  0
  -22.1689   17.1124  -17.7269 O   0  0  0  0  0  0  0  0  0  0  0  0
  -19.9806   17.0689  -16.9049 C   0  0  0  0  0  0  0  0  0  0  0  0
  -20.2420   16.0935  -15.9255 N   0  0  0  0  0  0  0  0  0  0  0  0
  -20.2554   14.7027  -15.8517 C   0  0  0  0  0  0  0  0  0  0  0  0
  -19.3404   14.1362  -15.1064 O   0  0  0  0  0  0  0  0  0  0  0  0
  -21.1488   13.7111  -16.4831 C   0  0  0  0  0  0  0  0  0  0  0  0
  -22.6352   13.9702  -16.1975 C   0  0  0  0  0  0  0  0  0  0  0  0
  -23.0421   13.1001  -15.0631 C   0  0  0  0  0  0  0  0  0  0  0  0
  -21.6782   12.5655  -14.5966 C   0  0  0  0  0  0  0  0  0  0  0  0
  -21.0703   12.3721  -15.9321 N   0  0  0  0  0  0  0  0  0  0  0  0
  -20.6063   11.1979  -16.5289 C   0  0  0  0  0  0  0  0  0  0  0  0
  -21.5272   10.2525  -16.5854 O   0  0  0  0  0  0  0  0  0  0  0  0
  -19.3458   10.7648  -17.1023 C   0  0  0  0  0  0  0  0  0  0  0  0
  -18.4116   11.7080  -17.5823 N   0  0  0  0  0  0  0  0  0  0  0  0
  -17.8212   11.7475  -18.8956 C   0  0  0  0  0  0  0  0  0  0  0  0
  -16.5954   12.0951  -19.0174 O   0  0  0  0  0  0  0  0  0  0  0  0
  -20.4692   11.9416  -20.8183 H   0  0  0  0  0  0  0  0  0  0  0  0
  -18.7520   16.2681  -22.9836 H   0  0  0  0  0  0  0  0  0  0  0  0
  -21.3921   18.3820  -19.7992 H   0  0  0  0  0  0  0  0  0  0  0  0
  -20.4766   16.5285  -14.9628 H   0  0  0  0  0  0  0  0  0  0  0  0
  -18.0774   12.4658  -16.9564 H   0  0  0  0  0  0  0  0  0  0  0  0
  -16.2762   11.1288  -20.8811 C   0  0  0  0  0  0  0  0  0  0  0  0
  -17.7221   10.7726  -21.2042 C   0  0  0  0  0  0  0  0  0  0  0  0
  -18.0244   11.4948  -22.5044 C   0  0  0  0  0  0  0  0  0  0  0  0
  -17.0877   14.6560  -21.4177 C   0  0  0  0  0  0  0  0  0  0  0  0
  -16.3036   14.8392  -22.6651 C   0  0  0  0  0  0  0  0  0  0  0  0
  -15.7469   13.8457  -23.3993 C   0  0  0  0  0  0  0  0  0  0  0  0
  -15.0196   14.1099  -24.5504 C   0  0  0  0  0  0  0  0  0  0  0  0
  -14.8244   15.3930  -25.0093 C   0  0  0  0  0  0  0  0  0  0  0  0
  -15.3814   16.4174  -24.2792 C   0  0  0  0  0  0  0  0  0  0  0  0
  -16.1040   16.1493  -23.1344 C   0  0  0  0  0  0  0  0  0  0  0  0
  -18.9227   18.9494  -20.3200 C   0  0  0  0  0  0  0  0  0  0  0  0
  -19.1730   19.5512  -21.6187 C   0  0  0  0  0  0  0  0  0  0  0  0
  -18.1986   19.7281  -22.5853 C   0  0  0  0  0  0  0  0  0  0  0  0
  -18.7539   20.3320  -23.6276 N   0  0  0  0  0  0  0  0  0  0  0  0
  -20.0657   20.5540  -23.3698 C   0  0  0  0  0  0  0  0  0  0  0  0
  -21.0753   21.1258  -24.1204 C   0  0  0  0  0  0  0  0  0  0  0  0
  -22.3310   21.1986  -23.6063 C   0  0  0  0  0  0  0  0  0  0  0  0
  -22.6461   20.7178  -22.3465 C   0  0  0  0  0  0  0  0  0  0  0  0
  -21.6541   20.1554  -21.6061 C   0  0  0  0  0  0  0  0  0  0  0  0
  -20.3454   20.0663  -22.1070 C   0  0  0  0  0  0  0  0  0  0  0  0
  -18.2686   20.6007  -24.5157 H   0  0  0  0  0  0  0  0  0  0  0  0
  -19.6888   18.4440  -16.3093 C   0  0  0  0  0  0  0  0  0  0  0  0
  -20.2471   18.7223  -14.9919 C   0  0  0  0  0  0  0  0  0  0  0  0
  -19.5260   18.5340  -13.7953 C   0  0  0  0  0  0  0  0  0  0  0  0
  -20.2802   18.9471  -12.7716 N   0  0  0  0  0  0  0  0  0  0  0  0
  -21.4728   19.4051  -13.2002 C   0  0  0  0  0  0  0  0  0  0  0  0
  -22.5954   19.9110  -12.5728 C   0  0  0  0  0  0  0  0  0  0  0  0
  -23.7025   20.2777  -13.3014 C   0  0  0  0  0  0  0  0  0  0  0  0
  -23.7023   20.1418  -14.6822 C   0  0  0  0  0  0  0  0  0  0  0  0
  -22.5817   19.6425  -15.2651 C   0  0  0  0  0  0  0  0  0  0  0  0
  -21.4410   19.2599  -14.5819 C   0  0  0  0  0  0  0  0  0  0  0  0
  -20.0019   18.9300  -11.7468 H   0  0  0  0  0  0  0  0  0  0  0  0
  -18.6607    9.9459  -15.9807 C   0  0  0  0  0  0  0  0  0  0  0  0
  -19.4975    9.7600  -14.7995 C   0  0  0  0  0  0  0  0  0  0  0  0
  -20.4478    8.7366  -14.7609 C   0  0  0  0  0  0  0  0  0  0  0  0
  -21.2724    8.5369  -13.6711 C   0  0  0  0  0  0  0  0  0  0  0  0
  -21.1759    9.3615  -12.5700 C   0  0  0  0  0  0  0  0  0  0  0  0
  -20.2470   10.3773  -12.5837 C   0  0  0  0  0  0  0  0  0  0  0  0
  -19.4223   10.5677  -13.6873 C   0  0  0  0  0  0  0  0  0  0  0  0
 33 34  1  0  0  0
 34 35  1  0  0  0
 34  1  1  0  0  0
  1  2  1  0  0  0
  2  3  1  0  0  0
  3  4  2  0  0  0
  3  5  1  0  0  0
  5 36  1  0  0  0
 36 37  1  0  0  0
 37 38  2  0  0  0
 38 39  1  0  0  0
 39 40  2  0  0  0
 40 41  1  0  0  0
 41 42  2  0  0  0
  5  6  1  0  0  0
  6  7  1  0  0  0
  7  8  2  0  0  0
  7  9  1  0  0  0
  9 43  1  0  0  0
 43 44  1  0  0  0
 44 45  2  0  0  0
 45 46  1  0  0  0
 46 47  1  0  0  0
 47 48  2  0  0  0
 48 49  1  0  0  0
 49 50  2  0  0  0
 50 51  1  0  0  0
 51 52  2  0  0  0
  9 10  1  0  0  0
 10 11  1  0  0  0
 11 12  2  0  0  0
 11 13  1  0  0  0
 13 54  1  0  0  0
 54 55  1  0  0  0
 55 56  2  0  0  0
 56 57  1  0  0  0
 57 58  1  0  0  0
 58 59  2  0  0  0
 59 60  1  0  0  0
 60 61  2  0  0  0
 61 62  1  0  0  0
 62 63  2  0  0  0
 13 14  1  0  0  0
 14 15  1  0  0  0
 15 16  2  0  0  0
 15 17  1  0  0  0
 17 18  1  0  0  0
 18 19  1  0  0  0
 19 20  1  0  0  0
 20 21  1  0  0  0
 21 22  1  0  0  0
 22 23  2  0  0  0
 22 24  1  0  0  0
 24 65  1  0  0  0
 65 66  1  0  0  0
 66 67  2  0  0  0
 67 68  1  0  0  0
 68 69  2  0  0  0
 69 70  1  0  0  0
 70 71  2  0  0  0
 24 25  1  0  0  0
 25 26  1  0  0  0
 26 27  2  0  0  0
 26  1  1  0  0  0
 42 37  1  0  0  0
 52 44  1  0  0  0
 63 55  1  0  0  0
 21 17  1  0  0  0
 71 66  1  0  0  0
 52 47  1  0  0  0
 63 58  1  0  0  0
  2 28  1  0  0  0
  6 29  1  0  0  0
 46 53  1  0  0  0
 10 30  1  0  0  0
 57 64  1  0  0  0
 14 31  1  0  0  0
 25 32  1  0  0  0
M  END
> <minimizedAffinity>
-5.39597

> <CNNscore>
0.2341644466

> <CNNaffinity>
8.0138769150

> <CNN_VS>
1.8765650988

> <CNNaffinity_variance>
0.3776639402

$$$$
[H]c1c([H])c([H])c(C([H])([H])[C@@]2([H])C(=O)N3C([H])([H])C([H])([H])C([H])([H])[C@@]3([H])C(=O)N([H])[C@]([H])(C([H])([H])c3c([H])n([H])c4c([H])c([H])c([H])c([H])c34)C(=O)N([H])[C@]([H])(C([H])([H])c3c([H])n([H])c4c([H])c([H])c([H])c([H])c34)C(=O)N([H])[C@@]([H])(C([H])([H])c3c([H])c([H])c([H])c([H])c3[H])C(=O)N([H])[C@@]([H])(C([H])(C([H])([H])[H])C([H])([H])[H])C(=O)N2[H])c([H])c1[H]


 71 78  0  0  0  0  0  0  0  0999 V2000
  -18.6729   11.6291  -20.9990 C   0  0  0  0  0  0  0  0  0  0  0  0
  -19.8973   12.3789  -21.1313 N   0  0  0  0  0  0  0  0  0  0  0  0
  -20.1676   13.7421  -21.1776 C   0  0  0  0  0  0  0  0  0  0  0  0
  -20.8856   14.1773  -20.1977 O   0  0  0  0  0  0  0  0  0  0  0  0
  -19.8058   14.8029  -22.1247 C   0  0  0  0  0  0  0  0  0  0  0  0
  -20.6553   15.9701  -22.0529 N   0  0  0  0  0  0  0  0  0  0  0  0
  -21.3916   16.5478  -21.0295 C   0  0  0  0  0  0  0  0  0  0  0  0
  -22.6874   16.4188  -21.1428 O   0  0  0  0  0  0  0  0  0  0  0  0
  -21.0066   17.2906  -19.8247 C   0  0  0  0  0  0  0  0  0  0  0  0
  -21.9745   17.0947  -18.7627 N   0  0  0  0  0  0  0  0  0  0  0  0
  -21.8113   16.4573  -17.5235 C   0  0  0  0  0  0  0  0  0  0  0  0
  -22.8309   15.9108  -17.0606 O   0  0  0  0  0  0  0  0  0  0  0  0
  -20.5635   16.3917  -16.7541 C   0  0  0  0  0  0  0  0  0  0  0  0
  -20.3256   15.2988  -15.9010 N   0  0  0  0  0  0  0  0  0  0  0  0
  -19.9817   13.9560  -16.0381 C   0  0  0  0  0  0  0  0  0  0  0  0
  -18.7996   13.5960  -15.6061 O   0  0  0  0  0  0  0  0  0  0  0  0
  -20.7365   12.8189  -16.6016 C   0  0  0  0  0  0  0  0  0  0  0  0
  -22.1205   12.6371  -15.9615 C   0  0  0  0  0  0  0  0  0  0  0  0
  -22.0054   11.5916  -14.9111 C   0  0  0  0  0  0  0  0  0  0  0  0
  -20.4805   11.4092  -14.8413 C   0  0  0  0  0  0  0  0  0  0  0  0
  -20.1993   11.5084  -16.2910 N   0  0  0  0  0  0  0  0  0  0  0  0
  -19.6292   10.5630  -17.1461 C   0  0  0  0  0  0  0  0  0  0  0  0
  -20.2766    9.4114  -17.1425 O   0  0  0  0  0  0  0  0  0  0  0  0
  -18.4869   10.5423  -18.0405 C   0  0  0  0  0  0  0  0  0  0  0  0
  -17.9612   11.7430  -18.5645 N   0  0  0  0  0  0  0  0  0  0  0  0
  -17.7474   12.0586  -19.9536 C   0  0  0  0  0  0  0  0  0  0  0  0
  -16.7139   12.7362  -20.2867 O   0  0  0  0  0  0  0  0  0  0  0  0
  -20.7586   11.6948  -21.1976 H   0  0  0  0  0  0  0  0  0  0  0  0
  -20.7443   16.5004  -23.0037 H   0  0  0  0  0  0  0  0  0  0  0  0
  -22.9319   17.5232  -19.0354 H   0  0  0  0  0  0  0  0  0  0  0  0
  -20.4094   15.5659  -14.8556 H   0  0  0  0  0  0  0  0  0  0  0  0
  -17.6750   12.5043  -17.9193 H   0  0  0  0  0  0  0  0  0  0  0  0
  -16.7707   12.2595  -22.4004 C   0  0  0  0  0  0  0  0  0  0  0  0
  -17.9974   11.3572  -22.3485 C   0  0  0  0  0  0  0  0  0  0  0  0
  -18.9104   11.8703  -23.4470 C   0  0  0  0  0  0  0  0  0  0  0  0
  -18.4000   15.2695  -22.1035 C   0  0  0  0  0  0  0  0  0  0  0  0
  -17.9228   15.4694  -23.4952 C   0  0  0  0  0  0  0  0  0  0  0  0
  -18.1413   14.6251  -24.5323 C   0  0  0  0  0  0  0  0  0  0  0  0
  -17.6479   14.8871  -25.8018 C   0  0  0  0  0  0  0  0  0  0  0  0
  -16.9113   16.0170  -26.0772 C   0  0  0  0  0  0  0  0  0  0  0  0
  -16.6776   16.8885  -25.0385 C   0  0  0  0  0  0  0  0  0  0  0  0
  -17.1705   16.6230  -23.7772 C   0  0  0  0  0  0  0  0  0  0  0  0
  -20.8867   18.7856  -19.9919 C   0  0  0  0  0  0  0  0  0  0  0  0
  -22.0985   19.5832  -19.9083 C   0  0  0  0  0  0  0  0  0  0  0  0
  -22.4427   20.5582  -20.8280 C   0  0  0  0  0  0  0  0  0  0  0  0
  -23.5832   21.1117  -20.4377 N   0  0  0  0  0  0  0  0  0  0  0  0
  -23.9954   20.5245  -19.2880 C   0  0  0  0  0  0  0  0  0  0  0  0
  -25.1100   20.7184  -18.4944 C   0  0  0  0  0  0  0  0  0  0  0  0
  -25.2815   19.9534  -17.3846 C   0  0  0  0  0  0  0  0  0  0  0  0
  -24.3758   18.9750  -17.0106 C   0  0  0  0  0  0  0  0  0  0  0  0
  -23.2782   18.7829  -17.7896 C   0  0  0  0  0  0  0  0  0  0  0  0
  -23.0699   19.5578  -18.9419 C   0  0  0  0  0  0  0  0  0  0  0  0
  -24.0958   21.8810  -20.9295 H   0  0  0  0  0  0  0  0  0  0  0  0
  -20.4746   17.7356  -16.0352 C   0  0  0  0  0  0  0  0  0  0  0  0
  -20.8992   17.7653  -14.6411 C   0  0  0  0  0  0  0  0  0  0  0  0
  -20.0320   18.0946  -13.5795 C   0  0  0  0  0  0  0  0  0  0  0  0
  -20.7338   18.1069  -12.4417 N   0  0  0  0  0  0  0  0  0  0  0  0
  -22.0278   17.8049  -12.6653 C   0  0  0  0  0  0  0  0  0  0  0  0
  -23.1401   17.6628  -11.8576 C   0  0  0  0  0  0  0  0  0  0  0  0
  -24.3562   17.3079  -12.3924 C   0  0  0  0  0  0  0  0  0  0  0  0
  -24.4781   17.0875  -13.7568 C   0  0  0  0  0  0  0  0  0  0  0  0
  -23.3647   17.2374  -14.5202 C   0  0  0  0  0  0  0  0  0  0  0  0
  -22.1185   17.5938  -14.0359 C   0  0  0  0  0  0  0  0  0  0  0  0
  -20.3495   18.3241  -11.4757 H   0  0  0  0  0  0  0  0  0  0  0  0
  -17.3643    9.8443  -17.2338 C   0  0  0  0  0  0  0  0  0  0  0  0
  -16.0224   10.2906  -17.5946 C   0  0  0  0  0  0  0  0  0  0  0  0
  -15.6987   10.5489  -18.9289 C   0  0  0  0  0  0  0  0  0  0  0  0
  -14.4367   10.9551  -19.3161 C   0  0  0  0  0  0  0  0  0  0  0  0
  -13.4431   11.1188  -18.3739 C   0  0  0  0  0  0  0  0  0  0  0  0
  -13.7372   10.8705  -17.0523 C   0  0  0  0  0  0  0  0  0  0  0  0
  -15.0122   10.4622  -16.6753 C   0  0  0  0  0  0  0  0  0  0  0  0
 33 34  1  0  0  0
 34 35  1  0  0  0
 34  1  1  0  0  0
  1  2  1  0  0  0
  2  3  1  0  0  0
  3  4  2  0  0  0
  3  5  1  0  0  0
  5 36  1  0  0  0
 36 37  1  0  0  0
 37 38  2  0  0  0
 38 39  1  0  0  0
 39 40  2  0  0  0
 40 41  1  0  0  0
 41 42  2  0  0  0
  5  6  1  0  0  0
  6  7  1  0  0  0
  7  8  2  0  0  0
  7  9  1  0  0  0
  9 43  1  0  0  0
 43 44  1  0  0  0
 44 45  2  0  0  0
 45 46  1  0  0  0
 46 47  1  0  0  0
 47 48  2  0  0  0
 48 49  1  0  0  0
 49 50  2  0  0  0
 50 51  1  0  0  0
 51 52  2  0  0  0
  9 10  1  0  0  0
 10 11  1  0  0  0
 11 12  2  0  0  0
 11 13  1  0  0  0
 13 54  1  0  0  0
 54 55  1  0  0  0
 55 56  2  0  0  0
 56 57  1  0  0  0
 57 58  1  0  0  0
 58 59  2  0  0  0
 59 60  1  0  0  0
 60 61  2  0  0  0
 61 62  1  0  0  0
 62 63  2  0  0  0
 13 14  1  0  0  0
 14 15  1  0  0  0
 15 16  2  0  0  0
 15 17  1  0  0  0
 17 18  1  0  0  0
 18 19  1  0  0  0
 19 20  1  0  0  0
 20 21  1  0  0  0
 21 22  1  0  0  0
 22 23  2  0  0  0
 22 24  1  0  0  0
 24 65  1  0  0  0
 65 66  1  0  0  0
 66 67  2  0  0  0
 67 68  1  0  0  0
 68 69  2  0  0  0
 69 70  1  0  0  0
 70 71  2  0  0  0
 24 25  1  0  0  0
 25 26  1  0  0  0
 26 27  2  0  0  0
 26  1  1  0  0  0
 42 37  1  0  0  0
 52 44  1  0  0  0
 63 55  1  0  0  0
 21 17  1  0  0  0
 71 66  1  0  0  0
 52 47  1  0  0  0
 63 58  1  0  0  0
  2 28  1  0  0  0
  6 29  1  0  0  0
 46 53  1  0  0  0
 10 30  1  0  0  0
 57 64  1  0  0  0
 14 31  1  0  0  0
 25 32  1  0  0  0
M  END
> <minimizedAffinity>
18.12419

> <CNNscore>
0.2181999534

> <CNNaffinity>
7.3804016113

> <CNN_VS>
1.6104032993

> <CNNaffinity_variance>
0.3613476157

$$$$
[H]c1c([H])c([H])c(C([H])([H])[C@@]2([H])C(=O)N3C([H])([H])C([H])([H])C([H])([H])[C@@]3([H])C(=O)N([H])[C@]([H])(C([H])([H])c3c([H])n([H])c4c([H])c([H])c([H])c([H])c34)C(=O)N([H])[C@]([H])(C([H])([H])c3c([H])n([H])c4c([H])c([H])c([H])c([H])c34)C(=O)N([H])[C@@]([H])(C([H])([H])c3c([H])c([H])c([H])c([H])c3[H])C(=O)N([H])[C@@]([H])(C([H])(C([H])([H])[H])C([H])([H])[H])C(=O)N2[H])c([H])c1[H]


 71 78  0  0  0  0  0  0  0  0999 V2000
  -16.7995   15.5821  -21.0682 C   0  0  0  0  0  0  0  0  0  0  0  0
  -16.6810   16.5871  -20.0413 N   0  0  0  0  0  0  0  0  0  0  0  0
  -17.2550   16.7202  -18.7818 C   0  0  0  0  0  0  0  0  0  0  0  0
  -18.0238   17.7483  -18.6518 O   0  0  0  0  0  0  0  0  0  0  0  0
  -17.1632   15.9268  -17.5508 C   0  0  0  0  0  0  0  0  0  0  0  0
  -17.5426   16.6479  -16.3569 N   0  0  0  0  0  0  0  0  0  0  0  0
  -18.4131   17.7009  -16.1193 C   0  0  0  0  0  0  0  0  0  0  0  0
  -17.8362   18.8386  -15.8339 O   0  0  0  0  0  0  0  0  0  0  0  0
  -19.8765   17.8004  -16.1196 C   0  0  0  0  0  0  0  0  0  0  0  0
  -20.3061   19.1324  -16.4996 N   0  0  0  0  0  0  0  0  0  0  0  0
  -21.0175   19.5416  -17.6374 C   0  0  0  0  0  0  0  0  0  0  0  0
  -20.7744   20.6960  -18.0384 O   0  0  0  0  0  0  0  0  0  0  0  0
  -22.0007   18.7328  -18.3672 C   0  0  0  0  0  0  0  0  0  0  0  0
  -22.1961   18.9452  -19.7440 N   0  0  0  0  0  0  0  0  0  0  0  0
  -21.5106   18.6679  -20.9244 C   0  0  0  0  0  0  0  0  0  0  0  0
  -22.0534   17.7989  -21.7392 O   0  0  0  0  0  0  0  0  0  0  0  0
  -20.2349   19.1967  -21.4469 C   0  0  0  0  0  0  0  0  0  0  0  0
  -20.2011   20.7304  -21.5169 C   0  0  0  0  0  0  0  0  0  0  0  0
  -20.5377   21.1328  -22.9077 C   0  0  0  0  0  0  0  0  0  0  0  0
  -20.9949   19.7905  -23.5015 C   0  0  0  0  0  0  0  0  0  0  0  0
  -19.9846   18.9275  -22.8496 N   0  0  0  0  0  0  0  0  0  0  0  0
  -19.0054   18.1200  -23.4322 C   0  0  0  0  0  0  0  0  0  0  0  0
  -18.2080   18.7876  -24.2468 O   0  0  0  0  0  0  0  0  0  0  0  0
  -18.6548   16.7140  -23.3584 C   0  0  0  0  0  0  0  0  0  0  0  0
  -19.0242   15.9379  -22.2388 N   0  0  0  0  0  0  0  0  0  0  0  0
  -18.1511   15.1463  -21.4104 C   0  0  0  0  0  0  0  0  0  0  0  0
  -18.5692   14.0242  -20.9585 O   0  0  0  0  0  0  0  0  0  0  0  0
  -15.9980   17.3878  -20.3678 H   0  0  0  0  0  0  0  0  0  0  0  0
  -17.0296   16.2982  -15.4582 H   0  0  0  0  0  0  0  0  0  0  0  0
  -19.9981   19.8588  -15.7566 H   0  0  0  0  0  0  0  0  0  0  0  0
  -23.1368   19.4364  -19.9560 H   0  0  0  0  0  0  0  0  0  0  0  0
  -20.0201   15.8937  -21.9492 H   0  0  0  0  0  0  0  0  0  0  0  0
  -15.2384   14.1297  -22.2655 C   0  0  0  0  0  0  0  0  0  0  0  0
  -15.8067   14.4281  -20.8835 C   0  0  0  0  0  0  0  0  0  0  0  0
  -16.5905   13.1853  -20.5033 C   0  0  0  0  0  0  0  0  0  0  0  0
  -17.8756   14.6281  -17.5357 C   0  0  0  0  0  0  0  0  0  0  0  0
  -19.2329   14.8001  -18.1123 C   0  0  0  0  0  0  0  0  0  0  0  0
  -19.7038   15.9283  -18.6969 C   0  0  0  0  0  0  0  0  0  0  0  0
  -20.9934   16.0037  -19.2017 C   0  0  0  0  0  0  0  0  0  0  0  0
  -21.8634   14.9389  -19.1374 C   0  0  0  0  0  0  0  0  0  0  0  0
  -21.4058   13.7829  -18.5481 C   0  0  0  0  0  0  0  0  0  0  0  0
  -20.1219   13.7130  -18.0470 C   0  0  0  0  0  0  0  0  0  0  0  0
  -20.5487   17.5203  -14.7979 C   0  0  0  0  0  0  0  0  0  0  0  0
  -20.9363   18.6524  -13.9735 C   0  0  0  0  0  0  0  0  0  0  0  0
  -20.2646   19.8622  -13.9629 C   0  0  0  0  0  0  0  0  0  0  0  0
  -20.8564   20.6570  -13.0812 N   0  0  0  0  0  0  0  0  0  0  0  0
  -21.8982   20.0004  -12.5153 C   0  0  0  0  0  0  0  0  0  0  0  0
  -22.8307   20.3801  -11.5686 C   0  0  0  0  0  0  0  0  0  0  0  0
  -23.7997   19.5035  -11.1961 C   0  0  0  0  0  0  0  0  0  0  0  0
  -23.8942   18.2300  -11.7318 C   0  0  0  0  0  0  0  0  0  0  0  0
  -22.9774   17.8542  -12.6628 C   0  0  0  0  0  0  0  0  0  0  0  0
  -21.9620   18.7352  -13.0684 C   0  0  0  0  0  0  0  0  0  0  0  0
  -20.5750   21.6384  -12.8486 H   0  0  0  0  0  0  0  0  0  0  0  0
  -23.2898   18.8585  -17.5590 C   0  0  0  0  0  0  0  0  0  0  0  0
  -23.8853   17.6200  -17.0733 C   0  0  0  0  0  0  0  0  0  0  0  0
  -25.2136   17.2421  -17.3563 C   0  0  0  0  0  0  0  0  0  0  0  0
  -25.4335   16.0297  -16.8374 N   0  0  0  0  0  0  0  0  0  0  0  0
  -24.3336   15.5597  -16.2171 C   0  0  0  0  0  0  0  0  0  0  0  0
  -24.0379   14.4044  -15.5186 C   0  0  0  0  0  0  0  0  0  0  0  0
  -22.7953   14.2199  -14.9593 C   0  0  0  0  0  0  0  0  0  0  0  0
  -21.8209   15.1987  -15.0919 C   0  0  0  0  0  0  0  0  0  0  0  0
  -22.1460   16.3202  -15.7857 C   0  0  0  0  0  0  0  0  0  0  0  0
  -23.3779   16.5570  -16.3696 C   0  0  0  0  0  0  0  0  0  0  0  0
  -26.3433   15.4848  -16.8928 H   0  0  0  0  0  0  0  0  0  0  0  0
  -19.3028   16.0775  -24.6126 C   0  0  0  0  0  0  0  0  0  0  0  0
  -18.5105   14.9992  -25.1953 C   0  0  0  0  0  0  0  0  0  0  0  0
  -17.3422   15.2855  -25.9059 C   0  0  0  0  0  0  0  0  0  0  0  0
  -16.5729   14.2976  -26.4888 C   0  0  0  0  0  0  0  0  0  0  0  0
  -16.9481   12.9749  -26.3815 C   0  0  0  0  0  0  0  0  0  0  0  0
  -18.0955   12.6669  -25.6862 C   0  0  0  0  0  0  0  0  0  0  0  0
  -18.8612   13.6712  -25.1036 C   0  0  0  0  0  0  0  0  0  0  0  0
 33 34  1  0  0  0
 34 35  1  0  0  0
 34  1  1  0  0  0
  1  2  1  0  0  0
  2  3  1  0  0  0
  3  4  2  0  0  0
  3  5  1  0  0  0
  5 36  1  0  0  0
 36 37  1  0  0  0
 37 38  2  0  0  0
 38 39  1  0  0  0
 39 40  2  0  0  0
 40 41  1  0  0  0
 41 42  2  0  0  0
  5  6  1  0  0  0
  6  7  1  0  0  0
  7  8  2  0  0  0
  7  9  1  0  0  0
  9 43  1  0  0  0
 43 44  1  0  0  0
 44 45  2  0  0  0
 45 46  1  0  0  0
 46 47  1  0  0  0
 47 48  2  0  0  0
 48 49  1  0  0  0
 49 50  2  0  0  0
 50 51  1  0  0  0
 51 52  2  0  0  0
  9 10  1  0  0  0
 10 11  1  0  0  0
 11 12  2  0  0  0
 11 13  1  0  0  0
 13 54  1  0  0  0
 54 55  1  0  0  0
 55 56  2  0  0  0
 56 57  1  0  0  0
 57 58  1  0  0  0
 58 59  2  0  0  0
 59 60  1  0  0  0
 60 61  2  0  0  0
 61 62  1  0  0  0
 62 63  2  0  0  0
 13 14  1  0  0  0
 14 15  1  0  0  0
 15 16  2  0  0  0
 15 17  1  0  0  0
 17 18  1  0  0  0
 18 19  1  0  0  0
 19 20  1  0  0  0
 20 21  1  0  0  0
 21 22  1  0  0  0
 22 23  2  0  0  0
 22 24  1  0  0  0
 24 65  1  0  0  0
 65 66  1  0  0  0
 66 67  2  0  0  0
 67 68  1  0  0  0
 68 69  2  0  0  0
 69 70  1  0  0  0
 70 71  2  0  0  0
 24 25  1  0  0  0
 25 26  1  0  0  0
 26 27  2  0  0  0
 26  1  1  0  0  0
 42 37  1  0  0  0
 52 44  1  0  0  0
 63 55  1  0  0  0
 21 17  1  0  0  0
 71 66  1  0  0  0
 52 47  1  0  0  0
 63 58  1  0  0  0
  2 28  1  0  0  0
  6 29  1  0  0  0
 46 53  1  0  0  0
 10 30  1  0  0  0
 57 64  1  0  0  0
 14 31  1  0  0  0
 25 32  1  0  0  0
M  END
> <minimizedAffinity>
1.40888

> <CNNscore>
0.1951415092

> <CNNaffinity>
7.2418212891

> <CNN_VS>
1.4131799936

> <CNNaffinity_variance>
0.3264782727

$$$$
[H]c1c([H])c([H])c(C([H])([H])[C@@]2([H])C(=O)N3C([H])([H])C([H])([H])C([H])([H])[C@@]3([H])C(=O)N([H])[C@]([H])(C([H])([H])c3c([H])n([H])c4c([H])c([H])c([H])c([H])c34)C(=O)N([H])[C@]([H])(C([H])([H])c3c([H])n([H])c4c([H])c([H])c([H])c([H])c34)C(=O)N([H])[C@@]([H])(C([H])([H])c3c([H])c([H])c([H])c([H])c3[H])C(=O)N([H])[C@@]([H])(C([H])(C([H])([H])[H])C([H])([H])[H])C(=O)N2[H])c([H])c1[H]


 71 78  0  0  0  0  0  0  0  0999 V2000
  -19.1778   17.3940  -22.6254 C   0  0  0  0  0  0  0  0  0  0  0  0
  -20.3824   16.8547  -22.0449 N   0  0  0  0  0  0  0  0  0  0  0  0
  -20.9064   16.8907  -20.7575 C   0  0  0  0  0  0  0  0  0  0  0  0
  -21.0094   15.7360  -20.1908 O   0  0  0  0  0  0  0  0  0  0  0  0
  -21.3783   17.9831  -19.8989 C   0  0  0  0  0  0  0  0  0  0  0  0
  -22.2550   17.5558  -18.8321 N   0  0  0  0  0  0  0  0  0  0  0  0
  -22.3773   16.3725  -18.1194 C   0  0  0  0  0  0  0  0  0  0  0  0
  -23.4456   15.6715  -18.3950 O   0  0  0  0  0  0  0  0  0  0  0  0
  -21.5389   15.7361  -17.0978 C   0  0  0  0  0  0  0  0  0  0  0  0
  -21.6629   14.2921  -17.1503 N   0  0  0  0  0  0  0  0  0  0  0  0
  -20.6950   13.3326  -17.4831 C   0  0  0  0  0  0  0  0  0  0  0  0
  -21.1287   12.2910  -18.0118 O   0  0  0  0  0  0  0  0  0  0  0  0
  -19.2507   13.4619  -17.2580 C   0  0  0  0  0  0  0  0  0  0  0  0
  -18.3488   12.7991  -18.1101 N   0  0  0  0  0  0  0  0  0  0  0  0
  -17.8750   12.9548  -19.4106 C   0  0  0  0  0  0  0  0  0  0  0  0
  -16.6141   13.2774  -19.5514 O   0  0  0  0  0  0  0  0  0  0  0  0
  -18.5604   12.8152  -20.7110 C   0  0  0  0  0  0  0  0  0  0  0  0
  -19.2586   11.4583  -20.8822 C   0  0  0  0  0  0  0  0  0  0  0  0
  -18.3519   10.5713  -21.6572 C   0  0  0  0  0  0  0  0  0  0  0  0
  -17.0616   11.4070  -21.6712 C   0  0  0  0  0  0  0  0  0  0  0  0
  -17.6845   12.7357  -21.8638 N   0  0  0  0  0  0  0  0  0  0  0  0
  -17.5222   13.6427  -22.9131 C   0  0  0  0  0  0  0  0  0  0  0  0
  -17.7961   13.1163  -24.0934 O   0  0  0  0  0  0  0  0  0  0  0  0
  -17.1190   15.0326  -23.0175 C   0  0  0  0  0  0  0  0  0  0  0  0
  -17.2485   15.9043  -21.9148 N   0  0  0  0  0  0  0  0  0  0  0  0
  -17.9353   17.1703  -21.8906 C   0  0  0  0  0  0  0  0  0  0  0  0
  -17.4437   18.1328  -21.2050 O   0  0  0  0  0  0  0  0  0  0  0  0
  -20.9632   16.3109  -22.8073 H   0  0  0  0  0  0  0  0  0  0  0  0
  -22.9774   18.3186  -18.5332 H   0  0  0  0  0  0  0  0  0  0  0  0
  -22.6685   13.9859  -16.8865 H   0  0  0  0  0  0  0  0  0  0  0  0
  -17.8753   11.9523  -17.6309 H   0  0  0  0  0  0  0  0  0  0  0  0
  -16.8112   15.6544  -21.0071 H   0  0  0  0  0  0  0  0  0  0  0  0
  -18.9938   19.7346  -21.9419 C   0  0  0  0  0  0  0  0  0  0  0  0
  -19.3530   18.8354  -23.1184 C   0  0  0  0  0  0  0  0  0  0  0  0
  -20.8317   19.0764  -23.3611 C   0  0  0  0  0  0  0  0  0  0  0  0
  -20.3451   18.8628  -19.3047 C   0  0  0  0  0  0  0  0  0  0  0  0
  -20.9551   19.6918  -18.2346 C   0  0  0  0  0  0  0  0  0  0  0  0
  -20.2746   20.3787  -17.2852 C   0  0  0  0  0  0  0  0  0  0  0  0
  -20.9288   21.1223  -16.3142 C   0  0  0  0  0  0  0  0  0  0  0  0
  -22.3020   21.2035  -16.2622 C   0  0  0  0  0  0  0  0  0  0  0  0
  -23.0130   20.5138  -17.2171 C   0  0  0  0  0  0  0  0  0  0  0  0
  -22.3574   19.7752  -18.1810 C   0  0  0  0  0  0  0  0  0  0  0  0
  -21.8488   16.1170  -15.6709 C   0  0  0  0  0  0  0  0  0  0  0  0
  -21.0614   17.1731  -15.0578 C   0  0  0  0  0  0  0  0  0  0  0  0
  -19.6998   17.3283  -15.2503 C   0  0  0  0  0  0  0  0  0  0  0  0
  -19.2939   18.3615  -14.5242 N   0  0  0  0  0  0  0  0  0  0  0  0
  -20.3532   18.8875  -13.8626 C   0  0  0  0  0  0  0  0  0  0  0  0
  -20.4698   19.9640  -13.0040 C   0  0  0  0  0  0  0  0  0  0  0  0
  -21.6882   20.2832  -12.4942 C   0  0  0  0  0  0  0  0  0  0  0  0
  -22.8325   19.5671  -12.8028 C   0  0  0  0  0  0  0  0  0  0  0  0
  -22.7199   18.5072  -13.6469 C   0  0  0  0  0  0  0  0  0  0  0  0
  -21.4753   18.1494  -14.1895 C   0  0  0  0  0  0  0  0  0  0  0  0
  -18.3138   18.7249  -14.4622 H   0  0  0  0  0  0  0  0  0  0  0  0
  -19.0492   13.1043  -15.7876 C   0  0  0  0  0  0  0  0  0  0  0  0
  -19.8087   11.9702  -15.2762 C   0  0  0  0  0  0  0  0  0  0  0  0
  -20.8321   12.0999  -14.3154 C   0  0  0  0  0  0  0  0  0  0  0  0
  -21.3827   10.8987  -14.1117 N   0  0  0  0  0  0  0  0  0  0  0  0
  -20.7944    9.9583  -14.8766 C   0  0  0  0  0  0  0  0  0  0  0  0
  -20.9616    8.5951  -15.0308 C   0  0  0  0  0  0  0  0  0  0  0  0
  -20.1640    7.8827  -15.8953 C   0  0  0  0  0  0  0  0  0  0  0  0
  -19.1776    8.5304  -16.6251 C   0  0  0  0  0  0  0  0  0  0  0  0
  -19.0425    9.8704  -16.4493 C   0  0  0  0  0  0  0  0  0  0  0  0
  -19.8171   10.6359  -15.5957 C   0  0  0  0  0  0  0  0  0  0  0  0
  -22.1800   10.6848  -13.4436 H   0  0  0  0  0  0  0  0  0  0  0  0
  -15.6220   14.9827  -23.4105 C   0  0  0  0  0  0  0  0  0  0  0  0
  -15.3848   15.1991  -24.8342 C   0  0  0  0  0  0  0  0  0  0  0  0
  -14.2180   15.8337  -25.2676 C   0  0  0  0  0  0  0  0  0  0  0  0
  -13.9624   16.0747  -26.6033 C   0  0  0  0  0  0  0  0  0  0  0  0
  -14.8733   15.6864  -27.5631 C   0  0  0  0  0  0  0  0  0  0  0  0
  -16.0309   15.0591  -27.1614 C   0  0  0  0  0  0  0  0  0  0  0  0
  -16.2763   14.8220  -25.8131 C   0  0  0  0  0  0  0  0  0  0  0  0
 33 34  1  0  0  0
 34 35  1  0  0  0
 34  1  1  0  0  0
  1  2  1  0  0  0
  2  3  1  0  0  0
  3  4  2  0  0  0
  3  5  1  0  0  0
  5 36  1  0  0  0
 36 37  1  0  0  0
 37 38  2  0  0  0
 38 39  1  0  0  0
 39 40  2  0  0  0
 40 41  1  0  0  0
 41 42  2  0  0  0
  5  6  1  0  0  0
  6  7  1  0  0  0
  7  8  2  0  0  0
  7  9  1  0  0  0
  9 43  1  0  0  0
 43 44  1  0  0  0
 44 45  2  0  0  0
 45 46  1  0  0  0
 46 47  1  0  0  0
 47 48  2  0  0  0
 48 49  1  0  0  0
 49 50  2  0  0  0
 50 51  1  0  0  0
 51 52  2  0  0  0
  9 10  1  0  0  0
 10 11  1  0  0  0
 11 12  2  0  0  0
 11 13  1  0  0  0
 13 54  1  0  0  0
 54 55  1  0  0  0
 55 56  2  0  0  0
 56 57  1  0  0  0
 57 58  1  0  0  0
 58 59  2  0  0  0
 59 60  1  0  0  0
 60 61  2  0  0  0
 61 62  1  0  0  0
 62 63  2  0  0  0
 13 14  1  0  0  0
 14 15  1  0  0  0
 15 16  2  0  0  0
 15 17  1  0  0  0
 17 18  1  0  0  0
 18 19  1  0  0  0
 19 20  1  0  0  0
 20 21  1  0  0  0
 21 22  1  0  0  0
 22 23  2  0  0  0
 22 24  1  0  0  0
 24 65  1  0  0  0
 65 66  1  0  0  0
 66 67  2  0  0  0
 67 68  1  0  0  0
 68 69  2  0  0  0
 69 70  1  0  0  0
 70 71  2  0  0  0
 24 25  1  0  0  0
 25 26  1  0  0  0
 26 27  2  0  0  0
 26  1  1  0  0  0
 42 37  1  0  0  0
 52 44  1  0  0  0
 63 55  1  0  0  0
 21 17  1  0  0  0
 71 66  1  0  0  0
 52 47  1  0  0  0
 63 58  1  0  0  0
  2 28  1  0  0  0
  6 29  1  0  0  0
 46 53  1  0  0  0
 10 30  1  0  0  0
 57 64  1  0  0  0
 14 31  1  0  0  0
 25 32  1  0  0  0
M  END
> <minimizedAffinity>
-5.22147

> <CNNscore>
0.1937883794

> <CNNaffinity>
7.6792664528

> <CNN_VS>
1.4881526232

> <CNNaffinity_variance>
0.3637040555

$$$$
[H]c1c([H])c([H])c(C([H])([H])[C@@]2([H])C(=O)N3C([H])([H])C([H])([H])C([H])([H])[C@@]3([H])C(=O)N([H])[C@]([H])(C([H])([H])c3c([H])n([H])c4c([H])c([H])c([H])c([H])c34)C(=O)N([H])[C@]([H])(C([H])([H])c3c([H])n([H])c4c([H])c([H])c([H])c([H])c34)C(=O)N([H])[C@@]([H])(C([H])([H])c3c([H])c([H])c([H])c([H])c3[H])C(=O)N([H])[C@@]([H])(C([H])(C([H])([H])[H])C([H])([H])[H])C(=O)N2[H])c([H])c1[H]


 71 78  0  0  0  0  0  0  0  0999 V2000
  -18.5333   13.0189  -18.6915 C   0  0  0  0  0  0  0  0  0  0  0  0
  -18.5521   13.0364  -17.2499 N   0  0  0  0  0  0  0  0  0  0  0  0
  -19.4723   12.5784  -16.3134 C   0  0  0  0  0  0  0  0  0  0  0  0
  -19.9987   13.5047  -15.5854 O   0  0  0  0  0  0  0  0  0  0  0  0
  -19.9727   11.2419  -15.9723 C   0  0  0  0  0  0  0  0  0  0  0  0
  -20.5654   11.1539  -14.6569 N   0  0  0  0  0  0  0  0  0  0  0  0
  -21.2157   12.0708  -13.8447 C   0  0  0  0  0  0  0  0  0  0  0  0
  -20.5367   12.4568  -12.7967 O   0  0  0  0  0  0  0  0  0  0  0  0
  -22.5358   12.7055  -13.9208 C   0  0  0  0  0  0  0  0  0  0  0  0
  -22.5143   14.0225  -13.3139 N   0  0  0  0  0  0  0  0  0  0  0  0
  -22.6963   15.2768  -13.9153 C   0  0  0  0  0  0  0  0  0  0  0  0
  -22.0893   16.2240  -13.3797 O   0  0  0  0  0  0  0  0  0  0  0  0
  -23.5276   15.5468  -15.0940 C   0  0  0  0  0  0  0  0  0  0  0  0
  -23.1988   16.6124  -15.9515 N   0  0  0  0  0  0  0  0  0  0  0  0
  -22.2341   16.8795  -16.9200 C   0  0  0  0  0  0  0  0  0  0  0  0
  -22.6461   16.9898  -18.1577 O   0  0  0  0  0  0  0  0  0  0  0  0
  -20.7748   17.0707  -16.8020 C   0  0  0  0  0  0  0  0  0  0  0  0
  -20.3889   18.1575  -15.7881 C   0  0  0  0  0  0  0  0  0  0  0  0
  -20.1437   19.4172  -16.5382 C   0  0  0  0  0  0  0  0  0  0  0  0
  -20.6537   19.0327  -17.9365 C   0  0  0  0  0  0  0  0  0  0  0  0
  -20.1327   17.6478  -17.9671 N   0  0  0  0  0  0  0  0  0  0  0  0
  -19.2140   17.0696  -18.8456 C   0  0  0  0  0  0  0  0  0  0  0  0
  -18.0652   17.7204  -18.8879 O   0  0  0  0  0  0  0  0  0  0  0  0
  -19.2211   15.9199  -19.7305 C   0  0  0  0  0  0  0  0  0  0  0  0
  -20.1034   14.8417  -19.5028 N   0  0  0  0  0  0  0  0  0  0  0  0
  -19.7519   13.4510  -19.3712 C   0  0  0  0  0  0  0  0  0  0  0  0
  -20.5294   12.5625  -19.8653 O   0  0  0  0  0  0  0  0  0  0  0  0
  -17.6433   13.5242  -16.8622 H   0  0  0  0  0  0  0  0  0  0  0  0
  -20.4723   10.1639  -14.2050 H   0  0  0  0  0  0  0  0  0  0  0  0
  -22.3242   13.9487  -12.2494 H   0  0  0  0  0  0  0  0  0  0  0  0
  -23.8840   17.4446  -15.8564 H   0  0  0  0  0  0  0  0  0  0  0  0
  -21.1232   15.0191  -19.4245 H   0  0  0  0  0  0  0  0  0  0  0  0
  -16.6489   11.4748  -18.4809 C   0  0  0  0  0  0  0  0  0  0  0  0
  -17.9344   11.7265  -19.2592 C   0  0  0  0  0  0  0  0  0  0  0  0
  -17.4856   11.9982  -20.6834 C   0  0  0  0  0  0  0  0  0  0  0  0
  -20.9117   10.6130  -16.9301 C   0  0  0  0  0  0  0  0  0  0  0  0
  -21.5426    9.4262  -16.2995 C   0  0  0  0  0  0  0  0  0  0  0  0
  -22.8482    9.3183  -15.9530 C   0  0  0  0  0  0  0  0  0  0  0  0
  -23.3517    8.1715  -15.3571 C   0  0  0  0  0  0  0  0  0  0  0  0
  -22.5547    7.0823  -15.0862 C   0  0  0  0  0  0  0  0  0  0  0  0
  -21.2254    7.1701  -15.4302 C   0  0  0  0  0  0  0  0  0  0  0  0
  -20.7293    8.3135  -16.0226 C   0  0  0  0  0  0  0  0  0  0  0  0
  -23.6562   11.9626  -13.2353 C   0  0  0  0  0  0  0  0  0  0  0  0
  -23.4460   11.5161  -11.8685 C   0  0  0  0  0  0  0  0  0  0  0  0
  -23.7585   12.2753  -10.7545 C   0  0  0  0  0  0  0  0  0  0  0  0
  -23.4110   11.5883   -9.6743 N   0  0  0  0  0  0  0  0  0  0  0  0
  -22.8808   10.3995  -10.0512 C   0  0  0  0  0  0  0  0  0  0  0  0
  -22.3894    9.3307   -9.3260 C   0  0  0  0  0  0  0  0  0  0  0  0
  -21.9302    8.2328   -9.9818 C   0  0  0  0  0  0  0  0  0  0  0  0
  -21.9343    8.1379  -11.3633 C   0  0  0  0  0  0  0  0  0  0  0  0
  -22.4167    9.1886  -12.0788 C   0  0  0  0  0  0  0  0  0  0  0  0
  -22.8968   10.3387  -11.4321 C   0  0  0  0  0  0  0  0  0  0  0  0
  -23.5228   11.9016   -8.6815 H   0  0  0  0  0  0  0  0  0  0  0  0
  -24.9536   15.6368  -14.5562 C   0  0  0  0  0  0  0  0  0  0  0  0
  -25.1696   16.5068  -13.4068 C   0  0  0  0  0  0  0  0  0  0  0  0
  -25.3205   16.0213  -12.0919 C   0  0  0  0  0  0  0  0  0  0  0  0
  -25.4259   17.0631  -11.2606 N   0  0  0  0  0  0  0  0  0  0  0  0
  -25.3564   18.2295  -11.9316 C   0  0  0  0  0  0  0  0  0  0  0  0
  -25.4313   19.5601  -11.5660 C   0  0  0  0  0  0  0  0  0  0  0  0
  -25.3531   20.5545  -12.5126 C   0  0  0  0  0  0  0  0  0  0  0  0
  -25.1976   20.2284  -13.8522 C   0  0  0  0  0  0  0  0  0  0  0  0
  -25.1265   18.9110  -14.1749 C   0  0  0  0  0  0  0  0  0  0  0  0
  -25.1977   17.8712  -13.2649 C   0  0  0  0  0  0  0  0  0  0  0  0
  -25.5473   17.0086  -10.2069 H   0  0  0  0  0  0  0  0  0  0  0  0
  -19.5320   16.5003  -21.1321 C   0  0  0  0  0  0  0  0  0  0  0  0
  -20.8398   17.1421  -21.2211 C   0  0  0  0  0  0  0  0  0  0  0  0
  -20.9385   18.5298  -21.3486 C   0  0  0  0  0  0  0  0  0  0  0  0
  -22.1555   19.1792  -21.4177 C   0  0  0  0  0  0  0  0  0  0  0  0
  -23.3291   18.4573  -21.3606 C   0  0  0  0  0  0  0  0  0  0  0  0
  -23.2584   17.0883  -21.2351 C   0  0  0  0  0  0  0  0  0  0  0  0
  -22.0265   16.4464  -21.1669 C   0  0  0  0  0  0  0  0  0  0  0  0
 33 34  1  0  0  0
 34 35  1  0  0  0
 34  1  1  0  0  0
  1  2  1  0  0  0
  2  3  1  0  0  0
  3  4  2  0  0  0
  3  5  1  0  0  0
  5 36  1  0  0  0
 36 37  1  0  0  0
 37 38  2  0  0  0
 38 39  1  0  0  0
 39 40  2  0  0  0
 40 41  1  0  0  0
 41 42  2  0  0  0
  5  6  1  0  0  0
  6  7  1  0  0  0
  7  8  2  0  0  0
  7  9  1  0  0  0
  9 43  1  0  0  0
 43 44  1  0  0  0
 44 45  2  0  0  0
 45 46  1  0  0  0
 46 47  1  0  0  0
 47 48  2  0  0  0
 48 49  1  0  0  0
 49 50  2  0  0  0
 50 51  1  0  0  0
 51 52  2  0  0  0
  9 10  1  0  0  0
 10 11  1  0  0  0
 11 12  2  0  0  0
 11 13  1  0  0  0
 13 54  1  0  0  0
 54 55  1  0  0  0
 55 56  2  0  0  0
 56 57  1  0  0  0
 57 58  1  0  0  0
 58 59  2  0  0  0
 59 60  1  0  0  0
 60 61  2  0  0  0
 61 62  1  0  0  0
 62 63  2  0  0  0
 13 14  1  0  0  0
 14 15  1  0  0  0
 15 16  2  0  0  0
 15 17  1  0  0  0
 17 18  1  0  0  0
 18 19  1  0  0  0
 19 20  1  0  0  0
 20 21  1  0  0  0
 21 22  1  0  0  0
 22 23  2  0  0  0
 22 24  1  0  0  0
 24 65  1  0  0  0
 65 66  1  0  0  0
 66 67  2  0  0  0
 67 68  1  0  0  0
 68 69  2  0  0  0
 69 70  1  0  0  0
 70 71  2  0  0  0
 24 25  1  0  0  0
 25 26  1  0  0  0
 26 27  2  0  0  0
 26  1  1  0  0  0
 42 37  1  0  0  0
 52 44  1  0  0  0
 63 55  1  0  0  0
 21 17  1  0  0  0
 71 66  1  0  0  0
 52 47  1  0  0  0
 63 58  1  0  0  0
  2 28  1  0  0  0
  6 29  1  0  0  0
 46 53  1  0  0  0
 10 30  1  0  0  0
 57 64  1  0  0  0
 14 31  1  0  0  0
 25 32  1  0  0  0
M  END
> <minimizedAffinity>
-4.59910

> <CNNscore>
0.1820099801

> <CNNaffinity>
7.4170684814

> <CNN_VS>
1.3499804735

> <CNNaffinity_variance>
0.6165189147

$$$$
[H]c1c([H])c(Cl)c([H])c(C2=NC([H])([H])C(=O)N(C([H])([H])[H])c3c([H])c([H])c(Cl)c([H])c32)c1[H]


 21 23  0  0  0  0  0  0  0  0999 V2000
  -16.0787   10.7924  -18.5176 C   0  0  0  0  0  0  0  0  0  0  0  0
  -16.7428   11.2873  -19.6618 N   0  0  0  0  0  0  0  0  0  0  0  0
  -17.8501   12.1961  -19.4336 C   0  0  0  0  0  0  0  0  0  0  0  0
  -18.4779   11.9056  -18.2341 C   0  0  0  0  0  0  0  0  0  0  0  0
  -19.6261   12.6260  -17.9570 C   0  0  0  0  0  0  0  0  0  0  0  0
  -20.0905   13.5810  -18.8653 C   0  0  0  0  0  0  0  0  0  0  0  0
  -21.5376   14.4846  -18.4977 Cl  0  0  0  0  0  0  0  0  0  0  0  0
  -19.4610   13.8548  -20.0409 C   0  0  0  0  0  0  0  0  0  0  0  0
  -18.3022   13.1439  -20.3309 C   0  0  0  0  0  0  0  0  0  0  0  0
  -17.7198   13.5972  -21.5849 C   0  0  0  0  0  0  0  0  0  0  0  0
  -17.1556   12.7242  -22.3902 N   0  0  0  0  0  0  0  0  0  0  0  0
  -16.9539   11.2990  -22.3094 C   0  0  0  0  0  0  0  0  0  0  0  0
  -16.3706   10.8944  -20.9993 C   0  0  0  0  0  0  0  0  0  0  0  0
  -15.4242   10.1022  -21.0578 O   0  0  0  0  0  0  0  0  0  0  0  0
  -17.7437   14.9609  -21.9888 C   0  0  0  0  0  0  0  0  0  0  0  0
  -18.3162   15.5350  -23.0558 C   0  0  0  0  0  0  0  0  0  0  0  0
  -18.1923   16.8677  -23.4118 C   0  0  0  0  0  0  0  0  0  0  0  0
  -17.4293   17.7012  -22.6283 C   0  0  0  0  0  0  0  0  0  0  0  0
  -16.8167   17.1694  -21.5142 C   0  0  0  0  0  0  0  0  0  0  0  0
  -15.8519   18.2509  -20.5311 Cl  0  0  0  0  0  0  0  0  0  0  0  0
  -16.9643   15.8390  -21.1962 C   0  0  0  0  0  0  0  0  0  0  0  0
  1  2  1  0  0  0
  2  3  1  0  0  0
  3  4  2  0  0  0
  4  5  1  0  0  0
  5  6  2  0  0  0
  6  7  1  0  0  0
  6  8  1  0  0  0
  8  9  2  0  0  0
  9 10  1  0  0  0
 10 11  2  0  0  0
 11 12  1  0  0  0
 12 13  1  0  0  0
 13 14  2  0  0  0
 10 15  1  0  0  0
 15 16  2  0  0  0
 16 17  1  0  0  0
 17 18  2  0  0  0
 18 19  1  0  0  0
 19 20  1  0  0  0
 19 21  2  0  0  0
 13  2  1  0  0  0
 21 15  1  0  0  0
  9  3  1  0  0  0
M  END
> <minimizedAffinity>
-7.38203

> <CNNscore>
0.6195544004

> <CNNaffinity>
6.2115874290

> <CNN_VS>
3.8484163284

> <CNNaffinity_variance>
0.2160086185

$$$$
[H]c1c([H])c(Cl)c([H])c(C2=NC([H])([H])C(=O)N(C([H])([H])[H])c3c([H])c([H])c(Cl)c([H])c32)c1[H]


 21 23  0  0  0  0  0  0  0  0999 V2000
  -20.7082   14.1505  -19.7730 C   0  0  0  0  0  0  0  0  0  0  0  0
  -19.6362   14.5522  -20.6004 N   0  0  0  0  0  0  0  0  0  0  0  0
  -18.6661   13.5337  -20.9547 C   0  0  0  0  0  0  0  0  0  0  0  0
  -18.5595   12.5919  -19.9452 C   0  0  0  0  0  0  0  0  0  0  0  0
  -17.5780   11.6308  -20.1095 C   0  0  0  0  0  0  0  0  0  0  0  0
  -16.7624   11.6489  -21.2440 C   0  0  0  0  0  0  0  0  0  0  0  0
  -15.5326   10.4259  -21.4381 Cl  0  0  0  0  0  0  0  0  0  0  0  0
  -16.8804   12.5823  -22.2280 C   0  0  0  0  0  0  0  0  0  0  0  0
  -17.8663   13.5511  -22.0808 C   0  0  0  0  0  0  0  0  0  0  0  0
  -17.9035   14.4288  -23.2407 C   0  0  0  0  0  0  0  0  0  0  0  0
  -18.1495   15.7099  -23.0760 N   0  0  0  0  0  0  0  0  0  0  0  0
  -18.4237   16.5171  -21.9134 C   0  0  0  0  0  0  0  0  0  0  0  0
  -19.4814   15.9127  -21.0551 C   0  0  0  0  0  0  0  0  0  0  0  0
  -20.3636   16.6872  -20.6696 O   0  0  0  0  0  0  0  0  0  0  0  0
  -17.6715   13.9573  -24.5625 C   0  0  0  0  0  0  0  0  0  0  0  0
  -17.9175   12.7575  -25.1064 C   0  0  0  0  0  0  0  0  0  0  0  0
  -17.5570   12.3683  -26.3857 C   0  0  0  0  0  0  0  0  0  0  0  0
  -16.8932   13.2608  -27.1942 C   0  0  0  0  0  0  0  0  0  0  0  0
  -16.6138   14.5133  -26.6919 C   0  0  0  0  0  0  0  0  0  0  0  0
  -15.7695   15.6328  -27.7410 Cl  0  0  0  0  0  0  0  0  0  0  0  0
  -16.9885   14.8600  -25.4142 C   0  0  0  0  0  0  0  0  0  0  0  0
  1  2  1  0  0  0
  2  3  1  0  0  0
  3  4  2  0  0  0
  4  5  1  0  0  0
  5  6  2  0  0  0
  6  7  1  0  0  0
  6  8  1  0  0  0
  8  9  2  0  0  0
  9 10  1  0  0  0
 10 11  2  0  0  0
 11 12  1  0  0  0
 12 13  1  0  0  0
 13 14  2  0  0  0
 10 15  1  0  0  0
 15 16  2  0  0  0
 16 17  1  0  0  0
 17 18  2  0  0  0
 18 19  1  0  0  0
 19 20  1  0  0  0
 19 21  2  0  0  0
 13  2  1  0  0  0
 21 15  1  0  0  0
  9  3  1  0  0  0
M  END
> <minimizedAffinity>
-9.00630

> <CNNscore>
0.6137015224

> <CNNaffinity>
6.1629896164

> <CNN_VS>
3.7822360992

> <CNNaffinity_variance>
0.2448224127

$$$$
[H]c1c([H])c(Cl)c([H])c(C2=NC([H])([H])C(=O)N(C([H])([H])[H])c3c([H])c([H])c(Cl)c([H])c32)c1[H]


 21 23  0  0  0  0  0  0  0  0999 V2000
  -17.9878   13.7900  -18.3766 C   0  0  0  0  0  0  0  0  0  0  0  0
  -18.0041   13.4222  -19.7402 N   0  0  0  0  0  0  0  0  0  0  0  0
  -18.2811   14.4753  -20.6986 C   0  0  0  0  0  0  0  0  0  0  0  0
  -19.1104   15.4338  -20.1410 C   0  0  0  0  0  0  0  0  0  0  0  0
  -19.5466   16.4325  -20.9934 C   0  0  0  0  0  0  0  0  0  0  0  0
  -19.1497   16.4332  -22.3332 C   0  0  0  0  0  0  0  0  0  0  0  0
  -19.7049   17.7035  -23.3934 Cl  0  0  0  0  0  0  0  0  0  0  0  0
  -18.3333   15.4830  -22.8658 C   0  0  0  0  0  0  0  0  0  0  0  0
  -17.8811   14.4762  -22.0207 C   0  0  0  0  0  0  0  0  0  0  0  0
  -16.9732   13.5825  -22.7236 C   0  0  0  0  0  0  0  0  0  0  0  0
  -16.9986   12.2946  -22.4599 N   0  0  0  0  0  0  0  0  0  0  0  0
  -17.7785   11.4921  -21.5509 C   0  0  0  0  0  0  0  0  0  0  0  0
  -17.7881   12.0634  -20.1747 C   0  0  0  0  0  0  0  0  0  0  0  0
  -17.5808   11.2582  -19.2607 O   0  0  0  0  0  0  0  0  0  0  0  0
  -16.0537   14.0458  -23.7049 C   0  0  0  0  0  0  0  0  0  0  0  0
  -14.8023   14.5050  -23.5666 C   0  0  0  0  0  0  0  0  0  0  0  0
  -14.0240   15.0300  -24.5848 C   0  0  0  0  0  0  0  0  0  0  0  0
  -14.5436   15.0990  -25.8561 C   0  0  0  0  0  0  0  0  0  0  0  0
  -15.8261   14.6390  -26.0626 C   0  0  0  0  0  0  0  0  0  0  0  0
  -16.4649   14.7356  -27.6903 Cl  0  0  0  0  0  0  0  0  0  0  0  0
  -16.5668   14.1256  -25.0230 C   0  0  0  0  0  0  0  0  0  0  0  0
  1  2  1  0  0  0
  2  3  1  0  0  0
  3  4  2  0  0  0
  4  5  1  0  0  0
  5  6  2  0  0  0
  6  7  1  0  0  0
  6  8  1  0  0  0
  8  9  2  0  0  0
  9 10  1  0  0  0
 10 11  2  0  0  0
 11 12  1  0  0  0
 12 13  1  0  0  0
 13 14  2  0  0  0
 10 15  1  0  0  0
 15 16  2  0  0  0
 16 17  1  0  0  0
 17 18  2  0  0  0
 18 19  1  0  0  0
 19 20  1  0  0  0
 19 21  2  0  0  0
 13  2  1  0  0  0
 21 15  1  0  0  0
  9  3  1  0  0  0
M  END
> <minimizedAffinity>
-8.07035

> <CNNscore>
0.6123005748

> <CNNaffinity>
6.1127085686

> <CNN_VS>
3.7428150177

> <CNNaffinity_variance>
0.2356565446

$$$$
[H]c1c([H])c(Cl)c([H])c(C2=NC([H])([H])C(=O)N(C([H])([H])[H])c3c([H])c([H])c(Cl)c([H])c32)c1[H]


 21 23  0  0  0  0  0  0  0  0999 V2000
  -17.4680   12.9674  -22.2323 C   0  0  0  0  0  0  0  0  0  0  0  0
  -17.2958   12.4465  -20.9307 N   0  0  0  0  0  0  0  0  0  0  0  0
  -17.8671   13.2119  -19.8390 C   0  0  0  0  0  0  0  0  0  0  0  0
  -17.8710   14.5629  -20.1425 C   0  0  0  0  0  0  0  0  0  0  0  0
  -18.2819   15.4135  -19.1316 C   0  0  0  0  0  0  0  0  0  0  0  0
  -18.6605   14.8952  -17.8904 C   0  0  0  0  0  0  0  0  0  0  0  0
  -19.1813   15.9819  -16.6279 Cl  0  0  0  0  0  0  0  0  0  0  0  0
  -18.6512   13.5635  -17.6081 C   0  0  0  0  0  0  0  0  0  0  0  0
  -18.2470   12.6952  -18.6156 C   0  0  0  0  0  0  0  0  0  0  0  0
  -18.3541   11.3119  -18.1773 C   0  0  0  0  0  0  0  0  0  0  0  0
  -17.4471   10.4395  -18.5583 N   0  0  0  0  0  0  0  0  0  0  0  0
  -16.2731   10.5407  -19.3890 C   0  0  0  0  0  0  0  0  0  0  0  0
  -16.5632   11.2294  -20.6782 C   0  0  0  0  0  0  0  0  0  0  0  0
  -16.1113   10.6822  -21.6896 O   0  0  0  0  0  0  0  0  0  0  0  0
  -19.4057   10.8575  -17.3342 C   0  0  0  0  0  0  0  0  0  0  0  0
  -20.5232   11.4809  -16.9362 C   0  0  0  0  0  0  0  0  0  0  0  0
  -21.4390   10.9808  -16.0255 C   0  0  0  0  0  0  0  0  0  0  0  0
  -21.2181    9.7448  -15.4650 C   0  0  0  0  0  0  0  0  0  0  0  0
  -20.0861    9.0525  -15.8371 C   0  0  0  0  0  0  0  0  0  0  0  0
  -19.8276    7.4799  -15.1112 Cl  0  0  0  0  0  0  0  0  0  0  0  0
  -19.2003    9.5858  -16.7448 C   0  0  0  0  0  0  0  0  0  0  0  0
  1  2  1  0  0  0
  2  3  1  0  0  0
  3  4  2  0  0  0
  4  5  1  0  0  0
  5  6  2  0  0  0
  6  7  1  0  0  0
  6  8  1  0  0  0
  8  9  2  0  0  0
  9 10  1  0  0  0
 10 11  2  0  0  0
 11 12  1  0  0  0
 12 13  1  0  0  0
 13 14  2  0  0  0
 10 15  1  0  0  0
 15 16  2  0  0  0
 16 17  1  0  0  0
 17 18  2  0  0  0
 18 19  1  0  0  0
 19 20  1  0  0  0
 19 21  2  0  0  0
 13  2  1  0  0  0
 21 15  1  0  0  0
  9  3  1  0  0  0
M  END
> <minimizedAffinity>
-7.57913

> <CNNscore>
0.5837450027

> <CNNaffinity>
5.6093645096

> <CNN_VS>
3.2744386196

> <CNNaffinity_variance>
0.1048873663

$$$$
[H]c1c([H])c(Cl)c([H])c(C2=NC([H])([H])C(=O)N(C([H])([H])[H])c3c([H])c([H])c(Cl)c([H])c32)c1[H]


 21 23  0  0  0  0  0  0  0  0999 V2000
  -16.8040   11.0492  -18.2589 C   0  0  0  0  0  0  0  0  0  0  0  0
  -17.0359   11.4173  -19.6027 N   0  0  0  0  0  0  0  0  0  0  0  0
  -17.9740   12.4998  -19.8317 C   0  0  0  0  0  0  0  0  0  0  0  0
  -18.9403   12.5234  -18.8403 C   0  0  0  0  0  0  0  0  0  0  0  0
  -19.9652   13.4373  -19.0098 C   0  0  0  0  0  0  0  0  0  0  0  0
  -19.9849   14.2676  -20.1335 C   0  0  0  0  0  0  0  0  0  0  0  0
  -21.2823   15.4185  -20.3292 Cl  0  0  0  0  0  0  0  0  0  0  0  0
  -19.0264   14.2319  -21.0996 C   0  0  0  0  0  0  0  0  0  0  0  0
  -17.9863   13.3235  -20.9405 C   0  0  0  0  0  0  0  0  0  0  0  0
  -17.0180   13.4549  -22.0186 C   0  0  0  0  0  0  0  0  0  0  0  0
  -16.4340   12.3795  -22.4994 N   0  0  0  0  0  0  0  0  0  0  0  0
  -16.5311   10.9785  -22.1731 C   0  0  0  0  0  0  0  0  0  0  0  0
  -16.4025   10.7398  -20.7079 C   0  0  0  0  0  0  0  0  0  0  0  0
  -15.6400    9.8243  -20.3807 O   0  0  0  0  0  0  0  0  0  0  0  0
  -16.6786   14.7121  -22.5907 C   0  0  0  0  0  0  0  0  0  0  0  0
  -16.5168   15.9091  -22.0102 C   0  0  0  0  0  0  0  0  0  0  0  0
  -16.2836   17.0993  -22.6788 C   0  0  0  0  0  0  0  0  0  0  0  0
  -16.2022   17.0905  -24.0514 C   0  0  0  0  0  0  0  0  0  0  0  0
  -16.3574   15.8880  -24.7065 C   0  0  0  0  0  0  0  0  0  0  0  0
  -16.2477   15.9019  -26.4542 Cl  0  0  0  0  0  0  0  0  0  0  0  0
  -16.5891   14.7276  -24.0044 C   0  0  0  0  0  0  0  0  0  0  0  0
  1  2  1  0  0  0
  2  3  1  0  0  0
  3  4  2  0  0  0
  4  5  1  0  0  0
  5  6  2  0  0  0
  6  7  1  0  0  0
  6  8  1  0  0  0
  8  9  2  0  0  0
  9 10  1  0  0  0
 10 11  2  0  0  0
 11 12  1  0  0  0
 12 13  1  0  0  0
 13 14  2  0  0  0
 10 15  1  0  0  0
 15 16  2  0  0  0
 16 17  1  0  0  0
 17 18  2  0  0  0
 18 19  1  0  0  0
 19 20  1  0  0  0
 19 21  2  0  0  0
 13  2  1  0  0  0
 21 15  1  0  0  0
  9  3  1  0  0  0
M  END
> <minimizedAffinity>
-7.47016

> <CNNscore>
0.5814168453

> <CNNaffinity>
6.2380547523

> <CNN_VS>
3.6269102097

> <CNNaffinity_variance>
0.2927007377

$$$$
[H]c1c([H])c(Cl)c([H])c(C2=NC([H])([H])C(=O)N(C([H])([H])[H])c3c([H])c([H])c(Cl)c([H])c32)c1[H]


 21 23  0  0  0  0  0  0  0  0999 V2000
  -20.2104   14.7419  -18.2450 C   0  0  0  0  0  0  0  0  0  0  0  0
  -19.0167   14.9458  -18.9722 N   0  0  0  0  0  0  0  0  0  0  0  0
  -18.4003   13.7716  -19.5600 C   0  0  0  0  0  0  0  0  0  0  0  0
  -18.6619   12.6495  -18.7921 C   0  0  0  0  0  0  0  0  0  0  0  0
  -18.0284   11.4829  -19.1820 C   0  0  0  0  0  0  0  0  0  0  0  0
  -17.1800   11.4837  -20.2923 C   0  0  0  0  0  0  0  0  0  0  0  0
  -16.3929   10.0022  -20.7736 Cl  0  0  0  0  0  0  0  0  0  0  0  0
  -16.9335   12.5962  -21.0371 C   0  0  0  0  0  0  0  0  0  0  0  0
  -17.5676   13.7750  -20.6621 C   0  0  0  0  0  0  0  0  0  0  0  0
  -17.2513   14.8486  -21.5919 C   0  0  0  0  0  0  0  0  0  0  0  0
  -17.0874   16.0715  -21.1376 N   0  0  0  0  0  0  0  0  0  0  0  0
  -17.1631   16.6492  -19.8189 C   0  0  0  0  0  0  0  0  0  0  0  0
  -18.4095   16.2475  -19.1079 C   0  0  0  0  0  0  0  0  0  0  0  0
  -19.0222   17.1616  -18.5461 O   0  0  0  0  0  0  0  0  0  0  0  0
  -17.0990   14.6285  -22.9888 C   0  0  0  0  0  0  0  0  0  0  0  0
  -17.9722   14.1546  -23.8881 C   0  0  0  0  0  0  0  0  0  0  0  0
  -17.6872   13.8824  -25.2159 C   0  0  0  0  0  0  0  0  0  0  0  0
  -16.4149   14.1072  -25.6865 C   0  0  0  0  0  0  0  0  0  0  0  0
  -15.4719   14.5974  -24.8092 C   0  0  0  0  0  0  0  0  0  0  0  0
  -13.8594   14.8773  -25.4325 Cl  0  0  0  0  0  0  0  0  0  0  0  0
  -15.7958   14.8536  -23.4968 C   0  0  0  0  0  0  0  0  0  0  0  0
  1  2  1  0  0  0
  2  3  1  0  0  0
  3  4  2  0  0  0
  4  5  1  0  0  0
  5  6  2  0  0  0
  6  7  1  0  0  0
  6  8  1  0  0  0
  8  9  2  0  0  0
  9 10  1  0  0  0
 10 11  2  0  0  0
 11 12  1  0  0  0
 12 13  1  0  0  0
 13 14  2  0  0  0
 10 15  1  0  0  0
 15 16  2  0  0  0
 16 17  1  0  0  0
 17 18  2  0  0  0
 18 19  1  0  0  0
 19 20  1  0  0  0
 19 21  2  0  0  0
 13  2  1  0  0  0
 21 15  1  0  0  0
  9  3  1  0  0  0
M  END
> <minimizedAffinity>
-8.24112

> <CNNscore>
0.5684577227

> <CNNaffinity>
6.0958604813

> <CNN_VS>
3.4652390480

> <CNNaffinity_variance>
0.2210667580

$$$$
[H]c1c([H])c(Cl)c([H])c(C2=NC([H])([H])C(=O)N(C([H])([H])[H])c3c([H])c([H])c(Cl)c([H])c32)c1[H]


 21 23  0  0  0  0  0  0  0  0999 V2000
  -21.5518   15.2527  -20.1048 C   0  0  0  0  0  0  0  0  0  0  0  0
  -20.1747   15.5195  -20.2701 N   0  0  0  0  0  0  0  0  0  0  0  0
  -19.2808   14.3772  -20.2563 C   0  0  0  0  0  0  0  0  0  0  0  0
  -19.7876   13.3733  -19.4485 C   0  0  0  0  0  0  0  0  0  0  0  0
  -18.9693   12.2745  -19.2559 C   0  0  0  0  0  0  0  0  0  0  0  0
  -17.7103   12.2240  -19.8600 C   0  0  0  0  0  0  0  0  0  0  0  0
  -16.6928   10.8280  -19.6109 Cl  0  0  0  0  0  0  0  0  0  0  0  0
  -17.2267   13.2200  -20.6521 C   0  0  0  0  0  0  0  0  0  0  0  0
  -18.0397   14.3281  -20.8606 C   0  0  0  0  0  0  0  0  0  0  0  0
  -17.4073   15.2663  -21.7754 C   0  0  0  0  0  0  0  0  0  0  0  0
  -17.5509   16.5585  -21.5798 N   0  0  0  0  0  0  0  0  0  0  0  0
  -18.2579   17.3305  -20.5885 C   0  0  0  0  0  0  0  0  0  0  0  0
  -19.6613   16.8600  -20.4161 C   0  0  0  0  0  0  0  0  0  0  0  0
  -20.5226   17.7457  -20.3933 O   0  0  0  0  0  0  0  0  0  0  0  0
  -16.6205   14.8412  -22.8816 C   0  0  0  0  0  0  0  0  0  0  0  0
  -15.3573   15.1451  -23.2097 C   0  0  0  0  0  0  0  0  0  0  0  0
  -14.7148   14.7534  -24.3724 C   0  0  0  0  0  0  0  0  0  0  0  0
  -15.3966   13.9864  -25.2875 C   0  0  0  0  0  0  0  0  0  0  0  0
  -16.6998   13.6383  -25.0050 C   0  0  0  0  0  0  0  0  0  0  0  0
  -17.5467   12.6595  -26.1847 Cl  0  0  0  0  0  0  0  0  0  0  0  0
  -17.3021   14.0493  -23.8383 C   0  0  0  0  0  0  0  0  0  0  0  0
  1  2  1  0  0  0
  2  3  1  0  0  0
  3  4  2  0  0  0
  4  5  1  0  0  0
  5  6  2  0  0  0
  6  7  1  0  0  0
  6  8  1  0  0  0
  8  9  2  0  0  0
  9 10  1  0  0  0
 10 11  2  0  0  0
 11 12  1  0  0  0
 12 13  1  0  0  0
 13 14  2  0  0  0
 10 15  1  0  0  0
 15 16  2  0  0  0
 16 17  1  0  0  0
 17 18  2  0  0  0
 18 19  1  0  0  0
 19 20  1  0  0  0
 19 21  2  0  0  0
 13  2  1  0  0  0
 21 15  1  0  0  0
  9  3  1  0  0  0
M  END
> <minimizedAffinity>
-7.72516

> <CNNscore>
0.4700297415

> <CNNaffinity>
5.8057408333

> <CNN_VS>
2.7288708687

> <CNNaffinity_variance>
0.2120787203

$$$$
[H]c1c([H])c(Cl)c([H])c(C2=NC([H])([H])C(=O)N(C([H])([H])[H])c3c([H])c([H])c(Cl)c([H])c32)c1[H]


 21 23  0  0  0  0  0  0  0  0999 V2000
  -16.4011   10.6745  -18.9163 C   0  0  0  0  0  0  0  0  0  0  0  0
  -16.9549   11.5221  -19.9012 N   0  0  0  0  0  0  0  0  0  0  0  0
  -17.9997   12.4311  -19.4694 C   0  0  0  0  0  0  0  0  0  0  0  0
  -18.7188   11.8822  -18.4212 C   0  0  0  0  0  0  0  0  0  0  0  0
  -19.8218   12.6012  -17.9963 C   0  0  0  0  0  0  0  0  0  0  0  0
  -20.1552   13.8066  -18.6197 C   0  0  0  0  0  0  0  0  0  0  0  0
  -21.5468   14.7036  -18.0678 Cl  0  0  0  0  0  0  0  0  0  0  0  0
  -19.4371   14.3328  -19.6496 C   0  0  0  0  0  0  0  0  0  0  0  0
  -18.3220   13.6255  -20.0839 C   0  0  0  0  0  0  0  0  0  0  0  0
  -17.6322   14.3493  -21.1409 C   0  0  0  0  0  0  0  0  0  0  0  0
  -17.0907   13.6821  -22.1361 N   0  0  0  0  0  0  0  0  0  0  0  0
  -17.0059   12.2769  -22.4472 C   0  0  0  0  0  0  0  0  0  0  0  0
  -16.5353   11.4778  -21.2809 C   0  0  0  0  0  0  0  0  0  0  0  0
  -15.6518   10.6487  -21.5231 O   0  0  0  0  0  0  0  0  0  0  0  0
  -17.5255   15.7677  -21.1508 C   0  0  0  0  0  0  0  0  0  0  0  0
  -16.8459   16.5877  -20.3374 C   0  0  0  0  0  0  0  0  0  0  0  0
  -16.8916   17.9715  -20.3738 C   0  0  0  0  0  0  0  0  0  0  0  0
  -17.6865   18.5901  -21.3098 C   0  0  0  0  0  0  0  0  0  0  0  0
  -18.4084   17.7995  -22.1775 C   0  0  0  0  0  0  0  0  0  0  0  0
  -19.4119   18.6104  -23.3618 Cl  0  0  0  0  0  0  0  0  0  0  0  0
  -18.3359   16.4274  -22.1072 C   0  0  0  0  0  0  0  0  0  0  0  0
  1  2  1  0  0  0
  2  3  1  0  0  0
  3  4  2  0  0  0
  4  5  1  0  0  0
  5  6  2  0  0  0
  6  7  1  0  0  0
  6  8  1  0  0  0
  8  9  2  0  0  0
  9 10  1  0  0  0
 10 11  2  0  0  0
 11 12  1  0  0  0
 12 13  1  0  0  0
 13 14  2  0  0  0
 10 15  1  0  0  0
 15 16  2  0  0  0
 16 17  1  0  0  0
 17 18  2  0  0  0
 18 19  1  0  0  0
 19 20  1  0  0  0
 19 21  2  0  0  0
 13  2  1  0  0  0
 21 15  1  0  0  0
  9  3  1  0  0  0
M  END
> <minimizedAffinity>
-7.19473

> <CNNscore>
0.4539035857

> <CNNaffinity>
6.0536823273

> <CNN_VS>
2.7477881908

> <CNNaffinity_variance>
0.2750065923

$$$$
[H]c1c([H])c(Cl)c([H])c(C2=NC([H])([H])C(=O)N(C([H])([H])[H])c3c([H])c([H])c(Cl)c([H])c32)c1[H]


 21 23  0  0  0  0  0  0  0  0999 V2000
  -18.1455   18.3948  -20.0783 C   0  0  0  0  0  0  0  0  0  0  0  0
  -18.7173   17.1543  -20.4379 N   0  0  0  0  0  0  0  0  0  0  0  0
  -17.8544   16.2102  -21.1221 C   0  0  0  0  0  0  0  0  0  0  0  0
  -16.9057   16.8782  -21.8777 C   0  0  0  0  0  0  0  0  0  0  0  0
  -16.0953   16.0892  -22.6746 C   0  0  0  0  0  0  0  0  0  0  0  0
  -16.2613   14.7018  -22.6865 C   0  0  0  0  0  0  0  0  0  0  0  0
  -15.2270   13.7210  -23.6935 Cl  0  0  0  0  0  0  0  0  0  0  0  0
  -17.1994   14.0603  -21.9370 C   0  0  0  0  0  0  0  0  0  0  0  0
  -18.0173   14.8385  -21.1261 C   0  0  0  0  0  0  0  0  0  0  0  0
  -18.9170   14.0015  -20.3469 C   0  0  0  0  0  0  0  0  0  0  0  0
  -20.1459   14.4091  -20.1182 N   0  0  0  0  0  0  0  0  0  0  0  0
  -20.8709   15.6004  -20.4839 C   0  0  0  0  0  0  0  0  0  0  0  0
  -20.0996   16.8369  -20.1729 C   0  0  0  0  0  0  0  0  0  0  0  0
  -20.7320   17.7315  -19.6016 O   0  0  0  0  0  0  0  0  0  0  0  0
  -18.5234   12.7389  -19.8234 C   0  0  0  0  0  0  0  0  0  0  0  0
  -18.8718   12.1318  -18.6806 C   0  0  0  0  0  0  0  0  0  0  0  0
  -18.3476   10.9373  -18.2154 C   0  0  0  0  0  0  0  0  0  0  0  0
  -17.3908   10.2909  -18.9620 C   0  0  0  0  0  0  0  0  0  0  0  0
  -16.9926   10.8648  -20.1500 C   0  0  0  0  0  0  0  0  0  0  0  0
  -15.7743   10.0219  -21.0840 Cl  0  0  0  0  0  0  0  0  0  0  0  0
  -17.5378   12.0540  -20.5760 C   0  0  0  0  0  0  0  0  0  0  0  0
  1  2  1  0  0  0
  2  3  1  0  0  0
  3  4  2  0  0  0
  4  5  1  0  0  0
  5  6  2  0  0  0
  6  7  1  0  0  0
  6  8  1  0  0  0
  8  9  2  0  0  0
  9 10  1  0  0  0
 10 11  2  0  0  0
 11 12  1  0  0  0
 12 13  1  0  0  0
 13 14  2  0  0  0
 10 15  1  0  0  0
 15 16  2  0  0  0
 16 17  1  0  0  0
 17 18  2  0  0  0
 18 19  1  0  0  0
 19 20  1  0  0  0
 19 21  2  0  0  0
 13  2  1  0  0  0
 21 15  1  0  0  0
  9  3  1  0  0  0
M  END
> <minimizedAffinity>
-8.05243

> <CNNscore>
0.4434272349

> <CNNaffinity>
5.8316431046

> <CNN_VS>
2.5859093666

> <CNNaffinity_variance>
0.1287393868

$$$$
[H]OC(=O)[C@@]([H])(N([H])C(=O)[C@@]([H])(N([H])C(=O)[C@@]([H])(N([H])C(=O)[C@@]([H])(N([H])C(=O)[C@@]([H])(N([H])C(=O)[C@@]([H])(N([H])C(=O)[C@@]([H])(N([H])C(=O)C([H])([H])[H])C([H])(C([H])([H])[H])C([H])([H])[H])C([H])([H])C([H])([H])C(=O)N([H])[H])C([H])([H])C([H])(C([H])([H])[H])C([H])([H])[H])C([H])([H])O[H])C([H])([H])O[H])C([H])([H])O[H])C([H])([H])O[H]


 66 65  0  0  0  0  0  0  0  0999 V2000
  -18.1677   13.8781  -21.1741 C   0  0  0  0  0  0  0  0  0  0  0  0
  -18.2013   12.6378  -21.2347 O   0  0  0  0  0  0  0  0  0  0  0  0
  -18.5474   14.6437  -20.0386 N   0  0  0  0  0  0  0  0  0  0  0  0
  -18.4545   15.7009  -20.1483 H   0  0  0  0  0  0  0  0  0  0  0  0
  -17.6861   14.6419  -22.4018 C   0  0  0  0  0  0  0  0  0  0  0  0
  -17.8562   16.0572  -22.1793 N   0  0  0  0  0  0  0  0  0  0  0  0
  -18.0927   16.9623  -23.2295 C   0  0  0  0  0  0  0  0  0  0  0  0
  -18.1852   16.5407  -24.3942 O   0  0  0  0  0  0  0  0  0  0  0  0
  -17.7968   16.4099  -21.2065 H   0  0  0  0  0  0  0  0  0  0  0  0
  -18.2420   18.4674  -23.0243 C   0  0  0  0  0  0  0  0  0  0  0  0
  -19.5709   18.7934  -23.5336 N   0  0  0  0  0  0  0  0  0  0  0  0
  -20.7409   18.2576  -22.9926 C   0  0  0  0  0  0  0  0  0  0  0  0
  -20.5510   17.4530  -21.9936 O   0  0  0  0  0  0  0  0  0  0  0  0
  -19.6408   19.4958  -24.2957 H   0  0  0  0  0  0  0  0  0  0  0  0
  -22.1217   18.4741  -23.3785 C   0  0  0  0  0  0  0  0  0  0  0  0
  -22.6938   19.6780  -22.7504 N   0  0  0  0  0  0  0  0  0  0  0  0
  -23.7360   19.6564  -21.7946 C   0  0  0  0  0  0  0  0  0  0  0  0
  -24.3038   20.8677  -21.1816 C   0  0  0  0  0  0  0  0  0  0  0  0
  -24.2295   18.5327  -21.4291 O   0  0  0  0  0  0  0  0  0  0  0  0
  -22.3189   20.6344  -23.0126 H   0  0  0  0  0  0  0  0  0  0  0  0
  -22.5363   18.4810  -24.7911 C   0  0  0  0  0  0  0  0  0  0  0  0
  -23.1828   19.7379  -25.3065 C   0  0  0  0  0  0  0  0  0  0  0  0
  -23.4307   17.3034  -25.1462 C   0  0  0  0  0  0  0  0  0  0  0  0
  -17.9552   18.7303  -21.6049 C   0  0  0  0  0  0  0  0  0  0  0  0
  -18.4222   19.9327  -20.9469 C   0  0  0  0  0  0  0  0  0  0  0  0
  -19.1836   19.8662  -19.7105 C   0  0  0  0  0  0  0  0  0  0  0  0
  -18.2982   19.8422  -18.5220 N   0  0  0  0  0  0  0  0  0  0  0  0
  -20.3908   19.8269  -19.5294 O   0  0  0  0  0  0  0  0  0  0  0  0
  -17.8829   18.9363  -18.3129 H   0  0  0  0  0  0  0  0  0  0  0  0
  -18.1675   20.7028  -18.0112 H   0  0  0  0  0  0  0  0  0  0  0  0
  -16.2653   14.2378  -22.5654 C   0  0  0  0  0  0  0  0  0  0  0  0
  -14.9348   14.4895  -24.7066 C   0  0  0  0  0  0  0  0  0  0  0  0
  -15.8417   13.6633  -23.8566 C   0  0  0  0  0  0  0  0  0  0  0  0
  -17.0054   13.1860  -24.7214 C   0  0  0  0  0  0  0  0  0  0  0  0
  -19.0470   14.0842  -18.7965 C   0  0  0  0  0  0  0  0  0  0  0  0
  -20.4548   14.3707  -18.5636 C   0  0  0  0  0  0  0  0  0  0  0  0
  -21.3158   13.8142  -19.3416 O   0  0  0  0  0  0  0  0  0  0  0  0
  -20.8948   15.2246  -17.5346 N   0  0  0  0  0  0  0  0  0  0  0  0
  -20.2107   15.6576  -16.8957 H   0  0  0  0  0  0  0  0  0  0  0  0
  -22.3037   15.5156  -17.3333 C   0  0  0  0  0  0  0  0  0  0  0  0
  -22.7439   16.8047  -17.8859 C   0  0  0  0  0  0  0  0  0  0  0  0
  -22.6980   16.8883  -19.1722 O   0  0  0  0  0  0  0  0  0  0  0  0
  -23.1971   17.9087  -17.1622 N   0  0  0  0  0  0  0  0  0  0  0  0
  -23.2427   17.8434  -16.1228 H   0  0  0  0  0  0  0  0  0  0  0  0
  -23.5937   19.1196  -17.8157 C   0  0  0  0  0  0  0  0  0  0  0  0
  -23.1819   20.2672  -16.9904 C   0  0  0  0  0  0  0  0  0  0  0  0
  -24.0022   21.1186  -16.6011 O   0  0  0  0  0  0  0  0  0  0  0  0
  -21.8177   20.4075  -16.6303 N   0  0  0  0  0  0  0  0  0  0  0  0
  -21.1264   19.6850  -16.9487 H   0  0  0  0  0  0  0  0  0  0  0  0
  -21.3799   21.5333  -15.8303 C   0  0  0  0  0  0  0  0  0  0  0  0
  -20.6084   22.5284  -16.5926 C   0  0  0  0  0  0  0  0  0  0  0  0
  -19.7252   22.1323  -17.5613 O   0  0  0  0  0  0  0  0  0  0  0  0
  -20.7666   23.7474  -16.3464 O   0  0  0  0  0  0  0  0  0  0  0  0
  -18.7146   22.1986  -17.4570 H   0  0  0  0  0  0  0  0  0  0  0  0
  -20.4947   20.9417  -14.7131 C   0  0  0  0  0  0  0  0  0  0  0  0
  -21.3538   20.5985  -13.6691 O   0  0  0  0  0  0  0  0  0  0  0  0
  -21.3113   19.6074  -13.5235 H   0  0  0  0  0  0  0  0  0  0  0  0
  -25.1109   19.2084  -17.9873 C   0  0  0  0  0  0  0  0  0  0  0  0
  -25.5074   18.2802  -18.9252 O   0  0  0  0  0  0  0  0  0  0  0  0
  -26.4046   18.3909  -19.2828 H   0  0  0  0  0  0  0  0  0  0  0  0
  -22.6103   15.5886  -15.8315 C   0  0  0  0  0  0  0  0  0  0  0  0
  -23.9360   15.1800  -15.6871 O   0  0  0  0  0  0  0  0  0  0  0  0
  -23.9674   14.2662  -16.1147 H   0  0  0  0  0  0  0  0  0  0  0  0
  -18.1868   14.6185  -17.6269 C   0  0  0  0  0  0  0  0  0  0  0  0
  -18.5372   14.0564  -16.4208 O   0  0  0  0  0  0  0  0  0  0  0  0
  -17.7798   14.0850  -15.7755 H   0  0  0  0  0  0  0  0  0  0  0  0
 32 33  1  0  0  0
 33 34  1  0  0  0
 33 31  1  0  0  0
 31  5  1  0  0  0
  5  6  1  0  0  0
  6  7  1  0  0  0
  7  8  2  0  0  0
  7 10  1  0  0  0
 10 24  1  0  0  0
 24 25  1  0  0  0
 25 26  1  0  0  0
 26 27  1  0  0  0
 26 28  2  0  0  0
 10 11  1  0  0  0
 11 12  1  0  0  0
 12 13  2  0  0  0
 12 15  1  0  0  0
 15 16  1  0  0  0
 16 17  1  0  0  0
 17 18  1  0  0  0
 17 19  2  0  0  0
 15 21  1  0  0  0
 21 22  1  0  0  0
 21 23  1  0  0  0
  5  1  1  0  0  0
  1  2  2  0  0  0
  1  3  1  0  0  0
  3 35  1  0  0  0
 35 64  1  0  0  0
 64 65  1  0  0  0
 35 36  1  0  0  0
 36 37  2  0  0  0
 36 38  1  0  0  0
 38 40  1  0  0  0
 40 61  1  0  0  0
 61 62  1  0  0  0
 40 41  1  0  0  0
 41 42  2  0  0  0
 41 43  1  0  0  0
 43 45  1  0  0  0
 45 58  1  0  0  0
 58 59  1  0  0  0
 45 46  1  0  0  0
 46 47  2  0  0  0
 46 48  1  0  0  0
 48 50  1  0  0  0
 50 55  1  0  0  0
 55 56  1  0  0  0
 50 51  1  0  0  0
 51 52  1  0  0  0
 51 53  2  0  0  0
  6  9  1  0  0  0
 27 29  1  0  0  0
 27 30  1  0  0  0
 11 14  1  0  0  0
 16 20  1  0  0  0
  3  4  1  0  0  0
 65 66  1  0  0  0
 38 39  1  0  0  0
 62 63  1  0  0  0
 43 44  1  0  0  0
 59 60  1  0  0  0
 48 49  1  0  0  0
 56 57  1  0  0  0
 52 54  1  0  0  0
M  END
> <minimizedAffinity>
-6.25463

> <CNNscore>
0.2762452662

> <CNNaffinity>
5.8529062271

> <CNN_VS>
1.6168376207

> <CNNaffinity_variance>
1.2442966700

$$$$
[H]OC(=O)[C@@]([H])(N([H])C(=O)[C@@]([H])(N([H])C(=O)[C@@]([H])(N([H])C(=O)[C@@]([H])(N([H])C(=O)[C@@]([H])(N([H])C(=O)[C@@]([H])(N([H])C(=O)[C@@]([H])(N([H])C(=O)C([H])([H])[H])C([H])(C([H])([H])[H])C([H])([H])[H])C([H])([H])C([H])([H])C(=O)N([H])[H])C([H])([H])C([H])(C([H])([H])[H])C([H])([H])[H])C([H])([H])O[H])C([H])([H])O[H])C([H])([H])O[H])C([H])([H])O[H]


 66 65  0  0  0  0  0  0  0  0999 V2000
  -17.8327   13.2448  -21.8438 C   0  0  0  0  0  0  0  0  0  0  0  0
  -18.9154   13.5803  -21.3355 O   0  0  0  0  0  0  0  0  0  0  0  0
  -17.1144   12.0641  -21.5128 N   0  0  0  0  0  0  0  0  0  0  0  0
  -16.2012   11.9201  -22.0454 H   0  0  0  0  0  0  0  0  0  0  0  0
  -17.2231   14.1600  -22.8990 C   0  0  0  0  0  0  0  0  0  0  0  0
  -17.2373   15.5194  -22.4163 N   0  0  0  0  0  0  0  0  0  0  0  0
  -17.9584   16.5406  -23.0604 C   0  0  0  0  0  0  0  0  0  0  0  0
  -18.6323   16.2739  -24.0692 O   0  0  0  0  0  0  0  0  0  0  0  0
  -16.6899   15.7416  -21.5646 H   0  0  0  0  0  0  0  0  0  0  0  0
  -17.9621   17.9926  -22.5897 C   0  0  0  0  0  0  0  0  0  0  0  0
  -19.3690   18.3815  -22.5582 N   0  0  0  0  0  0  0  0  0  0  0  0
  -19.8887   19.4057  -23.3514 C   0  0  0  0  0  0  0  0  0  0  0  0
  -19.0206   19.9779  -24.1263 O   0  0  0  0  0  0  0  0  0  0  0  0
  -20.0123   17.8310  -21.9563 H   0  0  0  0  0  0  0  0  0  0  0  0
  -21.2451   19.9112  -23.4372 C   0  0  0  0  0  0  0  0  0  0  0  0
  -22.1981   19.0814  -22.6793 N   0  0  0  0  0  0  0  0  0  0  0  0
  -23.0015   18.0689  -23.2536 C   0  0  0  0  0  0  0  0  0  0  0  0
  -23.9558   17.2533  -22.4857 C   0  0  0  0  0  0  0  0  0  0  0  0
  -22.9119   17.8328  -24.5090 O   0  0  0  0  0  0  0  0  0  0  0  0
  -22.3086   19.2309  -21.6356 H   0  0  0  0  0  0  0  0  0  0  0  0
  -21.5643   21.3183  -23.1449 C   0  0  0  0  0  0  0  0  0  0  0  0
  -21.9970   21.6425  -21.7409 C   0  0  0  0  0  0  0  0  0  0  0  0
  -22.5885   21.9001  -24.1068 C   0  0  0  0  0  0  0  0  0  0  0  0
  -17.1998   18.0300  -21.3312 C   0  0  0  0  0  0  0  0  0  0  0  0
  -17.8588   18.1682  -20.0492 C   0  0  0  0  0  0  0  0  0  0  0  0
  -18.0430   17.0245  -19.1711 C   0  0  0  0  0  0  0  0  0  0  0  0
  -18.5978   17.4264  -17.8566 N   0  0  0  0  0  0  0  0  0  0  0  0
  -17.8119   15.8403  -19.3602 O   0  0  0  0  0  0  0  0  0  0  0  0
  -17.9199   17.8158  -17.2042 H   0  0  0  0  0  0  0  0  0  0  0  0
  -19.5855   17.2919  -17.6982 H   0  0  0  0  0  0  0  0  0  0  0  0
  -15.8532   13.6263  -23.1168 C   0  0  0  0  0  0  0  0  0  0  0  0
  -14.1856   14.9482  -24.4914 C   0  0  0  0  0  0  0  0  0  0  0  0
  -15.2060   13.8613  -24.4217 C   0  0  0  0  0  0  0  0  0  0  0  0
  -16.1970   14.0609  -25.5653 C   0  0  0  0  0  0  0  0  0  0  0  0
  -17.5357   11.0939  -20.5194 C   0  0  0  0  0  0  0  0  0  0  0  0
  -17.6845   11.6635  -19.1883 C   0  0  0  0  0  0  0  0  0  0  0  0
  -16.6388   11.7181  -18.4400 O   0  0  0  0  0  0  0  0  0  0  0  0
  -18.9150   12.1446  -18.7026 N   0  0  0  0  0  0  0  0  0  0  0  0
  -19.7518   12.1218  -19.3049 H   0  0  0  0  0  0  0  0  0  0  0  0
  -19.0472   12.6887  -17.3622 C   0  0  0  0  0  0  0  0  0  0  0  0
  -19.6723   11.7763  -16.3939 C   0  0  0  0  0  0  0  0  0  0  0  0
  -20.1241   10.6776  -16.8964 O   0  0  0  0  0  0  0  0  0  0  0  0
  -19.8104   11.9873  -15.0212 N   0  0  0  0  0  0  0  0  0  0  0  0
  -19.4404   12.8706  -14.6093 H   0  0  0  0  0  0  0  0  0  0  0  0
  -20.4483   11.0227  -14.1768 C   0  0  0  0  0  0  0  0  0  0  0  0
  -21.1162   11.7234  -13.0674 C   0  0  0  0  0  0  0  0  0  0  0  0
  -21.9082   12.6617  -13.2711 O   0  0  0  0  0  0  0  0  0  0  0  0
  -20.8511   11.3207  -11.7340 N   0  0  0  0  0  0  0  0  0  0  0  0
  -20.1917   10.5228  -11.5609 H   0  0  0  0  0  0  0  0  0  0  0  0
  -21.4828   11.9996  -10.6209 C   0  0  0  0  0  0  0  0  0  0  0  0
  -20.6052   12.1422   -9.4478 C   0  0  0  0  0  0  0  0  0  0  0  0
  -20.6584   13.2683   -8.6705 O   0  0  0  0  0  0  0  0  0  0  0  0
  -19.8043   11.2202   -9.1649 O   0  0  0  0  0  0  0  0  0  0  0  0
  -19.9218   13.9711   -8.6537 H   0  0  0  0  0  0  0  0  0  0  0  0
  -22.7111   11.1448  -10.2438 C   0  0  0  0  0  0  0  0  0  0  0  0
  -22.2505    9.8366  -10.0944 O   0  0  0  0  0  0  0  0  0  0  0  0
  -22.3968    9.5450   -9.1464 H   0  0  0  0  0  0  0  0  0  0  0  0
  -19.4441   10.0499  -13.5567 C   0  0  0  0  0  0  0  0  0  0  0  0
  -19.2194    9.0183  -14.4421 O   0  0  0  0  0  0  0  0  0  0  0  0
  -18.7805    8.2310  -14.0780 H   0  0  0  0  0  0  0  0  0  0  0  0
  -19.9465   13.9317  -17.3918 C   0  0  0  0  0  0  0  0  0  0  0  0
  -20.1993   14.1943  -18.7381 O   0  0  0  0  0  0  0  0  0  0  0  0
  -20.5955   13.3365  -19.0933 H   0  0  0  0  0  0  0  0  0  0  0  0
  -16.5183    9.9286  -20.4971 C   0  0  0  0  0  0  0  0  0  0  0  0
  -15.2737   10.3126  -20.9407 O   0  0  0  0  0  0  0  0  0  0  0  0
  -14.5615    9.7214  -20.5743 H   0  0  0  0  0  0  0  0  0  0  0  0
 32 33  1  0  0  0
 33 34  1  0  0  0
 33 31  1  0  0  0
 31  5  1  0  0  0
  5  6  1  0  0  0
  6  7  1  0  0  0
  7  8  2  0  0  0
  7 10  1  0  0  0
 10 24  1  0  0  0
 24 25  1  0  0  0
 25 26  1  0  0  0
 26 27  1  0  0  0
 26 28  2  0  0  0
 10 11  1  0  0  0
 11 12  1  0  0  0
 12 13  2  0  0  0
 12 15  1  0  0  0
 15 16  1  0  0  0
 16 17  1  0  0  0
 17 18  1  0  0  0
 17 19  2  0  0  0
 15 21  1  0  0  0
 21 22  1  0  0  0
 21 23  1  0  0  0
  5  1  1  0  0  0
  1  2  2  0  0  0
  1  3  1  0  0  0
  3 35  1  0  0  0
 35 64  1  0  0  0
 64 65  1  0  0  0
 35 36  1  0  0  0
 36 37  2  0  0  0
 36 38  1  0  0  0
 38 40  1  0  0  0
 40 61  1  0  0  0
 61 62  1  0  0  0
 40 41  1  0  0  0
 41 42  2  0  0  0
 41 43  1  0  0  0
 43 45  1  0  0  0
 45 58  1  0  0  0
 58 59  1  0  0  0
 45 46  1  0  0  0
 46 47  2  0  0  0
 46 48  1  0  0  0
 48 50  1  0  0  0
 50 55  1  0  0  0
 55 56  1  0  0  0
 50 51  1  0  0  0
 51 52  1  0  0  0
 51 53  2  0  0  0
  6  9  1  0  0  0
 27 29  1  0  0  0
 27 30  1  0  0  0
 11 14  1  0  0  0
 16 20  1  0  0  0
  3  4  1  0  0  0
 65 66  1  0  0  0
 38 39  1  0  0  0
 62 63  1  0  0  0
 43 44  1  0  0  0
 59 60  1  0  0  0
 48 49  1  0  0  0
 56 57  1  0  0  0
 52 54  1  0  0  0
M  END
> <minimizedAffinity>
-7.04339

> <CNNscore>
0.2374132127

> <CNNaffinity>
6.1812300682

> <CNN_VS>
1.4675056934

> <CNNaffinity_variance>
0.4175280035

$$$$
[H]OC(=O)[C@@]([H])(N([H])C(=O)[C@@]([H])(N([H])C(=O)[C@@]([H])(N([H])C(=O)[C@@]([H])(N([H])C(=O)[C@@]([H])(N([H])C(=O)[C@@]([H])(N([H])C(=O)[C@@]([H])(N([H])C(=O)C([H])([H])[H])C([H])(C([H])([H])[H])C([H])([H])[H])C([H])([H])C([H])([H])C(=O)N([H])[H])C([H])([H])C([H])(C([H])([H])[H])C([H])([H])[H])C([H])([H])O[H])C([H])([H])O[H])C([H])([H])O[H])C([H])([H])O[H]


 66 65  0  0  0  0  0  0  0  0999 V2000
  -17.8014   13.2646  -21.8357 C   0  0  0  0  0  0  0  0  0  0  0  0
  -18.8592   13.5954  -21.2746 O   0  0  0  0  0  0  0  0  0  0  0  0
  -17.0881   12.0635  -21.5750 N   0  0  0  0  0  0  0  0  0  0  0  0
  -16.1979   11.9271  -22.1471 H   0  0  0  0  0  0  0  0  0  0  0  0
  -17.2194   14.2094  -22.8803 C   0  0  0  0  0  0  0  0  0  0  0  0
  -17.4025   15.5725  -22.4445 N   0  0  0  0  0  0  0  0  0  0  0  0
  -18.1718   16.4992  -23.1707 C   0  0  0  0  0  0  0  0  0  0  0  0
  -18.7406   16.1404  -24.2150 O   0  0  0  0  0  0  0  0  0  0  0  0
  -16.9433   15.8703  -21.5643 H   0  0  0  0  0  0  0  0  0  0  0  0
  -18.3527   17.9550  -22.7491 C   0  0  0  0  0  0  0  0  0  0  0  0
  -19.7970   18.1596  -22.6890 N   0  0  0  0  0  0  0  0  0  0  0  0
  -20.4446   19.1885  -23.3750 C   0  0  0  0  0  0  0  0  0  0  0  0
  -19.6585   19.9428  -24.0783 O   0  0  0  0  0  0  0  0  0  0  0  0
  -20.3636   17.4730  -22.1536 H   0  0  0  0  0  0  0  0  0  0  0  0
  -21.8540   19.5267  -23.4188 C   0  0  0  0  0  0  0  0  0  0  0  0
  -22.5863   18.7346  -24.4224 N   0  0  0  0  0  0  0  0  0  0  0  0
  -23.0343   19.2435  -25.6637 C   0  0  0  0  0  0  0  0  0  0  0  0
  -23.7726   18.4428  -26.6532 C   0  0  0  0  0  0  0  0  0  0  0  0
  -22.7977   20.4659  -25.9632 O   0  0  0  0  0  0  0  0  0  0  0  0
  -22.8045   17.7154  -24.2283 H   0  0  0  0  0  0  0  0  0  0  0  0
  -22.6790   19.5556  -22.1999 C   0  0  0  0  0  0  0  0  0  0  0  0
  -23.5521   18.3587  -21.9384 C   0  0  0  0  0  0  0  0  0  0  0  0
  -23.5400   20.8054  -22.1032 C   0  0  0  0  0  0  0  0  0  0  0  0
  -17.5705   18.1375  -21.5159 C   0  0  0  0  0  0  0  0  0  0  0  0
  -18.2086   18.2223  -20.2187 C   0  0  0  0  0  0  0  0  0  0  0  0
  -18.0958   17.1418  -19.2529 C   0  0  0  0  0  0  0  0  0  0  0  0
  -18.5243   17.5691  -17.8998 N   0  0  0  0  0  0  0  0  0  0  0  0
  -17.7134   15.9912  -19.3986 O   0  0  0  0  0  0  0  0  0  0  0  0
  -17.8328   18.1048  -17.3785 H   0  0  0  0  0  0  0  0  0  0  0  0
  -19.4493   17.3086  -17.5915 H   0  0  0  0  0  0  0  0  0  0  0  0
  -15.7912   13.8141  -22.9940 C   0  0  0  0  0  0  0  0  0  0  0  0
  -14.0572   14.8476  -24.5247 C   0  0  0  0  0  0  0  0  0  0  0  0
  -15.1538   13.8553  -24.3239 C   0  0  0  0  0  0  0  0  0  0  0  0
  -16.1491   14.0029  -25.4716 C   0  0  0  0  0  0  0  0  0  0  0  0
  -17.4851   11.0634  -20.6014 C   0  0  0  0  0  0  0  0  0  0  0  0
  -17.5809   11.5877  -19.2470 C   0  0  0  0  0  0  0  0  0  0  0  0
  -16.5141   11.5849  -18.5270 O   0  0  0  0  0  0  0  0  0  0  0  0
  -18.7830   12.0855  -18.7098 N   0  0  0  0  0  0  0  0  0  0  0  0
  -19.6362   12.1087  -19.2888 H   0  0  0  0  0  0  0  0  0  0  0  0
  -18.8627   12.5835  -17.3475 C   0  0  0  0  0  0  0  0  0  0  0  0
  -19.6755   11.7567  -16.4439 C   0  0  0  0  0  0  0  0  0  0  0  0
  -20.2726   10.7620  -17.0076 O   0  0  0  0  0  0  0  0  0  0  0  0
  -19.8476   11.9462  -15.0719 N   0  0  0  0  0  0  0  0  0  0  0  0
  -19.3614   12.7446  -14.6105 H   0  0  0  0  0  0  0  0  0  0  0  0
  -20.6752   11.0738  -14.2944 C   0  0  0  0  0  0  0  0  0  0  0  0
  -20.1918    9.6915  -14.4474 C   0  0  0  0  0  0  0  0  0  0  0  0
  -19.0046    9.3876  -14.2294 O   0  0  0  0  0  0  0  0  0  0  0  0
  -21.0997    8.6811  -14.8536 N   0  0  0  0  0  0  0  0  0  0  0  0
  -22.1034    8.9334  -15.0277 H   0  0  0  0  0  0  0  0  0  0  0  0
  -20.6508    7.3144  -15.0258 C   0  0  0  0  0  0  0  0  0  0  0  0
  -21.5919    6.4811  -15.7916 C   0  0  0  0  0  0  0  0  0  0  0  0
  -21.1310    5.5255  -16.6575 O   0  0  0  0  0  0  0  0  0  0  0  0
  -22.8248    6.6544  -15.6448 O   0  0  0  0  0  0  0  0  0  0  0  0
  -21.1965    5.6104  -17.6699 H   0  0  0  0  0  0  0  0  0  0  0  0
  -20.4924    6.7370  -13.6034 C   0  0  0  0  0  0  0  0  0  0  0  0
  -20.9947    5.4364  -13.6472 O   0  0  0  0  0  0  0  0  0  0  0  0
  -20.2548    4.7932  -13.4378 H   0  0  0  0  0  0  0  0  0  0  0  0
  -22.1313   11.0970  -14.7619 C   0  0  0  0  0  0  0  0  0  0  0  0
  -22.3976   12.3255  -15.3261 O   0  0  0  0  0  0  0  0  0  0  0  0
  -23.3366   12.5419  -15.4547 H   0  0  0  0  0  0  0  0  0  0  0  0
  -19.5223   13.9690  -17.3379 C   0  0  0  0  0  0  0  0  0  0  0  0
  -20.0091   14.1745  -18.6287 O   0  0  0  0  0  0  0  0  0  0  0  0
  -20.6123   13.3838  -18.8008 H   0  0  0  0  0  0  0  0  0  0  0  0
  -16.4807    9.8880  -20.6553 C   0  0  0  0  0  0  0  0  0  0  0  0
  -15.2476   10.2753  -21.1274 O   0  0  0  0  0  0  0  0  0  0  0  0
  -14.5300    9.6643  -20.8068 H   0  0  0  0  0  0  0  0  0  0  0  0
 32 33  1  0  0  0
 33 34  1  0  0  0
 33 31  1  0  0  0
 31  5  1  0  0  0
  5  6  1  0  0  0
  6  7  1  0  0  0
  7  8  2  0  0  0
  7 10  1  0  0  0
 10 24  1  0  0  0
 24 25  1  0  0  0
 25 26  1  0  0  0
 26 27  1  0  0  0
 26 28  2  0  0  0
 10 11  1  0  0  0
 11 12  1  0  0  0
 12 13  2  0  0  0
 12 15  1  0  0  0
 15 16  1  0  0  0
 16 17  1  0  0  0
 17 18  1  0  0  0
 17 19  2  0  0  0
 15 21  1  0  0  0
 21 22  1  0  0  0
 21 23  1  0  0  0
  5  1  1  0  0  0
  1  2  2  0  0  0
  1  3  1  0  0  0
  3 35  1  0  0  0
 35 64  1  0  0  0
 64 65  1  0  0  0
 35 36  1  0  0  0
 36 37  2  0  0  0
 36 38  1  0  0  0
 38 40  1  0  0  0
 40 61  1  0  0  0
 61 62  1  0  0  0
 40 41  1  0  0  0
 41 42  2  0  0  0
 41 43  1  0  0  0
 43 45  1  0  0  0
 45 58  1  0  0  0
 58 59  1  0  0  0
 45 46  1  0  0  0
 46 47  2  0  0  0
 46 48  1  0  0  0
 48 50  1  0  0  0
 50 55  1  0  0  0
 55 56  1  0  0  0
 50 51  1  0  0  0
 51 52  1  0  0  0
 51 53  2  0  0  0
  6  9  1  0  0  0
 27 29  1  0  0  0
 27 30  1  0  0  0
 11 14  1  0  0  0
 16 20  1  0  0  0
  3  4  1  0  0  0
 65 66  1  0  0  0
 38 39  1  0  0  0
 62 63  1  0  0  0
 43 44  1  0  0  0
 59 60  1  0  0  0
 48 49  1  0  0  0
 56 57  1  0  0  0
 52 54  1  0  0  0
M  END
> <minimizedAffinity>
-7.30728

> <CNNscore>
0.2084228992

> <CNNaffinity>
6.3779511452

> <CNN_VS>
1.3293110132

> <CNNaffinity_variance>
0.3053644300

$$$$
[H]OC(=O)[C@@]([H])(N([H])C(=O)[C@@]([H])(N([H])C(=O)[C@@]([H])(N([H])C(=O)[C@@]([H])(N([H])C(=O)[C@@]([H])(N([H])C(=O)[C@@]([H])(N([H])C(=O)[C@@]([H])(N([H])C(=O)C([H])([H])[H])C([H])(C([H])([H])[H])C([H])([H])[H])C([H])([H])C([H])([H])C(=O)N([H])[H])C([H])([H])C([H])(C([H])([H])[H])C([H])([H])[H])C([H])([H])O[H])C([H])([H])O[H])C([H])([H])O[H])C([H])([H])O[H]


 66 65  0  0  0  0  0  0  0  0999 V2000
  -18.5929   13.4747  -20.4525 C   0  0  0  0  0  0  0  0  0  0  0  0
  -19.4015   12.5950  -20.1129 O   0  0  0  0  0  0  0  0  0  0  0  0
  -18.4905   14.7569  -19.8482 N   0  0  0  0  0  0  0  0  0  0  0  0
  -17.7389   15.3953  -20.2552 H   0  0  0  0  0  0  0  0  0  0  0  0
  -17.6383   13.1654  -21.5995 C   0  0  0  0  0  0  0  0  0  0  0  0
  -17.2735   14.3948  -22.2605 N   0  0  0  0  0  0  0  0  0  0  0  0
  -17.4815   14.6015  -23.6360 C   0  0  0  0  0  0  0  0  0  0  0  0
  -18.0198   13.7123  -24.3160 O   0  0  0  0  0  0  0  0  0  0  0  0
  -16.8399   15.1454  -21.6923 H   0  0  0  0  0  0  0  0  0  0  0  0
  -17.0735   15.8789  -24.3651 C   0  0  0  0  0  0  0  0  0  0  0  0
  -17.4245   16.9669  -23.4569 N   0  0  0  0  0  0  0  0  0  0  0  0
  -18.7306   17.4361  -23.3074 C   0  0  0  0  0  0  0  0  0  0  0  0
  -19.6092   16.8194  -24.0349 O   0  0  0  0  0  0  0  0  0  0  0  0
  -16.6719   17.3658  -22.8622 H   0  0  0  0  0  0  0  0  0  0  0  0
  -19.2409   18.4967  -22.4605 C   0  0  0  0  0  0  0  0  0  0  0  0
  -20.4155   18.0703  -21.6798 N   0  0  0  0  0  0  0  0  0  0  0  0
  -21.7375   18.5056  -21.9316 C   0  0  0  0  0  0  0  0  0  0  0  0
  -22.9005   18.0780  -21.1380 C   0  0  0  0  0  0  0  0  0  0  0  0
  -21.9578   19.3180  -22.8966 O   0  0  0  0  0  0  0  0  0  0  0  0
  -20.2911   17.3942  -20.8727 H   0  0  0  0  0  0  0  0  0  0  0  0
  -18.3613   19.2473  -21.5493 C   0  0  0  0  0  0  0  0  0  0  0  0
  -18.1516   18.6719  -20.1751 C   0  0  0  0  0  0  0  0  0  0  0  0
  -18.7759   20.7028  -21.3995 C   0  0  0  0  0  0  0  0  0  0  0  0
  -15.6610   15.7153  -24.7446 C   0  0  0  0  0  0  0  0  0  0  0  0
  -15.2280   15.8265  -26.1220 C   0  0  0  0  0  0  0  0  0  0  0  0
  -16.0045   15.2436  -27.2038 C   0  0  0  0  0  0  0  0  0  0  0  0
  -15.9411   16.0714  -28.4318 N   0  0  0  0  0  0  0  0  0  0  0  0
  -16.6687   14.2192  -27.2342 O   0  0  0  0  0  0  0  0  0  0  0  0
  -16.5526   16.8856  -28.4340 H   0  0  0  0  0  0  0  0  0  0  0  0
  -15.3122   15.7820  -29.1662 H   0  0  0  0  0  0  0  0  0  0  0  0
  -16.4874   12.4771  -20.9586 C   0  0  0  0  0  0  0  0  0  0  0  0
  -16.4731   10.7732  -19.0839 C   0  0  0  0  0  0  0  0  0  0  0  0
  -16.6544   11.0739  -20.5344 C   0  0  0  0  0  0  0  0  0  0  0  0
  -15.8066   10.0906  -21.3369 C   0  0  0  0  0  0  0  0  0  0  0  0
  -19.3303   15.2258  -18.7618 C   0  0  0  0  0  0  0  0  0  0  0  0
  -19.2895   14.3619  -17.5912 C   0  0  0  0  0  0  0  0  0  0  0  0
  -18.2287   14.3900  -16.8629 O   0  0  0  0  0  0  0  0  0  0  0  0
  -20.3538   13.5102  -17.2397 N   0  0  0  0  0  0  0  0  0  0  0  0
  -21.2142   13.4983  -17.8082 H   0  0  0  0  0  0  0  0  0  0  0  0
  -20.2839   12.6387  -16.0797 C   0  0  0  0  0  0  0  0  0  0  0  0
  -20.0142   11.2282  -16.3936 C   0  0  0  0  0  0  0  0  0  0  0  0
  -19.2873   11.0343  -17.4413 O   0  0  0  0  0  0  0  0  0  0  0  0
  -20.4586   10.1166  -15.6761 N   0  0  0  0  0  0  0  0  0  0  0  0
  -21.0404   10.2684  -14.8246 H   0  0  0  0  0  0  0  0  0  0  0  0
  -20.1354    8.7834  -16.0869 C   0  0  0  0  0  0  0  0  0  0  0  0
  -21.2390    7.8845  -15.7102 C   0  0  0  0  0  0  0  0  0  0  0  0
  -22.3120    8.3233  -15.2568 O   0  0  0  0  0  0  0  0  0  0  0  0
  -21.0765    6.4847  -15.8666 N   0  0  0  0  0  0  0  0  0  0  0  0
  -20.1766    6.1136  -16.2586 H   0  0  0  0  0  0  0  0  0  0  0  0
  -22.1394    5.5742  -15.4922 C   0  0  0  0  0  0  0  0  0  0  0  0
  -22.0688    5.1374  -14.0884 C   0  0  0  0  0  0  0  0  0  0  0  0
  -20.8671    5.0877  -13.4337 O   0  0  0  0  0  0  0  0  0  0  0  0
  -23.1226    4.8090  -13.4940 O   0  0  0  0  0  0  0  0  0  0  0  0
  -20.4033    4.2169  -13.1821 H   0  0  0  0  0  0  0  0  0  0  0  0
  -21.9959    4.3493  -16.4200 C   0  0  0  0  0  0  0  0  0  0  0  0
  -21.7324    3.2570  -15.5934 O   0  0  0  0  0  0  0  0  0  0  0  0
  -22.4790    2.5936  -15.6808 H   0  0  0  0  0  0  0  0  0  0  0  0
  -18.8732    8.2613  -15.3988 C   0  0  0  0  0  0  0  0  0  0  0  0
  -17.8086    8.3927  -16.2635 O   0  0  0  0  0  0  0  0  0  0  0  0
  -17.0058    7.8960  -16.0312 H   0  0  0  0  0  0  0  0  0  0  0  0
  -21.6304   12.6433  -15.3438 C   0  0  0  0  0  0  0  0  0  0  0  0
  -21.3285   12.5664  -13.9843 O   0  0  0  0  0  0  0  0  0  0  0  0
  -20.7148   13.3500  -13.8165 H   0  0  0  0  0  0  0  0  0  0  0  0
  -20.7818   15.3668  -19.2782 C   0  0  0  0  0  0  0  0  0  0  0  0
  -21.4385   14.1587  -19.3284 O   0  0  0  0  0  0  0  0  0  0  0  0
  -22.4250   14.2815  -19.2752 H   0  0  0  0  0  0  0  0  0  0  0  0
 32 33  1  0  0  0
 33 34  1  0  0  0
 33 31  1  0  0  0
 31  5  1  0  0  0
  5  6  1  0  0  0
  6  7  1  0  0  0
  7  8  2  0  0  0
  7 10  1  0  0  0
 10 24  1  0  0  0
 24 25  1  0  0  0
 25 26  1  0  0  0
 26 27  1  0  0  0
 26 28  2  0  0  0
 10 11  1  0  0  0
 11 12  1  0  0  0
 12 13  2  0  0  0
 12 15  1  0  0  0
 15 16  1  0  0  0
 16 17  1  0  0  0
 17 18  1  0  0  0
 17 19  2  0  0  0
 15 21  1  0  0  0
 21 22  1  0  0  0
 21 23  1  0  0  0
  5  1  1  0  0  0
  1  2  2  0  0  0
  1  3  1  0  0  0
  3 35  1  0  0  0
 35 64  1  0  0  0
 64 65  1  0  0  0
 35 36  1  0  0  0
 36 37  2  0  0  0
 36 38  1  0  0  0
 38 40  1  0  0  0
 40 61  1  0  0  0
 61 62  1  0  0  0
 40 41  1  0  0  0
 41 42  2  0  0  0
 41 43  1  0  0  0
 43 45  1  0  0  0
 45 58  1  0  0  0
 58 59  1  0  0  0
 45 46  1  0  0  0
 46 47  2  0  0  0
 46 48  1  0  0  0
 48 50  1  0  0  0
 50 55  1  0  0  0
 55 56  1  0  0  0
 50 51  1  0  0  0
 51 52  1  0  0  0
 51 53  2  0  0  0
  6  9  1  0  0  0
 27 29  1  0  0  0
 27 30  1  0  0  0
 11 14  1  0  0  0
 16 20  1  0  0  0
  3  4  1  0  0  0
 65 66  1  0  0  0
 38 39  1  0  0  0
 62 63  1  0  0  0
 43 44  1  0  0  0
 59 60  1  0  0  0
 48 49  1  0  0  0
 56 57  1  0  0  0
 52 54  1  0  0  0
M  END
> <minimizedAffinity>
-6.92485

> <CNNscore>
0.2008054405

> <CNNaffinity>
6.3017015457

> <CNN_VS>
1.2654159069

> <CNNaffinity_variance>
0.5930314064

$$$$
[H]OC(=O)[C@@]([H])(N([H])C(=O)[C@@]([H])(N([H])C(=O)[C@@]([H])(N([H])C(=O)[C@@]([H])(N([H])C(=O)[C@@]([H])(N([H])C(=O)[C@@]([H])(N([H])C(=O)[C@@]([H])(N([H])C(=O)C([H])([H])[H])C([H])(C([H])([H])[H])C([H])([H])[H])C([H])([H])C([H])([H])C(=O)N([H])[H])C([H])([H])C([H])(C([H])([H])[H])C([H])([H])[H])C([H])([H])O[H])C([H])([H])O[H])C([H])([H])O[H])C([H])([H])O[H]


 66 65  0  0  0  0  0  0  0  0999 V2000
  -20.2385   13.6793  -17.0811 C   0  0  0  0  0  0  0  0  0  0  0  0
  -21.1726   13.6411  -17.8991 O   0  0  0  0  0  0  0  0  0  0  0  0
  -19.7609   14.8608  -16.4522 N   0  0  0  0  0  0  0  0  0  0  0  0
  -18.9531   14.7207  -15.7695 H   0  0  0  0  0  0  0  0  0  0  0  0
  -19.5488   12.3690  -16.7206 C   0  0  0  0  0  0  0  0  0  0  0  0
  -20.4057   11.6040  -15.8477 N   0  0  0  0  0  0  0  0  0  0  0  0
  -20.0133   10.3707  -15.2973 C   0  0  0  0  0  0  0  0  0  0  0  0
  -18.8815    9.9214  -15.5424 O   0  0  0  0  0  0  0  0  0  0  0  0
  -21.3442   11.9847  -15.6273 H   0  0  0  0  0  0  0  0  0  0  0  0
  -20.9137    9.5265  -14.3994 C   0  0  0  0  0  0  0  0  0  0  0  0
  -20.6265    9.9740  -13.0396 N   0  0  0  0  0  0  0  0  0  0  0  0
  -20.4404    9.0899  -11.9756 C   0  0  0  0  0  0  0  0  0  0  0  0
  -20.5342    7.8369  -12.2959 O   0  0  0  0  0  0  0  0  0  0  0  0
  -20.5045   10.9930  -12.8786 H   0  0  0  0  0  0  0  0  0  0  0  0
  -20.1540    9.3680  -10.5815 C   0  0  0  0  0  0  0  0  0  0  0  0
  -18.7521    9.7690  -10.3698 N   0  0  0  0  0  0  0  0  0  0  0  0
  -17.8215    9.0303   -9.6026 C   0  0  0  0  0  0  0  0  0  0  0  0
  -16.4261    9.4475   -9.3923 C   0  0  0  0  0  0  0  0  0  0  0  0
  -18.1919    7.9363   -9.0495 O   0  0  0  0  0  0  0  0  0  0  0  0
  -18.3907   10.6637  -10.8093 H   0  0  0  0  0  0  0  0  0  0  0  0
  -20.9930   10.2815   -9.7887 C   0  0  0  0  0  0  0  0  0  0  0  0
  -20.4410   11.6551   -9.5201 C   0  0  0  0  0  0  0  0  0  0  0  0
  -21.4317    9.6756   -8.4646 C   0  0  0  0  0  0  0  0  0  0  0  0
  -22.2851    9.6830  -14.9101 C   0  0  0  0  0  0  0  0  0  0  0  0
  -23.3286   10.2872  -14.1083 C   0  0  0  0  0  0  0  0  0  0  0  0
  -23.3772   11.7243  -13.8961 C   0  0  0  0  0  0  0  0  0  0  0  0
  -24.4946   12.3511  -14.6416 N   0  0  0  0  0  0  0  0  0  0  0  0
  -22.6575   12.4466  -13.2237 O   0  0  0  0  0  0  0  0  0  0  0  0
  -24.3179   12.5052  -15.6325 H   0  0  0  0  0  0  0  0  0  0  0  0
  -25.3357   12.5778  -14.1321 H   0  0  0  0  0  0  0  0  0  0  0  0
  -19.2928   11.7047  -18.0252 C   0  0  0  0  0  0  0  0  0  0  0  0
  -18.1711   12.6612  -20.0856 C   0  0  0  0  0  0  0  0  0  0  0  0
  -18.0434   12.0221  -18.7429 C   0  0  0  0  0  0  0  0  0  0  0  0
  -17.0940   10.8334  -18.8668 C   0  0  0  0  0  0  0  0  0  0  0  0
  -20.2850   16.1924  -16.6926 C   0  0  0  0  0  0  0  0  0  0  0  0
  -20.0993   16.6429  -18.0641 C   0  0  0  0  0  0  0  0  0  0  0  0
  -21.1165   16.6000  -18.8514 O   0  0  0  0  0  0  0  0  0  0  0  0
  -18.8632   17.1122  -18.5474 N   0  0  0  0  0  0  0  0  0  0  0  0
  -18.0498   17.1676  -17.9157 H   0  0  0  0  0  0  0  0  0  0  0  0
  -18.6932   17.5360  -19.9264 C   0  0  0  0  0  0  0  0  0  0  0  0
  -17.8604   16.6389  -20.7403 C   0  0  0  0  0  0  0  0  0  0  0  0
  -16.9926   15.9527  -20.0771 O   0  0  0  0  0  0  0  0  0  0  0  0
  -17.9287   16.4676  -22.1238 N   0  0  0  0  0  0  0  0  0  0  0  0
  -18.6332   17.0147  -22.6633 H   0  0  0  0  0  0  0  0  0  0  0  0
  -17.0541   15.5647  -22.8096 C   0  0  0  0  0  0  0  0  0  0  0  0
  -16.5653   16.2109  -24.0389 C   0  0  0  0  0  0  0  0  0  0  0  0
  -16.5960   17.4469  -24.1827 O   0  0  0  0  0  0  0  0  0  0  0  0
  -16.0474   15.4066  -25.0855 N   0  0  0  0  0  0  0  0  0  0  0  0
  -16.0110   14.3652  -24.9618 H   0  0  0  0  0  0  0  0  0  0  0  0
  -15.5715   16.0126  -26.3124 C   0  0  0  0  0  0  0  0  0  0  0  0
  -15.9761   15.2792  -27.5229 C   0  0  0  0  0  0  0  0  0  0  0  0
  -16.8547   14.2320  -27.4421 O   0  0  0  0  0  0  0  0  0  0  0  0
  -15.5069   15.6221  -28.6337 O   0  0  0  0  0  0  0  0  0  0  0  0
  -16.5809   13.2609  -27.5783 H   0  0  0  0  0  0  0  0  0  0  0  0
  -14.0317   16.0264  -26.2098 C   0  0  0  0  0  0  0  0  0  0  0  0
  -13.6900   15.0525  -25.2715 O   0  0  0  0  0  0  0  0  0  0  0  0
  -13.1429   14.3430  -25.7214 H   0  0  0  0  0  0  0  0  0  0  0  0
  -17.7702   14.2800  -23.2291 C   0  0  0  0  0  0  0  0  0  0  0  0
  -16.8507   13.2552  -23.2820 O   0  0  0  0  0  0  0  0  0  0  0  0
  -17.1344   12.4505  -23.7478 H   0  0  0  0  0  0  0  0  0  0  0  0
  -17.9882   18.8983  -19.9686 C   0  0  0  0  0  0  0  0  0  0  0  0
  -16.6451   18.6309  -20.2328 O   0  0  0  0  0  0  0  0  0  0  0  0
  -16.6569   18.0970  -21.0894 H   0  0  0  0  0  0  0  0  0  0  0  0
  -19.6158   17.1778  -15.7055 C   0  0  0  0  0  0  0  0  0  0  0  0
  -20.1328   18.4491  -15.8048 O   0  0  0  0  0  0  0  0  0  0  0  0
  -20.0057   18.9577  -14.9585 H   0  0  0  0  0  0  0  0  0  0  0  0
 32 33  1  0  0  0
 33 34  1  0  0  0
 33 31  1  0  0  0
 31  5  1  0  0  0
  5  6  1  0  0  0
  6  7  1  0  0  0
  7  8  2  0  0  0
  7 10  1  0  0  0
 10 24  1  0  0  0
 24 25  1  0  0  0
 25 26  1  0  0  0
 26 27  1  0  0  0
 26 28  2  0  0  0
 10 11  1  0  0  0
 11 12  1  0  0  0
 12 13  2  0  0  0
 12 15  1  0  0  0
 15 16  1  0  0  0
 16 17  1  0  0  0
 17 18  1  0  0  0
 17 19  2  0  0  0
 15 21  1  0  0  0
 21 22  1  0  0  0
 21 23  1  0  0  0
  5  1  1  0  0  0
  1  2  2  0  0  0
  1  3  1  0  0  0
  3 35  1  0  0  0
 35 64  1  0  0  0
 64 65  1  0  0  0
 35 36  1  0  0  0
 36 37  2  0  0  0
 36 38  1  0  0  0
 38 40  1  0  0  0
 40 61  1  0  0  0
 61 62  1  0  0  0
 40 41  1  0  0  0
 41 42  2  0  0  0
 41 43  1  0  0  0
 43 45  1  0  0  0
 45 58  1  0  0  0
 58 59  1  0  0  0
 45 46  1  0  0  0
 46 47  2  0  0  0
 46 48  1  0  0  0
 48 50  1  0  0  0
 50 55  1  0  0  0
 55 56  1  0  0  0
 50 51  1  0  0  0
 51 52  1  0  0  0
 51 53  2  0  0  0
  6  9  1  0  0  0
 27 29  1  0  0  0
 27 30  1  0  0  0
 11 14  1  0  0  0
 16 20  1  0  0  0
  3  4  1  0  0  0
 65 66  1  0  0  0
 38 39  1  0  0  0
 62 63  1  0  0  0
 43 44  1  0  0  0
 59 60  1  0  0  0
 48 49  1  0  0  0
 56 57  1  0  0  0
 52 54  1  0  0  0
M  END
> <minimizedAffinity>
-6.52917

> <CNNscore>
0.1758867949

> <CNNaffinity>
6.1786165237

> <CNN_VS>
1.0867370367

> <CNNaffinity_variance>
0.4166098535

$$$$
[H]OC(=O)[C@@]([H])(N([H])C(=O)[C@@]([H])(N([H])C(=O)[C@@]([H])(N([H])C(=O)[C@@]([H])(N([H])C(=O)[C@@]([H])(N([H])C(=O)[C@@]([H])(N([H])C(=O)[C@@]([H])(N([H])C(=O)C([H])([H])[H])C([H])(C([H])([H])[H])C([H])([H])[H])C([H])([H])C([H])([H])C(=O)N([H])[H])C([H])([H])C([H])(C([H])([H])[H])C([H])([H])[H])C([H])([H])O[H])C([H])([H])O[H])C([H])([H])O[H])C([H])([H])O[H]


 66 65  0  0  0  0  0  0  0  0999 V2000
  -17.7914   14.1852  -20.5023 C   0  0  0  0  0  0  0  0  0  0  0  0
  -17.3661   13.0392  -20.2810 O   0  0  0  0  0  0  0  0  0  0  0  0
  -18.3002   15.0656  -19.5095 N   0  0  0  0  0  0  0  0  0  0  0  0
  -18.6216   16.0187  -19.8651 H   0  0  0  0  0  0  0  0  0  0  0  0
  -17.7702   14.6915  -21.9396 C   0  0  0  0  0  0  0  0  0  0  0  0
  -18.1383   16.0863  -21.9588 N   0  0  0  0  0  0  0  0  0  0  0  0
  -18.6404   16.7176  -23.1109 C   0  0  0  0  0  0  0  0  0  0  0  0
  -18.8014   16.0585  -24.1514 O   0  0  0  0  0  0  0  0  0  0  0  0
  -18.0214   16.6349  -21.0872 H   0  0  0  0  0  0  0  0  0  0  0  0
  -19.0046   18.1988  -23.1666 C   0  0  0  0  0  0  0  0  0  0  0  0
  -20.4435   18.2487  -22.9245 N   0  0  0  0  0  0  0  0  0  0  0  0
  -21.2857   19.1652  -23.5564 C   0  0  0  0  0  0  0  0  0  0  0  0
  -20.6861   19.9634  -24.3839 O   0  0  0  0  0  0  0  0  0  0  0  0
  -20.8558   17.5329  -22.2945 H   0  0  0  0  0  0  0  0  0  0  0  0
  -22.7186   19.3463  -23.4267 C   0  0  0  0  0  0  0  0  0  0  0  0
  -23.1412   19.4581  -22.0196 N   0  0  0  0  0  0  0  0  0  0  0  0
  -23.8891   18.4727  -21.3340 C   0  0  0  0  0  0  0  0  0  0  0  0
  -24.3119   18.6015  -19.9305 C   0  0  0  0  0  0  0  0  0  0  0  0
  -24.2299   17.4024  -21.9490 O   0  0  0  0  0  0  0  0  0  0  0  0
  -22.8815   20.3212  -21.4613 H   0  0  0  0  0  0  0  0  0  0  0  0
  -23.4364   20.3868  -24.1812 C   0  0  0  0  0  0  0  0  0  0  0  0
  -24.0568   21.5020  -23.3844 C   0  0  0  0  0  0  0  0  0  0  0  0
  -24.4975   19.8137  -25.1076 C   0  0  0  0  0  0  0  0  0  0  0  0
  -18.1137   18.8883  -22.2195 C   0  0  0  0  0  0  0  0  0  0  0  0
  -18.5749   20.0033  -21.4188 C   0  0  0  0  0  0  0  0  0  0  0  0
  -19.3203   19.7890  -20.1894 C   0  0  0  0  0  0  0  0  0  0  0  0
  -18.4452   19.8739  -18.9960 N   0  0  0  0  0  0  0  0  0  0  0  0
  -20.5071   19.5582  -20.0173 O   0  0  0  0  0  0  0  0  0  0  0  0
  -17.8946   19.0387  -18.8057 H   0  0  0  0  0  0  0  0  0  0  0  0
  -18.4514   20.7316  -18.4641 H   0  0  0  0  0  0  0  0  0  0  0  0
  -16.3820   14.4420  -22.4080 C   0  0  0  0  0  0  0  0  0  0  0  0
  -17.3804   13.0066  -24.2413 C   0  0  0  0  0  0  0  0  0  0  0  0
  -16.1717   13.4725  -23.5001 C   0  0  0  0  0  0  0  0  0  0  0  0
  -15.3664   12.2463  -23.0786 C   0  0  0  0  0  0  0  0  0  0  0  0
  -18.4127   14.7415  -18.0996 C   0  0  0  0  0  0  0  0  0  0  0  0
  -19.5012   13.8203  -17.8079 C   0  0  0  0  0  0  0  0  0  0  0  0
  -20.6696   14.1108  -18.2627 O   0  0  0  0  0  0  0  0  0  0  0  0
  -19.3188   12.6451  -17.0548 N   0  0  0  0  0  0  0  0  0  0  0  0
  -18.3809   12.3971  -16.7048 H   0  0  0  0  0  0  0  0  0  0  0  0
  -20.4233   11.7503  -16.7555 C   0  0  0  0  0  0  0  0  0  0  0  0
  -21.0173   11.9410  -15.4244 C   0  0  0  0  0  0  0  0  0  0  0  0
  -20.2457   11.6364  -14.4366 O   0  0  0  0  0  0  0  0  0  0  0  0
  -22.3011   12.4125  -15.1461 N   0  0  0  0  0  0  0  0  0  0  0  0
  -22.9258   12.6667  -15.9410 H   0  0  0  0  0  0  0  0  0  0  0  0
  -22.7724   12.5488  -13.8008 C   0  0  0  0  0  0  0  0  0  0  0  0
  -24.0552   11.8387  -13.6676 C   0  0  0  0  0  0  0  0  0  0  0  0
  -24.5371   11.5656  -12.5529 O   0  0  0  0  0  0  0  0  0  0  0  0
  -24.7596   11.4554  -14.8370 N   0  0  0  0  0  0  0  0  0  0  0  0
  -24.3601   11.6941  -15.7775 H   0  0  0  0  0  0  0  0  0  0  0  0
  -26.0177   10.7438  -14.7381 C   0  0  0  0  0  0  0  0  0  0  0  0
  -25.8846    9.2902  -14.9284 C   0  0  0  0  0  0  0  0  0  0  0  0
  -25.0069    8.7856  -15.8504 O   0  0  0  0  0  0  0  0  0  0  0  0
  -26.5852    8.5141  -14.2367 O   0  0  0  0  0  0  0  0  0  0  0  0
  -25.3014    8.3453  -16.7199 H   0  0  0  0  0  0  0  0  0  0  0  0
  -26.9233   11.3266  -15.8434 C   0  0  0  0  0  0  0  0  0  0  0  0
  -27.5121   10.2375  -16.4862 O   0  0  0  0  0  0  0  0  0  0  0  0
  -28.5057   10.2819  -16.3602 H   0  0  0  0  0  0  0  0  0  0  0  0
  -23.0245   14.0102  -13.4267 C   0  0  0  0  0  0  0  0  0  0  0  0
  -22.9397   14.1397  -12.0576 O   0  0  0  0  0  0  0  0  0  0  0  0
  -23.2983   14.9623  -11.6834 H   0  0  0  0  0  0  0  0  0  0  0  0
  -19.9357   10.2956  -16.7808 C   0  0  0  0  0  0  0  0  0  0  0  0
  -18.8466   10.2678  -17.6516 O   0  0  0  0  0  0  0  0  0  0  0  0
  -18.2081   10.9560  -17.2808 H   0  0  0  0  0  0  0  0  0  0  0  0
  -18.5866   16.0535  -17.2983 C   0  0  0  0  0  0  0  0  0  0  0  0
  -18.1980   17.1605  -18.0172 O   0  0  0  0  0  0  0  0  0  0  0  0
  -18.6523   17.9827  -17.6878 H   0  0  0  0  0  0  0  0  0  0  0  0
 32 33  1  0  0  0
 33 34  1  0  0  0
 33 31  1  0  0  0
 31  5  1  0  0  0
  5  6  1  0  0  0
  6  7  1  0  0  0
  7  8  2  0  0  0
  7 10  1  0  0  0
 10 24  1  0  0  0
 24 25  1  0  0  0
 25 26  1  0  0  0
 26 27  1  0  0  0
 26 28  2  0  0  0
 10 11  1  0  0  0
 11 12  1  0  0  0
 12 13  2  0  0  0
 12 15  1  0  0  0
 15 16  1  0  0  0
 16 17  1  0  0  0
 17 18  1  0  0  0
 17 19  2  0  0  0
 15 21  1  0  0  0
 21 22  1  0  0  0
 21 23  1  0  0  0
  5  1  1  0  0  0
  1  2  2  0  0  0
  1  3  1  0  0  0
  3 35  1  0  0  0
 35 64  1  0  0  0
 64 65  1  0  0  0
 35 36  1  0  0  0
 36 37  2  0  0  0
 36 38  1  0  0  0
 38 40  1  0  0  0
 40 61  1  0  0  0
 61 62  1  0  0  0
 40 41  1  0  0  0
 41 42  2  0  0  0
 41 43  1  0  0  0
 43 45  1  0  0  0
 45 58  1  0  0  0
 58 59  1  0  0  0
 45 46  1  0  0  0
 46 47  2  0  0  0
 46 48  1  0  0  0
 48 50  1  0  0  0
 50 55  1  0  0  0
 55 56  1  0  0  0
 50 51  1  0  0  0
 51 52  1  0  0  0
 51 53  2  0  0  0
  6  9  1  0  0  0
 27 29  1  0  0  0
 27 30  1  0  0  0
 11 14  1  0  0  0
 16 20  1  0  0  0
  3  4  1  0  0  0
 65 66  1  0  0  0
 38 39  1  0  0  0
 62 63  1  0  0  0
 43 44  1  0  0  0
 59 60  1  0  0  0
 48 49  1  0  0  0
 56 57  1  0  0  0
 52 54  1  0  0  0
M  END
> <minimizedAffinity>
-6.81639

> <CNNscore>
0.1325554103

> <CNNaffinity>
5.5281906128

> <CNN_VS>
0.7327916026

> <CNNaffinity_variance>
0.8362084627

$$$$
[H]OC(=O)[C@@]([H])(N([H])C(=O)[C@@]([H])(N([H])C(=O)[C@@]([H])(N([H])C(=O)[C@@]([H])(N([H])C(=O)[C@@]([H])(N([H])C(=O)[C@@]([H])(N([H])C(=O)[C@@]([H])(N([H])C(=O)C([H])([H])[H])C([H])(C([H])([H])[H])C([H])([H])[H])C([H])([H])C([H])([H])C(=O)N([H])[H])C([H])([H])C([H])(C([H])([H])[H])C([H])([H])[H])C([H])([H])O[H])C([H])([H])O[H])C([H])([H])O[H])C([H])([H])O[H]


 66 65  0  0  0  0  0  0  0  0999 V2000
  -18.8865   14.9053  -17.5146 C   0  0  0  0  0  0  0  0  0  0  0  0
  -18.2622   14.4483  -16.5427 O   0  0  0  0  0  0  0  0  0  0  0  0
  -19.5615   16.1559  -17.5276 N   0  0  0  0  0  0  0  0  0  0  0  0
  -20.0465   16.4040  -18.4449 H   0  0  0  0  0  0  0  0  0  0  0  0
  -18.9378   14.0711  -18.7889 C   0  0  0  0  0  0  0  0  0  0  0  0
  -18.5456   14.8897  -19.9103 N   0  0  0  0  0  0  0  0  0  0  0  0
  -19.4783   15.5963  -20.6906 C   0  0  0  0  0  0  0  0  0  0  0  0
  -20.6854   15.5434  -20.4022 O   0  0  0  0  0  0  0  0  0  0  0  0
  -17.5374   14.9498  -20.1429 H   0  0  0  0  0  0  0  0  0  0  0  0
  -19.0925   16.4411  -21.9018 C   0  0  0  0  0  0  0  0  0  0  0  0
  -18.6888   15.4813  -22.9253 N   0  0  0  0  0  0  0  0  0  0  0  0
  -17.4025   15.4485  -23.4665 C   0  0  0  0  0  0  0  0  0  0  0  0
  -16.5919   16.3352  -22.9785 O   0  0  0  0  0  0  0  0  0  0  0  0
  -19.3796   14.7625  -23.2174 H   0  0  0  0  0  0  0  0  0  0  0  0
  -16.8475   14.5714  -24.4791 C   0  0  0  0  0  0  0  0  0  0  0  0
  -16.2959   15.3191  -25.6226 N   0  0  0  0  0  0  0  0  0  0  0  0
  -16.3704   14.8846  -26.9665 C   0  0  0  0  0  0  0  0  0  0  0  0
  -15.8072   15.6378  -28.0982 C   0  0  0  0  0  0  0  0  0  0  0  0
  -16.9536   13.7770  -27.2367 O   0  0  0  0  0  0  0  0  0  0  0  0
  -15.8071   16.2452  -25.4566 H   0  0  0  0  0  0  0  0  0  0  0  0
  -15.8779   13.5170  -24.1394 C   0  0  0  0  0  0  0  0  0  0  0  0
  -16.2080   12.6397  -22.9626 C   0  0  0  0  0  0  0  0  0  0  0  0
  -14.4673   14.0541  -23.9541 C   0  0  0  0  0  0  0  0  0  0  0  0
  -20.2375   17.3216  -22.1842 C   0  0  0  0  0  0  0  0  0  0  0  0
  -20.1056   18.7637  -22.1751 C   0  0  0  0  0  0  0  0  0  0  0  0
  -18.9964   19.4217  -22.8455 C   0  0  0  0  0  0  0  0  0  0  0  0
  -18.4881   20.5733  -22.0626 N   0  0  0  0  0  0  0  0  0  0  0  0
  -18.4575   19.1681  -23.9117 O   0  0  0  0  0  0  0  0  0  0  0  0
  -19.0397   21.4254  -22.1429 H   0  0  0  0  0  0  0  0  0  0  0  0
  -17.6506   20.4411  -21.5151 H   0  0  0  0  0  0  0  0  0  0  0  0
  -18.0122   12.9362  -18.5357 C   0  0  0  0  0  0  0  0  0  0  0  0
  -19.4690   11.1570  -17.4727 C   0  0  0  0  0  0  0  0  0  0  0  0
  -18.5532   11.5643  -18.5785 C   0  0  0  0  0  0  0  0  0  0  0  0
  -17.4788   10.4909  -18.7302 C   0  0  0  0  0  0  0  0  0  0  0  0
  -19.6328   17.0661  -16.3998 C   0  0  0  0  0  0  0  0  0  0  0  0
  -20.7689   16.8099  -15.5269 C   0  0  0  0  0  0  0  0  0  0  0  0
  -21.2293   17.7950  -14.8384 O   0  0  0  0  0  0  0  0  0  0  0  0
  -21.3662   15.5403  -15.4124 N   0  0  0  0  0  0  0  0  0  0  0  0
  -21.0143   14.7519  -15.9766 H   0  0  0  0  0  0  0  0  0  0  0  0
  -22.4854   15.3003  -14.5180 C   0  0  0  0  0  0  0  0  0  0  0  0
  -22.4987   13.9643  -13.9049 C   0  0  0  0  0  0  0  0  0  0  0  0
  -23.0593   13.9047  -12.7448 O   0  0  0  0  0  0  0  0  0  0  0  0
  -21.9781   12.7917  -14.4543 N   0  0  0  0  0  0  0  0  0  0  0  0
  -21.5304   12.8335  -15.3948 H   0  0  0  0  0  0  0  0  0  0  0  0
  -22.0442   11.5443  -13.7542 C   0  0  0  0  0  0  0  0  0  0  0  0
  -20.7230   10.8963  -13.8026 C   0  0  0  0  0  0  0  0  0  0  0  0
  -19.6854   11.5060  -13.4849 O   0  0  0  0  0  0  0  0  0  0  0  0
  -20.6290    9.5451  -14.2217 N   0  0  0  0  0  0  0  0  0  0  0  0
  -21.5039    9.0263  -14.4798 H   0  0  0  0  0  0  0  0  0  0  0  0
  -19.3415    8.8845  -14.2924 C   0  0  0  0  0  0  0  0  0  0  0  0
  -19.1101    8.1881  -15.5683 C   0  0  0  0  0  0  0  0  0  0  0  0
  -17.8624    8.1629  -16.1322 O   0  0  0  0  0  0  0  0  0  0  0  0
  -20.0692    7.6160  -16.1380 O   0  0  0  0  0  0  0  0  0  0  0  0
  -17.6182    8.6834  -16.9725 H   0  0  0  0  0  0  0  0  0  0  0  0
  -19.3252    7.8612  -13.1374 C   0  0  0  0  0  0  0  0  0  0  0  0
  -19.1916    6.6037  -13.7262 O   0  0  0  0  0  0  0  0  0  0  0  0
  -18.3297    6.1909  -13.4231 H   0  0  0  0  0  0  0  0  0  0  0  0
  -23.0437   10.5796  -14.3942 C   0  0  0  0  0  0  0  0  0  0  0  0
  -22.8923   10.6258  -15.7629 O   0  0  0  0  0  0  0  0  0  0  0  0
  -23.6118   10.2332  -16.2857 H   0  0  0  0  0  0  0  0  0  0  0  0
  -23.8043   15.4065  -15.2950 C   0  0  0  0  0  0  0  0  0  0  0  0
  -24.4188   14.1592  -15.1863 O   0  0  0  0  0  0  0  0  0  0  0  0
  -24.4872   13.9963  -14.1925 H   0  0  0  0  0  0  0  0  0  0  0  0
  -19.6779   18.5179  -16.9323 C   0  0  0  0  0  0  0  0  0  0  0  0
  -19.7216   18.5696  -18.3066 O   0  0  0  0  0  0  0  0  0  0  0  0
  -20.1311   19.4200  -18.6231 H   0  0  0  0  0  0  0  0  0  0  0  0
 32 33  1  0  0  0
 33 34  1  0  0  0
 33 31  1  0  0  0
 31  5  1  0  0  0
  5  6  1  0  0  0
  6  7  1  0  0  0
  7  8  2  0  0  0
  7 10  1  0  0  0
 10 24  1  0  0  0
 24 25  1  0  0  0
 25 26  1  0  0  0
 26 27  1  0  0  0
 26 28  2  0  0  0
 10 11  1  0  0  0
 11 12  1  0  0  0
 12 13  2  0  0  0
 12 15  1  0  0  0
 15 16  1  0  0  0
 16 17  1  0  0  0
 17 18  1  0  0  0
 17 19  2  0  0  0
 15 21  1  0  0  0
 21 22  1  0  0  0
 21 23  1  0  0  0
  5  1  1  0  0  0
  1  2  2  0  0  0
  1  3  1  0  0  0
  3 35  1  0  0  0
 35 64  1  0  0  0
 64 65  1  0  0  0
 35 36  1  0  0  0
 36 37  2  0  0  0
 36 38  1  0  0  0
 38 40  1  0  0  0
 40 61  1  0  0  0
 61 62  1  0  0  0
 40 41  1  0  0  0
 41 42  2  0  0  0
 41 43  1  0  0  0
 43 45  1  0  0  0
 45 58  1  0  0  0
 58 59  1  0  0  0
 45 46  1  0  0  0
 46 47  2  0  0  0
 46 48  1  0  0  0
 48 50  1  0  0  0
 50 55  1  0  0  0
 55 56  1  0  0  0
 50 51  1  0  0  0
 51 52  1  0  0  0
 51 53  2  0  0  0
  6  9  1  0  0  0
 27 29  1  0  0  0
 27 30  1  0  0  0
 11 14  1  0  0  0
 16 20  1  0  0  0
  3  4  1  0  0  0
 65 66  1  0  0  0
 38 39  1  0  0  0
 62 63  1  0  0  0
 43 44  1  0  0  0
 59 60  1  0  0  0
 48 49  1  0  0  0
 56 57  1  0  0  0
 52 54  1  0  0  0
M  END
> <minimizedAffinity>
-7.48512

> <CNNscore>
0.1300525814

> <CNNaffinity>
6.3530540466

> <CNN_VS>
0.8262310624

> <CNNaffinity_variance>
0.6190887690

$$$$
[H]OC(=O)[C@@]([H])(N([H])C(=O)[C@@]([H])(N([H])C(=O)[C@@]([H])(N([H])C(=O)[C@@]([H])(N([H])C(=O)[C@@]([H])(N([H])C(=O)[C@@]([H])(N([H])C(=O)[C@@]([H])(N([H])C(=O)C([H])([H])[H])C([H])(C([H])([H])[H])C([H])([H])[H])C([H])([H])C([H])([H])C(=O)N([H])[H])C([H])([H])C([H])(C([H])([H])[H])C([H])([H])[H])C([H])([H])O[H])C([H])([H])O[H])C([H])([H])O[H])C([H])([H])O[H]


 66 65  0  0  0  0  0  0  0  0999 V2000
  -17.8468   14.6014  -22.2681 C   0  0  0  0  0  0  0  0  0  0  0  0
  -17.0563   13.6442  -22.2230 O   0  0  0  0  0  0  0  0  0  0  0  0
  -18.4989   15.1667  -21.1390 N   0  0  0  0  0  0  0  0  0  0  0  0
  -19.1446   15.9897  -21.3486 H   0  0  0  0  0  0  0  0  0  0  0  0
  -18.1449   15.2202  -23.6286 C   0  0  0  0  0  0  0  0  0  0  0  0
  -17.8841   16.6381  -23.5745 N   0  0  0  0  0  0  0  0  0  0  0  0
  -18.8736   17.5737  -23.2230 C   0  0  0  0  0  0  0  0  0  0  0  0
  -20.0123   17.1792  -22.9220 O   0  0  0  0  0  0  0  0  0  0  0  0
  -16.9301   16.9691  -23.8084 H   0  0  0  0  0  0  0  0  0  0  0  0
  -18.6323   19.0805  -23.1917 C   0  0  0  0  0  0  0  0  0  0  0  0
  -19.9620   19.6822  -23.2326 N   0  0  0  0  0  0  0  0  0  0  0  0
  -20.2514   20.8280  -23.9756 C   0  0  0  0  0  0  0  0  0  0  0  0
  -19.2438   21.3093  -24.6347 O   0  0  0  0  0  0  0  0  0  0  0  0
  -20.7302   19.1990  -22.7270 H   0  0  0  0  0  0  0  0  0  0  0  0
  -21.5037   21.5447  -24.1197 C   0  0  0  0  0  0  0  0  0  0  0  0
  -22.6623   20.6362  -24.1783 N   0  0  0  0  0  0  0  0  0  0  0  0
  -23.1834   20.0893  -25.3740 C   0  0  0  0  0  0  0  0  0  0  0  0
  -24.3471   19.1897  -25.4184 C   0  0  0  0  0  0  0  0  0  0  0  0
  -22.6295   20.3807  -26.4912 O   0  0  0  0  0  0  0  0  0  0  0  0
  -23.1557   20.3576  -23.2822 H   0  0  0  0  0  0  0  0  0  0  0  0
  -21.8653   22.6546  -23.2228 C   0  0  0  0  0  0  0  0  0  0  0  0
  -21.4352   24.0353  -23.6378 C   0  0  0  0  0  0  0  0  0  0  0  0
  -21.4113   22.4233  -21.7899 C   0  0  0  0  0  0  0  0  0  0  0  0
  -17.7818   19.3474  -22.0206 C   0  0  0  0  0  0  0  0  0  0  0  0
  -18.0177   18.6977  -20.7481 C   0  0  0  0  0  0  0  0  0  0  0  0
  -19.0425   19.1791  -19.8365 C   0  0  0  0  0  0  0  0  0  0  0  0
  -18.4521   19.8187  -18.6366 N   0  0  0  0  0  0  0  0  0  0  0  0
  -20.2597   19.1276  -19.9208 O   0  0  0  0  0  0  0  0  0  0  0  0
  -18.1228   19.1722  -17.9222 H   0  0  0  0  0  0  0  0  0  0  0  0
  -18.4155   20.8269  -18.6069 H   0  0  0  0  0  0  0  0  0  0  0  0
  -17.2600   14.4941  -24.5764 C   0  0  0  0  0  0  0  0  0  0  0  0
  -16.1710   15.2605  -26.7316 C   0  0  0  0  0  0  0  0  0  0  0  0
  -16.1748   15.2422  -25.2392 C   0  0  0  0  0  0  0  0  0  0  0  0
  -14.7809   14.8436  -24.7618 C   0  0  0  0  0  0  0  0  0  0  0  0
  -18.3479   14.6916  -19.7762 C   0  0  0  0  0  0  0  0  0  0  0  0
  -18.7289   13.2968  -19.6095 C   0  0  0  0  0  0  0  0  0  0  0  0
  -19.9764   12.9997  -19.7182 O   0  0  0  0  0  0  0  0  0  0  0  0
  -17.7922   12.2825  -19.3349 N   0  0  0  0  0  0  0  0  0  0  0  0
  -16.7890   12.5116  -19.2665 H   0  0  0  0  0  0  0  0  0  0  0  0
  -18.1961   10.8995  -19.1494 C   0  0  0  0  0  0  0  0  0  0  0  0
  -18.5892   10.5596  -17.7743 C   0  0  0  0  0  0  0  0  0  0  0  0
  -17.9399    9.5754  -17.2513 O   0  0  0  0  0  0  0  0  0  0  0  0
  -19.5696   11.1927  -17.0088 N   0  0  0  0  0  0  0  0  0  0  0  0
  -20.0921   11.9931  -17.4246 H   0  0  0  0  0  0  0  0  0  0  0  0
  -19.8702   10.7640  -15.6759 C   0  0  0  0  0  0  0  0  0  0  0  0
  -21.0859    9.9339  -15.7017 C   0  0  0  0  0  0  0  0  0  0  0  0
  -22.1792   10.3897  -16.0841 O   0  0  0  0  0  0  0  0  0  0  0  0
  -21.0108    8.5822  -15.2802 N   0  0  0  0  0  0  0  0  0  0  0  0
  -20.0878    8.1932  -14.9674 H   0  0  0  0  0  0  0  0  0  0  0  0
  -22.1928    7.7443  -15.2815 C   0  0  0  0  0  0  0  0  0  0  0  0
  -22.9577    7.8089  -14.0256 C   0  0  0  0  0  0  0  0  0  0  0  0
  -23.3214    9.0167  -13.4926 O   0  0  0  0  0  0  0  0  0  0  0  0
  -23.2744    6.7442  -13.4445 O   0  0  0  0  0  0  0  0  0  0  0  0
  -22.9041    9.4034  -12.6482 H   0  0  0  0  0  0  0  0  0  0  0  0
  -21.6907    6.3021  -15.5046 C   0  0  0  0  0  0  0  0  0  0  0  0
  -22.7435    5.6051  -16.0977 O   0  0  0  0  0  0  0  0  0  0  0  0
  -22.4602    5.2995  -17.0096 H   0  0  0  0  0  0  0  0  0  0  0  0
  -20.1489   11.9437  -14.7432 C   0  0  0  0  0  0  0  0  0  0  0  0
  -20.6588   12.9866  -15.4854 O   0  0  0  0  0  0  0  0  0  0  0  0
  -20.6645   13.8567  -15.0517 H   0  0  0  0  0  0  0  0  0  0  0  0
  -17.0241    9.9664  -19.4818 C   0  0  0  0  0  0  0  0  0  0  0  0
  -15.8771   10.6013  -19.0056 O   0  0  0  0  0  0  0  0  0  0  0  0
  -16.0659   10.7652  -18.0277 H   0  0  0  0  0  0  0  0  0  0  0  0
  -19.1823   15.5950  -18.8375 C   0  0  0  0  0  0  0  0  0  0  0  0
  -20.3720   15.9848  -19.4085 O   0  0  0  0  0  0  0  0  0  0  0  0
  -21.0482   16.2126  -18.7143 H   0  0  0  0  0  0  0  0  0  0  0  0
 32 33  1  0  0  0
 33 34  1  0  0  0
 33 31  1  0  0  0
 31  5  1  0  0  0
  5  6  1  0  0  0
  6  7  1  0  0  0
  7  8  2  0  0  0
  7 10  1  0  0  0
 10 24  1  0  0  0
 24 25  1  0  0  0
 25 26  1  0  0  0
 26 27  1  0  0  0
 26 28  2  0  0  0
 10 11  1  0  0  0
 11 12  1  0  0  0
 12 13  2  0  0  0
 12 15  1  0  0  0
 15 16  1  0  0  0
 16 17  1  0  0  0
 17 18  1  0  0  0
 17 19  2  0  0  0
 15 21  1  0  0  0
 21 22  1  0  0  0
 21 23  1  0  0  0
  5  1  1  0  0  0
  1  2  2  0  0  0
  1  3  1  0  0  0
  3 35  1  0  0  0
 35 64  1  0  0  0
 64 65  1  0  0  0
 35 36  1  0  0  0
 36 37  2  0  0  0
 36 38  1  0  0  0
 38 40  1  0  0  0
 40 61  1  0  0  0
 61 62  1  0  0  0
 40 41  1  0  0  0
 41 42  2  0  0  0
 41 43  1  0  0  0
 43 45  1  0  0  0
 45 58  1  0  0  0
 58 59  1  0  0  0
 45 46  1  0  0  0
 46 47  2  0  0  0
 46 48  1  0  0  0
 48 50  1  0  0  0
 50 55  1  0  0  0
 55 56  1  0  0  0
 50 51  1  0  0  0
 51 52  1  0  0  0
 51 53  2  0  0  0
  6  9  1  0  0  0
 27 29  1  0  0  0
 27 30  1  0  0  0
 11 14  1  0  0  0
 16 20  1  0  0  0
  3  4  1  0  0  0
 65 66  1  0  0  0
 38 39  1  0  0  0
 62 63  1  0  0  0
 43 44  1  0  0  0
 59 60  1  0  0  0
 48 49  1  0  0  0
 56 57  1  0  0  0
 52 54  1  0  0  0
M  END
> <minimizedAffinity>
-6.47795

> <CNNscore>
0.1141488403

> <CNNaffinity>
6.2466378212

> <CNN_VS>
0.7130464911

> <CNNaffinity_variance>
0.2299217284

$$$$
[H]OC(=O)[C@@]([H])(N([H])C(=O)[C@@]([H])(N([H])C(=O)[C@@]([H])(N([H])C(=O)[C@@]([H])(N([H])C(=O)[C@@]([H])(N([H])C(=O)[C@@]([H])(N([H])C(=O)[C@@]([H])(N([H])C(=O)C([H])([H])[H])C([H])(C([H])([H])[H])C([H])([H])[H])C([H])([H])C([H])([H])C(=O)N([H])[H])C([H])([H])C([H])(C([H])([H])[H])C([H])([H])[H])C([H])([H])O[H])C([H])([H])O[H])C([H])([H])O[H])C([H])([H])O[H]


 66 65  0  0  0  0  0  0  0  0999 V2000
  -18.1115   13.6147  -21.7403 C   0  0  0  0  0  0  0  0  0  0  0  0
  -19.0995   13.9125  -21.0488 O   0  0  0  0  0  0  0  0  0  0  0  0
  -17.3452   12.4276  -21.5885 N   0  0  0  0  0  0  0  0  0  0  0  0
  -16.5290   12.3204  -22.2673 H   0  0  0  0  0  0  0  0  0  0  0  0
  -17.6828   14.5874  -22.8324 C   0  0  0  0  0  0  0  0  0  0  0  0
  -18.3036   15.8688  -22.5997 N   0  0  0  0  0  0  0  0  0  0  0  0
  -18.4020   16.8517  -23.6008 C   0  0  0  0  0  0  0  0  0  0  0  0
  -17.9651   16.6146  -24.7391 O   0  0  0  0  0  0  0  0  0  0  0  0
  -18.6847   16.0632  -21.6556 H   0  0  0  0  0  0  0  0  0  0  0  0
  -19.0230   18.2268  -23.3703 C   0  0  0  0  0  0  0  0  0  0  0  0
  -20.4330   17.9688  -23.0930 N   0  0  0  0  0  0  0  0  0  0  0  0
  -21.4632   18.7463  -23.6245 C   0  0  0  0  0  0  0  0  0  0  0  0
  -21.0654   19.7119  -24.3931 O   0  0  0  0  0  0  0  0  0  0  0  0
  -20.6712   17.1369  -22.5182 H   0  0  0  0  0  0  0  0  0  0  0  0
  -22.8975   18.6265  -23.4480 C   0  0  0  0  0  0  0  0  0  0  0  0
  -23.3962   19.4712  -22.3485 N   0  0  0  0  0  0  0  0  0  0  0  0
  -24.0711   18.9752  -21.2088 C   0  0  0  0  0  0  0  0  0  0  0  0
  -24.5716   19.8318  -20.1220 C   0  0  0  0  0  0  0  0  0  0  0  0
  -24.2705   17.7153  -21.0962 O   0  0  0  0  0  0  0  0  0  0  0  0
  -23.2535   20.5210  -22.3879 H   0  0  0  0  0  0  0  0  0  0  0  0
  -23.8298   18.7847  -24.5763 C   0  0  0  0  0  0  0  0  0  0  0  0
  -23.4764   18.0797  -25.8575 C   0  0  0  0  0  0  0  0  0  0  0  0
  -24.1207   20.2424  -24.8976 C   0  0  0  0  0  0  0  0  0  0  0  0
  -18.2166   18.8849  -22.3298 C   0  0  0  0  0  0  0  0  0  0  0  0
  -18.7368   19.1117  -20.9975 C   0  0  0  0  0  0  0  0  0  0  0  0
  -18.7715   18.0440  -20.0118 C   0  0  0  0  0  0  0  0  0  0  0  0
  -20.0287   18.0633  -19.2268 N   0  0  0  0  0  0  0  0  0  0  0  0
  -17.9466   17.1806  -19.7556 O   0  0  0  0  0  0  0  0  0  0  0  0
  -20.0581   18.7529  -18.4781 H   0  0  0  0  0  0  0  0  0  0  0  0
  -20.7548   17.4093  -19.4791 H   0  0  0  0  0  0  0  0  0  0  0  0
  -16.1997   14.6264  -22.7435 C   0  0  0  0  0  0  0  0  0  0  0  0
  -14.3793   15.0507  -24.4535 C   0  0  0  0  0  0  0  0  0  0  0  0
  -15.4131   14.1334  -23.8902 C   0  0  0  0  0  0  0  0  0  0  0  0
  -16.2728   13.6168  -25.0408 C   0  0  0  0  0  0  0  0  0  0  0  0
  -17.5978   11.4051  -20.5904 C   0  0  0  0  0  0  0  0  0  0  0  0
  -17.7567   11.9419  -19.2469 C   0  0  0  0  0  0  0  0  0  0  0  0
  -16.6957   12.0990  -18.5355 O   0  0  0  0  0  0  0  0  0  0  0  0
  -19.0122   12.2850  -18.7109 N   0  0  0  0  0  0  0  0  0  0  0  0
  -19.8637   12.1801  -19.2834 H   0  0  0  0  0  0  0  0  0  0  0  0
  -19.1515   12.7981  -17.3590 C   0  0  0  0  0  0  0  0  0  0  0  0
  -19.7420   11.8480  -16.4054 C   0  0  0  0  0  0  0  0  0  0  0  0
  -20.1515   10.7407  -16.9249 O   0  0  0  0  0  0  0  0  0  0  0  0
  -19.8887   12.0328  -15.0298 N   0  0  0  0  0  0  0  0  0  0  0  0
  -19.5528   12.9232  -14.6042 H   0  0  0  0  0  0  0  0  0  0  0  0
  -20.4899   11.0320  -14.2007 C   0  0  0  0  0  0  0  0  0  0  0  0
  -21.9050   11.3755  -13.9836 C   0  0  0  0  0  0  0  0  0  0  0  0
  -22.7855   10.4987  -13.9105 O   0  0  0  0  0  0  0  0  0  0  0  0
  -22.2753   12.7381  -13.8550 N   0  0  0  0  0  0  0  0  0  0  0  0
  -21.5330   13.4781  -13.9058 H   0  0  0  0  0  0  0  0  0  0  0  0
  -23.6616   13.1081  -13.6540 C   0  0  0  0  0  0  0  0  0  0  0  0
  -24.0397   14.3554  -14.3381 C   0  0  0  0  0  0  0  0  0  0  0  0
  -24.6754   14.3201  -15.5505 O   0  0  0  0  0  0  0  0  0  0  0  0
  -23.7731   15.4557  -13.7997 O   0  0  0  0  0  0  0  0  0  0  0  0
  -24.2282   14.5908  -16.4242 H   0  0  0  0  0  0  0  0  0  0  0  0
  -23.8380   13.2828  -12.1309 C   0  0  0  0  0  0  0  0  0  0  0  0
  -22.6171   13.7493  -11.6432 O   0  0  0  0  0  0  0  0  0  0  0  0
  -22.7504   14.6605  -11.2468 H   0  0  0  0  0  0  0  0  0  0  0  0
  -19.8281   10.9541  -12.8241 C   0  0  0  0  0  0  0  0  0  0  0  0
  -20.7362   11.3594  -11.8704 O   0  0  0  0  0  0  0  0  0  0  0  0
  -20.3709   11.5671  -10.9938 H   0  0  0  0  0  0  0  0  0  0  0  0
  -20.0883   14.0135  -17.3580 C   0  0  0  0  0  0  0  0  0  0  0  0
  -21.3650   13.5177  -17.0943 O   0  0  0  0  0  0  0  0  0  0  0  0
  -21.2673   13.0169  -16.2234 H   0  0  0  0  0  0  0  0  0  0  0  0
  -16.4435   10.3757  -20.6273 C   0  0  0  0  0  0  0  0  0  0  0  0
  -16.4182    9.5782  -19.5063 O   0  0  0  0  0  0  0  0  0  0  0  0
  -15.9663    8.7105  -19.6906 H   0  0  0  0  0  0  0  0  0  0  0  0
 32 33  1  0  0  0
 33 34  1  0  0  0
 33 31  1  0  0  0
 31  5  1  0  0  0
  5  6  1  0  0  0
  6  7  1  0  0  0
  7  8  2  0  0  0
  7 10  1  0  0  0
 10 24  1  0  0  0
 24 25  1  0  0  0
 25 26  1  0  0  0
 26 27  1  0  0  0
 26 28  2  0  0  0
 10 11  1  0  0  0
 11 12  1  0  0  0
 12 13  2  0  0  0
 12 15  1  0  0  0
 15 16  1  0  0  0
 16 17  1  0  0  0
 17 18  1  0  0  0
 17 19  2  0  0  0
 15 21  1  0  0  0
 21 22  1  0  0  0
 21 23  1  0  0  0
  5  1  1  0  0  0
  1  2  2  0  0  0
  1  3  1  0  0  0
  3 35  1  0  0  0
 35 64  1  0  0  0
 64 65  1  0  0  0
 35 36  1  0  0  0
 36 37  2  0  0  0
 36 38  1  0  0  0
 38 40  1  0  0  0
 40 61  1  0  0  0
 61 62  1  0  0  0
 40 41  1  0  0  0
 41 42  2  0  0  0
 41 43  1  0  0  0
 43 45  1  0  0  0
 45 58  1  0  0  0
 58 59  1  0  0  0
 45 46  1  0  0  0
 46 47  2  0  0  0
 46 48  1  0  0  0
 48 50  1  0  0  0
 50 55  1  0  0  0
 55 56  1  0  0  0
 50 51  1  0  0  0
 51 52  1  0  0  0
 51 53  2  0  0  0
  6  9  1  0  0  0
 27 29  1  0  0  0
 27 30  1  0  0  0
 11 14  1  0  0  0
 16 20  1  0  0  0
  3  4  1  0  0  0
 65 66  1  0  0  0
 38 39  1  0  0  0
 62 63  1  0  0  0
 43 44  1  0  0  0
 59 60  1  0  0  0
 48 49  1  0  0  0
 56 57  1  0  0  0
 52 54  1  0  0  0
M  END
> <minimizedAffinity>
-7.00087

> <CNNscore>
0.1045567766

> <CNNaffinity>
6.0036211014

> <CNN_VS>
0.6277192831

> <CNNaffinity_variance>
0.3582371175

$$$$
[H]c1nc2c(N([H])C3([H])C([H])([H])C3([H])[H])nc(N([H])c3c([H])c([H])c(N4C([H])([H])C([H])([H])N(C([H])([H])[H])C([H])([H])C4([H])[H])c([H])c3[H])nn2c1C#N


 31 35  0  0  0  0  0  0  0  0999 V2000
  -18.2916   13.1494  -19.3055 C   0  0  0  0  0  0  0  0  0  0  0  0
  -18.2873   12.1073  -18.4109 N   0  0  0  0  0  0  0  0  0  0  0  0
  -17.6132   10.9768  -18.6634 C   0  0  0  0  0  0  0  0  0  0  0  0
  -16.9160   10.8774  -19.8511 C   0  0  0  0  0  0  0  0  0  0  0  0
  -16.1708    9.8918  -20.3590 N   0  0  0  0  0  0  0  0  0  0  0  0
  -15.6985   10.2815  -21.5596 C   0  0  0  0  0  0  0  0  0  0  0  0
  -16.1563   11.5563  -21.8271 C   0  0  0  0  0  0  0  0  0  0  0  0
  -16.9089   11.8956  -20.7458 N   0  0  0  0  0  0  0  0  0  0  0  0
  -17.5945   12.9696  -20.4234 N   0  0  0  0  0  0  0  0  0  0  0  0
  -19.0238   14.2808  -18.9225 N   0  0  0  0  0  0  0  0  0  0  0  0
  -19.1246   14.4783  -17.8717 H   0  0  0  0  0  0  0  0  0  0  0  0
  -21.1505   17.1015  -21.3067 C   0  0  0  0  0  0  0  0  0  0  0  0
  -19.8132   16.9278  -21.4394 C   0  0  0  0  0  0  0  0  0  0  0  0
  -19.0679   16.0153  -20.6911 C   0  0  0  0  0  0  0  0  0  0  0  0
  -19.6740   15.2214  -19.7508 C   0  0  0  0  0  0  0  0  0  0  0  0
  -21.0565   15.4015  -19.6147 C   0  0  0  0  0  0  0  0  0  0  0  0
  -21.7810   16.2983  -20.3522 C   0  0  0  0  0  0  0  0  0  0  0  0
  -23.0587   19.3159  -25.6854 C   0  0  0  0  0  0  0  0  0  0  0  0
  -22.9081   19.4567  -24.2439 N   0  0  0  0  0  0  0  0  0  0  0  0
  -21.5515   19.4917  -23.8251 C   0  0  0  0  0  0  0  0  0  0  0  0
  -21.5169   19.3657  -22.3108 C   0  0  0  0  0  0  0  0  0  0  0  0
  -21.9329   18.0155  -22.0467 N   0  0  0  0  0  0  0  0  0  0  0  0
  -23.2182   17.6375  -22.5905 C   0  0  0  0  0  0  0  0  0  0  0  0
  -23.7930   18.6274  -23.5392 C   0  0  0  0  0  0  0  0  0  0  0  0
  -17.6041    9.8853  -17.7345 N   0  0  0  0  0  0  0  0  0  0  0  0
  -16.7321    9.5395  -17.2950 H   0  0  0  0  0  0  0  0  0  0  0  0
  -18.8521    9.2343  -17.3901 C   0  0  0  0  0  0  0  0  0  0  0  0
  -18.8967    8.5213  -16.0316 C   0  0  0  0  0  0  0  0  0  0  0  0
  -19.7084    9.7888  -16.3097 C   0  0  0  0  0  0  0  0  0  0  0  0
  -15.9188   12.3833  -22.9773 C   0  0  0  0  0  0  0  0  0  0  0  0
  -15.7346   13.0352  -23.9157 N   0  0  0  0  0  0  0  0  0  0  0  0
 18 19  1  0  0  0
 19 20  1  0  0  0
 20 21  1  0  0  0
 21 22  1  0  0  0
 22 23  1  0  0  0
 23 24  1  0  0  0
 22 12  1  0  0  0
 12 13  2  0  0  0
 13 14  1  0  0  0
 14 15  2  0  0  0
 15 10  1  0  0  0
 10  1  1  0  0  0
  1  2  1  0  0  0
  2  3  2  0  0  0
  3 25  1  0  0  0
 25 27  1  0  0  0
 27 28  1  0  0  0
 28 29  1  0  0  0
  3  4  1  0  0  0
  4  5  2  0  0  0
  5  6  1  0  0  0
  6  7  2  0  0  0
  7 30  1  0  0  0
 30 31  3  0  0  0
  7  8  1  0  0  0
  8  9  1  0  0  0
 15 16  1  0  0  0
 16 17  2  0  0  0
 24 19  1  0  0  0
 17 12  1  0  0  0
  9  1  2  0  0  0
 29 27  1  0  0  0
  8  4  1  0  0  0
 10 11  1  0  0  0
 25 26  1  0  0  0
M  END
> <minimizedAffinity>
-7.45158

> <CNNscore>
0.7443424463

> <CNNaffinity>
7.0472784042

> <CNN_VS>
5.2455883026

> <CNNaffinity_variance>
0.4162391722

$$$$
[H]c1nc2c(N([H])C3([H])C([H])([H])C3([H])[H])nc(N([H])c3c([H])c([H])c(N4C([H])([H])C([H])([H])N(C([H])([H])[H])C([H])([H])C4([H])[H])c([H])c3[H])nn2c1C#N


 31 35  0  0  0  0  0  0  0  0999 V2000
  -19.5941   13.1524  -18.6511 C   0  0  0  0  0  0  0  0  0  0  0  0
  -19.9544   14.2929  -19.3263 N   0  0  0  0  0  0  0  0  0  0  0  0
  -19.4073   14.6023  -20.5100 C   0  0  0  0  0  0  0  0  0  0  0  0
  -18.4654   13.7454  -21.0441 C   0  0  0  0  0  0  0  0  0  0  0  0
  -17.7679   13.7969  -22.1823 N   0  0  0  0  0  0  0  0  0  0  0  0
  -16.9691   12.7134  -22.2492 C   0  0  0  0  0  0  0  0  0  0  0  0
  -17.1624   11.9455  -21.1182 C   0  0  0  0  0  0  0  0  0  0  0  0
  -18.0977   12.6154  -20.3920 N   0  0  0  0  0  0  0  0  0  0  0  0
  -18.6806   12.3840  -19.2370 N   0  0  0  0  0  0  0  0  0  0  0  0
  -20.2444   12.9341  -17.4295 N   0  0  0  0  0  0  0  0  0  0  0  0
  -20.9451   13.6770  -17.0970 H   0  0  0  0  0  0  0  0  0  0  0  0
  -19.7166    9.5384  -14.9087 C   0  0  0  0  0  0  0  0  0  0  0  0
  -20.0404   10.7527  -14.4022 C   0  0  0  0  0  0  0  0  0  0  0  0
  -20.2317   11.8957  -15.1800 C   0  0  0  0  0  0  0  0  0  0  0  0
  -20.0962   11.8442  -16.5442 C   0  0  0  0  0  0  0  0  0  0  0  0
  -19.7618   10.5884  -17.0668 C   0  0  0  0  0  0  0  0  0  0  0  0
  -19.5759    9.4716  -16.2979 C   0  0  0  0  0  0  0  0  0  0  0  0
  -21.1360    5.6180  -11.6942 C   0  0  0  0  0  0  0  0  0  0  0  0
  -20.0121    6.3189  -12.2990 N   0  0  0  0  0  0  0  0  0  0  0  0
  -19.9584    7.6944  -11.9494 C   0  0  0  0  0  0  0  0  0  0  0  0
  -18.9282    8.3720  -12.8382 C   0  0  0  0  0  0  0  0  0  0  0  0
  -19.5154    8.3640  -14.1501 N   0  0  0  0  0  0  0  0  0  0  0  0
  -19.8963    7.0653  -14.6588 C   0  0  0  0  0  0  0  0  0  0  0  0
  -19.8431    5.9759  -13.6484 C   0  0  0  0  0  0  0  0  0  0  0  0
  -19.7784   15.7906  -21.2204 N   0  0  0  0  0  0  0  0  0  0  0  0
  -19.4886   15.9635  -22.1998 H   0  0  0  0  0  0  0  0  0  0  0  0
  -20.5871   16.7927  -20.5560 C   0  0  0  0  0  0  0  0  0  0  0  0
  -21.2166   17.8661  -21.4547 C   0  0  0  0  0  0  0  0  0  0  0  0
  -22.0610   16.8055  -20.7440 C   0  0  0  0  0  0  0  0  0  0  0  0
  -16.5389   10.7066  -20.7447 C   0  0  0  0  0  0  0  0  0  0  0  0
  -16.0189    9.7174  -20.4436 N   0  0  0  0  0  0  0  0  0  0  0  0
 18 19  1  0  0  0
 19 20  1  0  0  0
 20 21  1  0  0  0
 21 22  1  0  0  0
 22 23  1  0  0  0
 23 24  1  0  0  0
 22 12  1  0  0  0
 12 13  2  0  0  0
 13 14  1  0  0  0
 14 15  2  0  0  0
 15 10  1  0  0  0
 10  1  1  0  0  0
  1  2  1  0  0  0
  2  3  2  0  0  0
  3 25  1  0  0  0
 25 27  1  0  0  0
 27 28  1  0  0  0
 28 29  1  0  0  0
  3  4  1  0  0  0
  4  5  2  0  0  0
  5  6  1  0  0  0
  6  7  2  0  0  0
  7 30  1  0  0  0
 30 31  3  0  0  0
  7  8  1  0  0  0
  8  9  1  0  0  0
 15 16  1  0  0  0
 16 17  2  0  0  0
 24 19  1  0  0  0
 17 12  1  0  0  0
  9  1  2  0  0  0
 29 27  1  0  0  0
  8  4  1  0  0  0
 10 11  1  0  0  0
 25 26  1  0  0  0
M  END
> <minimizedAffinity>
-6.60443

> <CNNscore>
0.6978747249

> <CNNaffinity>
6.6979017258

> <CNN_VS>
4.6742963791

> <CNNaffinity_variance>
0.3076150417

$$$$
[H]c1nc2c(N([H])C3([H])C([H])([H])C3([H])[H])nc(N([H])c3c([H])c([H])c(N4C([H])([H])C([H])([H])N(C([H])([H])[H])C([H])([H])C4([H])[H])c([H])c3[H])nn2c1C#N


 31 35  0  0  0  0  0  0  0  0999 V2000
  -18.7116   13.8069  -19.8357 C   0  0  0  0  0  0  0  0  0  0  0  0
  -19.0356   14.8376  -20.6836 N   0  0  0  0  0  0  0  0  0  0  0  0
  -18.5082   14.9186  -21.9131 C   0  0  0  0  0  0  0  0  0  0  0  0
  -17.6242   13.9373  -22.3161 C   0  0  0  0  0  0  0  0  0  0  0  0
  -16.9576   13.7639  -23.4608 N   0  0  0  0  0  0  0  0  0  0  0  0
  -16.2142   12.6440  -23.3627 C   0  0  0  0  0  0  0  0  0  0  0  0
  -16.4121   12.0844  -22.1162 C   0  0  0  0  0  0  0  0  0  0  0  0
  -17.2929   12.9127  -21.4928 N   0  0  0  0  0  0  0  0  0  0  0  0
  -17.8533   12.9058  -20.3040 N   0  0  0  0  0  0  0  0  0  0  0  0
  -19.3367   13.8273  -18.5820 N   0  0  0  0  0  0  0  0  0  0  0  0
  -19.5156   14.7844  -18.1286 H   0  0  0  0  0  0  0  0  0  0  0  0
  -20.4741   10.4229  -16.2842 C   0  0  0  0  0  0  0  0  0  0  0  0
  -21.1444   11.5968  -16.1901 C   0  0  0  0  0  0  0  0  0  0  0  0
  -20.8205   12.7399  -16.9223 C   0  0  0  0  0  0  0  0  0  0  0  0
  -19.7700   12.7312  -17.8046 C   0  0  0  0  0  0  0  0  0  0  0  0
  -19.0780   11.5173  -17.9013 C   0  0  0  0  0  0  0  0  0  0  0  0
  -19.4014   10.4000  -17.1801 C   0  0  0  0  0  0  0  0  0  0  0  0
  -22.2205    5.4948  -15.6662 C   0  0  0  0  0  0  0  0  0  0  0  0
  -21.8381    6.7212  -14.9805 N   0  0  0  0  0  0  0  0  0  0  0  0
  -22.6335    7.8384  -15.3495 C   0  0  0  0  0  0  0  0  0  0  0  0
  -21.9812    9.0928  -14.7914 C   0  0  0  0  0  0  0  0  0  0  0  0
  -20.7753    9.2496  -15.5577 N   0  0  0  0  0  0  0  0  0  0  0  0
  -19.8726    8.1203  -15.5446 C   0  0  0  0  0  0  0  0  0  0  0  0
  -20.4462    6.8891  -14.9401 C   0  0  0  0  0  0  0  0  0  0  0  0
  -18.8417   15.9912  -22.8034 N   0  0  0  0  0  0  0  0  0  0  0  0
  -19.0780   15.8310  -23.7992 H   0  0  0  0  0  0  0  0  0  0  0  0
  -18.8520   17.3517  -22.3050 C   0  0  0  0  0  0  0  0  0  0  0  0
  -18.1849   18.4090  -23.1956 C   0  0  0  0  0  0  0  0  0  0  0  0
  -19.6977   18.3804  -22.9642 C   0  0  0  0  0  0  0  0  0  0  0  0
  -15.8386   10.8931  -21.5546 C   0  0  0  0  0  0  0  0  0  0  0  0
  -15.3678    9.9443  -21.0881 N   0  0  0  0  0  0  0  0  0  0  0  0
 18 19  1  0  0  0
 19 20  1  0  0  0
 20 21  1  0  0  0
 21 22  1  0  0  0
 22 23  1  0  0  0
 23 24  1  0  0  0
 22 12  1  0  0  0
 12 13  2  0  0  0
 13 14  1  0  0  0
 14 15  2  0  0  0
 15 10  1  0  0  0
 10  1  1  0  0  0
  1  2  1  0  0  0
  2  3  2  0  0  0
  3 25  1  0  0  0
 25 27  1  0  0  0
 27 28  1  0  0  0
 28 29  1  0  0  0
  3  4  1  0  0  0
  4  5  2  0  0  0
  5  6  1  0  0  0
  6  7  2  0  0  0
  7 30  1  0  0  0
 30 31  3  0  0  0
  7  8  1  0  0  0
  8  9  1  0  0  0
 15 16  1  0  0  0
 16 17  2  0  0  0
 24 19  1  0  0  0
 17 12  1  0  0  0
  9  1  2  0  0  0
 29 27  1  0  0  0
  8  4  1  0  0  0
 10 11  1  0  0  0
 25 26  1  0  0  0
M  END
> <minimizedAffinity>
-7.02052

> <CNNscore>
0.5219021440

> <CNNaffinity>
6.7326064110

> <CNN_VS>
3.5137617588

> <CNNaffinity_variance>
0.2888271213

$$$$
[H]c1nc2c(N([H])C3([H])C([H])([H])C3([H])[H])nc(N([H])c3c([H])c([H])c(N4C([H])([H])C([H])([H])N(C([H])([H])[H])C([H])([H])C4([H])[H])c([H])c3[H])nn2c1C#N


 31 35  0  0  0  0  0  0  0  0999 V2000
  -18.2382   14.1701  -21.4126 C   0  0  0  0  0  0  0  0  0  0  0  0
  -17.8561   15.0282  -22.4146 N   0  0  0  0  0  0  0  0  0  0  0  0
  -16.8378   14.7311  -23.2339 C   0  0  0  0  0  0  0  0  0  0  0  0
  -16.1729   13.5349  -23.0506 C   0  0  0  0  0  0  0  0  0  0  0  0
  -15.1430   12.9870  -23.7017 N   0  0  0  0  0  0  0  0  0  0  0  0
  -14.8585   11.7967  -23.1373 C   0  0  0  0  0  0  0  0  0  0  0  0
  -15.7341   11.5772  -22.0925 C   0  0  0  0  0  0  0  0  0  0  0  0
  -16.5361   12.6758  -22.0670 N   0  0  0  0  0  0  0  0  0  0  0  0
  -17.5442   13.0408  -21.3068 N   0  0  0  0  0  0  0  0  0  0  0  0
  -19.3229   14.5881  -20.6305 N   0  0  0  0  0  0  0  0  0  0  0  0
  -19.8651   15.4574  -20.9525 H   0  0  0  0  0  0  0  0  0  0  0  0
  -20.9475   12.9880  -17.0299 C   0  0  0  0  0  0  0  0  0  0  0  0
  -19.9896   12.3311  -17.7278 C   0  0  0  0  0  0  0  0  0  0  0  0
  -19.4180   12.8103  -18.9074 C   0  0  0  0  0  0  0  0  0  0  0  0
  -19.8120   14.0127  -19.4375 C   0  0  0  0  0  0  0  0  0  0  0  0
  -20.8020   14.6911  -18.7152 C   0  0  0  0  0  0  0  0  0  0  0  0
  -21.3580   14.2151  -17.5588 C   0  0  0  0  0  0  0  0  0  0  0  0
  -21.0596   11.6772  -11.9322 C   0  0  0  0  0  0  0  0  0  0  0  0
  -21.7683   11.5972  -13.2018 N   0  0  0  0  0  0  0  0  0  0  0  0
  -21.0309   10.9231  -14.2113 C   0  0  0  0  0  0  0  0  0  0  0  0
  -21.7370   11.1370  -15.5402 C   0  0  0  0  0  0  0  0  0  0  0  0
  -21.5464   12.5308  -15.8352 N   0  0  0  0  0  0  0  0  0  0  0  0
  -22.0083   13.4548  -14.8237 C   0  0  0  0  0  0  0  0  0  0  0  0
  -22.3848   12.8115  -13.5373 C   0  0  0  0  0  0  0  0  0  0  0  0
  -16.4335   15.6216  -24.2817 N   0  0  0  0  0  0  0  0  0  0  0  0
  -15.7202   16.3588  -24.1375 H   0  0  0  0  0  0  0  0  0  0  0  0
  -17.0367   15.4963  -25.5933 C   0  0  0  0  0  0  0  0  0  0  0  0
  -16.0899   15.6275  -26.7942 C   0  0  0  0  0  0  0  0  0  0  0  0
  -16.7592   14.3001  -26.4299 C   0  0  0  0  0  0  0  0  0  0  0  0
  -15.8199   10.4544  -21.2009 C   0  0  0  0  0  0  0  0  0  0  0  0
  -15.9017    9.5599  -20.4710 N   0  0  0  0  0  0  0  0  0  0  0  0
 18 19  1  0  0  0
 19 20  1  0  0  0
 20 21  1  0  0  0
 21 22  1  0  0  0
 22 23  1  0  0  0
 23 24  1  0  0  0
 22 12  1  0  0  0
 12 13  2  0  0  0
 13 14  1  0  0  0
 14 15  2  0  0  0
 15 10  1  0  0  0
 10  1  1  0  0  0
  1  2  1  0  0  0
  2  3  2  0  0  0
  3 25  1  0  0  0
 25 27  1  0  0  0
 27 28  1  0  0  0
 28 29  1  0  0  0
  3  4  1  0  0  0
  4  5  2  0  0  0
  5  6  1  0  0  0
  6  7  2  0  0  0
  7 30  1  0  0  0
 30 31  3  0  0  0
  7  8  1  0  0  0
  8  9  1  0  0  0
 15 16  1  0  0  0
 16 17  2  0  0  0
 24 19  1  0  0  0
 17 12  1  0  0  0
  9  1  2  0  0  0
 29 27  1  0  0  0
  8  4  1  0  0  0
 10 11  1  0  0  0
 25 26  1  0  0  0
M  END
> <minimizedAffinity>
-6.67831

> <CNNscore>
0.4547850490

> <CNNaffinity>
6.8036818504

> <CNN_VS>
3.0942127705

> <CNNaffinity_variance>
0.4004527926

$$$$
[H]c1nc2c(N([H])C3([H])C([H])([H])C3([H])[H])nc(N([H])c3c([H])c([H])c(N4C([H])([H])C([H])([H])N(C([H])([H])[H])C([H])([H])C4([H])[H])c([H])c3[H])nn2c1C#N


 31 35  0  0  0  0  0  0  0  0999 V2000
  -18.4252   13.7298  -21.3267 C   0  0  0  0  0  0  0  0  0  0  0  0
  -17.5930   13.7949  -22.4174 N   0  0  0  0  0  0  0  0  0  0  0  0
  -16.6543   12.8628  -22.6325 C   0  0  0  0  0  0  0  0  0  0  0  0
  -16.5376   11.8253  -21.7287 C   0  0  0  0  0  0  0  0  0  0  0  0
  -15.7107   10.7767  -21.6884 N   0  0  0  0  0  0  0  0  0  0  0  0
  -15.9966   10.0425  -20.5950 C   0  0  0  0  0  0  0  0  0  0  0  0
  -17.0389   10.6408  -19.9153 C   0  0  0  0  0  0  0  0  0  0  0  0
  -17.3501   11.7448  -20.6468 N   0  0  0  0  0  0  0  0  0  0  0  0
  -18.2443   12.6980  -20.5078 N   0  0  0  0  0  0  0  0  0  0  0  0
  -19.3721   14.7567  -21.2182 N   0  0  0  0  0  0  0  0  0  0  0  0
  -19.9642   14.9837  -22.0849 H   0  0  0  0  0  0  0  0  0  0  0  0
  -20.0466   17.2572  -17.8334 C   0  0  0  0  0  0  0  0  0  0  0  0
  -21.0738   16.6851  -18.5071 C   0  0  0  0  0  0  0  0  0  0  0  0
  -20.9112   15.8536  -19.6163 C   0  0  0  0  0  0  0  0  0  0  0  0
  -19.6591   15.5645  -20.0963 C   0  0  0  0  0  0  0  0  0  0  0  0
  -18.5980   16.1561  -19.3990 C   0  0  0  0  0  0  0  0  0  0  0  0
  -18.7649   16.9705  -18.3118 C   0  0  0  0  0  0  0  0  0  0  0  0
  -21.4263   18.4819  -12.9025 C   0  0  0  0  0  0  0  0  0  0  0  0
  -21.0114   19.0128  -14.1934 N   0  0  0  0  0  0  0  0  0  0  0  0
  -21.9090   18.6883  -15.2451 C   0  0  0  0  0  0  0  0  0  0  0  0
  -21.2477   19.0508  -16.5648 C   0  0  0  0  0  0  0  0  0  0  0  0
  -20.1770   18.1028  -16.7096 N   0  0  0  0  0  0  0  0  0  0  0  0
  -19.2249   18.0611  -15.6223 C   0  0  0  0  0  0  0  0  0  0  0  0
  -19.6392   18.8315  -14.4201 C   0  0  0  0  0  0  0  0  0  0  0  0
  -15.7824   12.9241  -23.7684 N   0  0  0  0  0  0  0  0  0  0  0  0
  -15.9105   12.3173  -24.5982 H   0  0  0  0  0  0  0  0  0  0  0  0
  -14.6793   13.8637  -23.7681 C   0  0  0  0  0  0  0  0  0  0  0  0
  -14.3477   14.5259  -25.1125 C   0  0  0  0  0  0  0  0  0  0  0  0
  -14.9380   15.3166  -23.9423 C   0  0  0  0  0  0  0  0  0  0  0  0
  -17.6864   10.2283  -18.7013 C   0  0  0  0  0  0  0  0  0  0  0  0
  -18.2078    9.8771  -17.7295 N   0  0  0  0  0  0  0  0  0  0  0  0
 18 19  1  0  0  0
 19 20  1  0  0  0
 20 21  1  0  0  0
 21 22  1  0  0  0
 22 23  1  0  0  0
 23 24  1  0  0  0
 22 12  1  0  0  0
 12 13  2  0  0  0
 13 14  1  0  0  0
 14 15  2  0  0  0
 15 10  1  0  0  0
 10  1  1  0  0  0
  1  2  1  0  0  0
  2  3  2  0  0  0
  3 25  1  0  0  0
 25 27  1  0  0  0
 27 28  1  0  0  0
 28 29  1  0  0  0
  3  4  1  0  0  0
  4  5  2  0  0  0
  5  6  1  0  0  0
  6  7  2  0  0  0
  7 30  1  0  0  0
 30 31  3  0  0  0
  7  8  1  0  0  0
  8  9  1  0  0  0
 15 16  1  0  0  0
 16 17  2  0  0  0
 24 19  1  0  0  0
 17 12  1  0  0  0
  9  1  2  0  0  0
 29 27  1  0  0  0
  8  4  1  0  0  0
 10 11  1  0  0  0
 25 26  1  0  0  0
M  END
> <minimizedAffinity>
-7.20681

> <CNNscore>
0.4501921535

> <CNNaffinity>
6.7602949142

> <CNN_VS>
3.0434317589

> <CNNaffinity_variance>
0.0434914231

$$$$
[H]c1nc2c(N([H])C3([H])C([H])([H])C3([H])[H])nc(N([H])c3c([H])c([H])c(N4C([H])([H])C([H])([H])N(C([H])([H])[H])C([H])([H])C4([H])[H])c([H])c3[H])nn2c1C#N


 31 35  0  0  0  0  0  0  0  0999 V2000
  -18.0847   10.2253  -18.1984 C   0  0  0  0  0  0  0  0  0  0  0  0
  -18.5114   11.5298  -18.1463 N   0  0  0  0  0  0  0  0  0  0  0  0
  -19.4814   11.9110  -17.3036 C   0  0  0  0  0  0  0  0  0  0  0  0
  -20.0499   10.9593  -16.4804 C   0  0  0  0  0  0  0  0  0  0  0  0
  -21.0149   11.0484  -15.5609 N   0  0  0  0  0  0  0  0  0  0  0  0
  -21.2144    9.8285  -15.0238 C   0  0  0  0  0  0  0  0  0  0  0  0
  -20.3496    8.9317  -15.6190 C   0  0  0  0  0  0  0  0  0  0  0  0
  -19.6416    9.6673  -16.5181 N   0  0  0  0  0  0  0  0  0  0  0  0
  -18.6859    9.3749  -17.3717 N   0  0  0  0  0  0  0  0  0  0  0  0
  -17.0577    9.9542  -19.1119 N   0  0  0  0  0  0  0  0  0  0  0  0
  -16.4100    9.1233  -18.9031 H   0  0  0  0  0  0  0  0  0  0  0  0
  -16.2490   12.1776  -22.6568 C   0  0  0  0  0  0  0  0  0  0  0  0
  -15.4026   11.2158  -22.2156 C   0  0  0  0  0  0  0  0  0  0  0  0
  -15.6201   10.4534  -21.0670 C   0  0  0  0  0  0  0  0  0  0  0  0
  -16.7412   10.6472  -20.3007 C   0  0  0  0  0  0  0  0  0  0  0  0
  -17.6157   11.6413  -20.7577 C   0  0  0  0  0  0  0  0  0  0  0  0
  -17.3961   12.3852  -21.8853 C   0  0  0  0  0  0  0  0  0  0  0  0
  -16.3535   16.6114  -25.4936 C   0  0  0  0  0  0  0  0  0  0  0  0
  -16.2197   15.1624  -25.5470 N   0  0  0  0  0  0  0  0  0  0  0  0
  -17.3576   14.4778  -25.0434 C   0  0  0  0  0  0  0  0  0  0  0  0
  -17.0023   13.0073  -24.8958 C   0  0  0  0  0  0  0  0  0  0  0  0
  -16.0581   12.9663  -23.8128 N   0  0  0  0  0  0  0  0  0  0  0  0
  -14.8824   13.7921  -23.9743 C   0  0  0  0  0  0  0  0  0  0  0  0
  -14.9533   14.7352  -25.1215 C   0  0  0  0  0  0  0  0  0  0  0  0
  -19.9316   13.2705  -17.2436 N   0  0  0  0  0  0  0  0  0  0  0  0
  -19.5373   13.9553  -16.5738 H   0  0  0  0  0  0  0  0  0  0  0  0
  -20.9745   13.7145  -18.1463 C   0  0  0  0  0  0  0  0  0  0  0  0
  -20.8774   15.1649  -18.6392 C   0  0  0  0  0  0  0  0  0  0  0  0
  -20.6623   13.9735  -19.5758 C   0  0  0  0  0  0  0  0  0  0  0  0
  -20.1936    7.5244  -15.3775 C   0  0  0  0  0  0  0  0  0  0  0  0
  -20.0540    6.3945  -15.1694 N   0  0  0  0  0  0  0  0  0  0  0  0
 18 19  1  0  0  0
 19 20  1  0  0  0
 20 21  1  0  0  0
 21 22  1  0  0  0
 22 23  1  0  0  0
 23 24  1  0  0  0
 22 12  1  0  0  0
 12 13  2  0  0  0
 13 14  1  0  0  0
 14 15  2  0  0  0
 15 10  1  0  0  0
 10  1  1  0  0  0
  1  2  1  0  0  0
  2  3  2  0  0  0
  3 25  1  0  0  0
 25 27  1  0  0  0
 27 28  1  0  0  0
 28 29  1  0  0  0
  3  4  1  0  0  0
  4  5  2  0  0  0
  5  6  1  0  0  0
  6  7  2  0  0  0
  7 30  1  0  0  0
 30 31  3  0  0  0
  7  8  1  0  0  0
  8  9  1  0  0  0
 15 16  1  0  0  0
 16 17  2  0  0  0
 24 19  1  0  0  0
 17 12  1  0  0  0
  9  1  2  0  0  0
 29 27  1  0  0  0
  8  4  1  0  0  0
 10 11  1  0  0  0
 25 26  1  0  0  0
M  END
> <minimizedAffinity>
-8.43193

> <CNNscore>
0.4143603742

> <CNNaffinity>
6.8527617455

> <CNN_VS>
2.8395128250

> <CNNaffinity_variance>
0.0460970215

$$$$
[H]c1nc2c(N([H])C3([H])C([H])([H])C3([H])[H])nc(N([H])c3c([H])c([H])c(N4C([H])([H])C([H])([H])N(C([H])([H])[H])C([H])([H])C4([H])[H])c([H])c3[H])nn2c1C#N


 31 35  0  0  0  0  0  0  0  0999 V2000
  -17.2673   12.7331  -21.1955 C   0  0  0  0  0  0  0  0  0  0  0  0
  -17.3609   13.9481  -20.5621 N   0  0  0  0  0  0  0  0  0  0  0  0
  -17.5329   15.0823  -21.2552 C   0  0  0  0  0  0  0  0  0  0  0  0
  -17.6151   15.0066  -22.6315 C   0  0  0  0  0  0  0  0  0  0  0  0
  -17.7816   15.9521  -23.5605 N   0  0  0  0  0  0  0  0  0  0  0  0
  -17.7965   15.3673  -24.7747 C   0  0  0  0  0  0  0  0  0  0  0  0
  -17.6344   14.0053  -24.6164 C   0  0  0  0  0  0  0  0  0  0  0  0
  -17.5249   13.8163  -23.2737 N   0  0  0  0  0  0  0  0  0  0  0  0
  -17.3567   12.7513  -22.5221 N   0  0  0  0  0  0  0  0  0  0  0  0
  -17.0995   11.6201  -20.3612 N   0  0  0  0  0  0  0  0  0  0  0  0
  -16.2848   10.9540  -20.5751 H   0  0  0  0  0  0  0  0  0  0  0  0
  -19.3349   10.3057  -16.9790 C   0  0  0  0  0  0  0  0  0  0  0  0
  -19.5374   11.5267  -17.5306 C   0  0  0  0  0  0  0  0  0  0  0  0
  -18.8401   12.0056  -18.6407 C   0  0  0  0  0  0  0  0  0  0  0  0
  -17.8811   11.2367  -19.2496 C   0  0  0  0  0  0  0  0  0  0  0  0
  -17.6727    9.9746  -18.6789 C   0  0  0  0  0  0  0  0  0  0  0  0
  -18.3605    9.5113  -17.5901 C   0  0  0  0  0  0  0  0  0  0  0  0
  -21.3836   10.4795  -12.1324 C   0  0  0  0  0  0  0  0  0  0  0  0
  -21.0026    9.6111  -13.2374 N   0  0  0  0  0  0  0  0  0  0  0  0
  -19.6194    9.6819  -13.5518 C   0  0  0  0  0  0  0  0  0  0  0  0
  -19.3926    8.9586  -14.8693 C   0  0  0  0  0  0  0  0  0  0  0  0
  -20.0219    9.7920  -15.8569 N   0  0  0  0  0  0  0  0  0  0  0  0
  -21.4208   10.0815  -15.6339 C   0  0  0  0  0  0  0  0  0  0  0  0
  -21.9216    9.6722  -14.2952 C   0  0  0  0  0  0  0  0  0  0  0  0
  -17.6315   16.3538  -20.6010 N   0  0  0  0  0  0  0  0  0  0  0  0
  -17.4176   17.2440  -21.0858 H   0  0  0  0  0  0  0  0  0  0  0  0
  -18.0437   16.4091  -19.2130 C   0  0  0  0  0  0  0  0  0  0  0  0
  -18.8455   17.6473  -18.7889 C   0  0  0  0  0  0  0  0  0  0  0  0
  -19.4775   16.2548  -18.8547 C   0  0  0  0  0  0  0  0  0  0  0  0
  -17.5854   12.9749  -25.6159 C   0  0  0  0  0  0  0  0  0  0  0  0
  -17.5320   12.1352  -26.4107 N   0  0  0  0  0  0  0  0  0  0  0  0
 18 19  1  0  0  0
 19 20  1  0  0  0
 20 21  1  0  0  0
 21 22  1  0  0  0
 22 23  1  0  0  0
 23 24  1  0  0  0
 22 12  1  0  0  0
 12 13  2  0  0  0
 13 14  1  0  0  0
 14 15  2  0  0  0
 15 10  1  0  0  0
 10  1  1  0  0  0
  1  2  1  0  0  0
  2  3  2  0  0  0
  3 25  1  0  0  0
 25 27  1  0  0  0
 27 28  1  0  0  0
 28 29  1  0  0  0
  3  4  1  0  0  0
  4  5  2  0  0  0
  5  6  1  0  0  0
  6  7  2  0  0  0
  7 30  1  0  0  0
 30 31  3  0  0  0
  7  8  1  0  0  0
  8  9  1  0  0  0
 15 16  1  0  0  0
 16 17  2  0  0  0
 24 19  1  0  0  0
 17 12  1  0  0  0
  9  1  2  0  0  0
 29 27  1  0  0  0
  8  4  1  0  0  0
 10 11  1  0  0  0
 25 26  1  0  0  0
M  END
> <minimizedAffinity>
-7.80945

> <CNNscore>
0.4116847813

> <CNNaffinity>
6.9644594193

> <CNN_VS>
2.8671619892

> <CNNaffinity_variance>
0.1661293358

$$$$
[H]c1nc2c(N([H])C3([H])C([H])([H])C3([H])[H])nc(N([H])c3c([H])c([H])c(N4C([H])([H])C([H])([H])N(C([H])([H])[H])C([H])([H])C4([H])[H])c([H])c3[H])nn2c1C#N


 31 35  0  0  0  0  0  0  0  0999 V2000
  -18.3216    9.9128  -17.7594 C   0  0  0  0  0  0  0  0  0  0  0  0
  -18.5777    8.7392  -17.0936 N   0  0  0  0  0  0  0  0  0  0  0  0
  -19.5715    8.6498  -16.1988 C   0  0  0  0  0  0  0  0  0  0  0  0
  -20.3412    9.7702  -15.9558 C   0  0  0  0  0  0  0  0  0  0  0  0
  -21.3760    9.9709  -15.1352 N   0  0  0  0  0  0  0  0  0  0  0  0
  -21.7871   11.2481  -15.2621 C   0  0  0  0  0  0  0  0  0  0  0  0
  -20.9898   11.8834  -16.1932 C   0  0  0  0  0  0  0  0  0  0  0  0
  -20.1030   10.9369  -16.6035 N   0  0  0  0  0  0  0  0  0  0  0  0
  -19.1106   10.9419  -17.4651 N   0  0  0  0  0  0  0  0  0  0  0  0
  -17.2638    9.8765  -18.6774 N   0  0  0  0  0  0  0  0  0  0  0  0
  -16.4717    9.1734  -18.4991 H   0  0  0  0  0  0  0  0  0  0  0  0
  -16.5959   12.1173  -22.2406 C   0  0  0  0  0  0  0  0  0  0  0  0
  -17.5981   12.4310  -21.3842 C   0  0  0  0  0  0  0  0  0  0  0  0
  -17.8583   11.7372  -20.2015 C   0  0  0  0  0  0  0  0  0  0  0  0
  -17.0849   10.6651  -19.8348 C   0  0  0  0  0  0  0  0  0  0  0  0
  -16.0490   10.3419  -20.7205 C   0  0  0  0  0  0  0  0  0  0  0  0
  -15.7995   11.0270  -21.8787 C   0  0  0  0  0  0  0  0  0  0  0  0
  -16.2521   16.3152  -25.3991 C   0  0  0  0  0  0  0  0  0  0  0  0
  -16.2364   14.8604  -25.3405 N   0  0  0  0  0  0  0  0  0  0  0  0
  -17.4410   14.3092  -24.8285 C   0  0  0  0  0  0  0  0  0  0  0  0
  -17.2122   12.8307  -24.5601 C   0  0  0  0  0  0  0  0  0  0  0  0
  -16.3068   12.7976  -23.4442 N   0  0  0  0  0  0  0  0  0  0  0  0
  -15.0630   13.5123  -23.6244 C   0  0  0  0  0  0  0  0  0  0  0  0
  -15.0225   14.3674  -24.8399 C   0  0  0  0  0  0  0  0  0  0  0  0
  -19.8447    7.4284  -15.5003 N   0  0  0  0  0  0  0  0  0  0  0  0
  -19.2008    7.0431  -14.7861 H   0  0  0  0  0  0  0  0  0  0  0  0
  -21.0608    6.6977  -15.7948 C   0  0  0  0  0  0  0  0  0  0  0  0
  -21.1411    5.2627  -15.2561 C   0  0  0  0  0  0  0  0  0  0  0  0
  -22.0245    6.3859  -14.7076 C   0  0  0  0  0  0  0  0  0  0  0  0
  -21.0442   13.2410  -16.6594 C   0  0  0  0  0  0  0  0  0  0  0  0
  -21.0694   14.3332  -17.0416 N   0  0  0  0  0  0  0  0  0  0  0  0
 18 19  1  0  0  0
 19 20  1  0  0  0
 20 21  1  0  0  0
 21 22  1  0  0  0
 22 23  1  0  0  0
 23 24  1  0  0  0
 22 12  1  0  0  0
 12 13  2  0  0  0
 13 14  1  0  0  0
 14 15  2  0  0  0
 15 10  1  0  0  0
 10  1  1  0  0  0
  1  2  1  0  0  0
  2  3  2  0  0  0
  3 25  1  0  0  0
 25 27  1  0  0  0
 27 28  1  0  0  0
 28 29  1  0  0  0
  3  4  1  0  0  0
  4  5  2  0  0  0
  5  6  1  0  0  0
  6  7  2  0  0  0
  7 30  1  0  0  0
 30 31  3  0  0  0
  7  8  1  0  0  0
  8  9  1  0  0  0
 15 16  1  0  0  0
 16 17  2  0  0  0
 24 19  1  0  0  0
 17 12  1  0  0  0
  9  1  2  0  0  0
 29 27  1  0  0  0
  8  4  1  0  0  0
 10 11  1  0  0  0
 25 26  1  0  0  0
M  END
> <minimizedAffinity>
-8.35077

> <CNNscore>
0.3892983496

> <CNNaffinity>
6.7021431923

> <CNN_VS>
2.6091332436

> <CNNaffinity_variance>
0.1091875806

$$$$
[H]c1nc2c(N([H])C3([H])C([H])([H])C3([H])[H])nc(N([H])c3c([H])c([H])c(N4C([H])([H])C([H])([H])N(C([H])([H])[H])C([H])([H])C4([H])[H])c([H])c3[H])nn2c1C#N


 31 35  0  0  0  0  0  0  0  0999 V2000
  -17.3161   12.6816  -21.1763 C   0  0  0  0  0  0  0  0  0  0  0  0
  -17.4898   13.8880  -20.5433 N   0  0  0  0  0  0  0  0  0  0  0  0
  -17.7130   15.0121  -21.2382 C   0  0  0  0  0  0  0  0  0  0  0  0
  -17.7656   14.9349  -22.6159 C   0  0  0  0  0  0  0  0  0  0  0  0
  -17.9683   15.8715  -23.5467 N   0  0  0  0  0  0  0  0  0  0  0  0
  -17.9279   15.2895  -24.7616 C   0  0  0  0  0  0  0  0  0  0  0  0
  -17.6918   13.9385  -24.6019 C   0  0  0  0  0  0  0  0  0  0  0  0
  -17.5964   13.7530  -23.2576 N   0  0  0  0  0  0  0  0  0  0  0  0
  -17.3821   12.6976  -22.5042 N   0  0  0  0  0  0  0  0  0  0  0  0
  -17.1009   11.5781  -20.3403 N   0  0  0  0  0  0  0  0  0  0  0  0
  -16.2712   10.9347  -20.5661 H   0  0  0  0  0  0  0  0  0  0  0  0
  -19.4834   10.5295  -16.9656 C   0  0  0  0  0  0  0  0  0  0  0  0
  -18.5713    9.6711  -17.4827 C   0  0  0  0  0  0  0  0  0  0  0  0
  -17.7606    9.9636  -18.5805 C   0  0  0  0  0  0  0  0  0  0  0  0
  -17.8506   11.1777  -19.2128 C   0  0  0  0  0  0  0  0  0  0  0  0
  -18.7935   12.0644  -18.6774 C   0  0  0  0  0  0  0  0  0  0  0  0
  -19.5852   11.7708  -17.6003 C   0  0  0  0  0  0  0  0  0  0  0  0
  -22.5664    7.5588  -13.9018 C   0  0  0  0  0  0  0  0  0  0  0  0
  -22.1420    8.9173  -14.2096 N   0  0  0  0  0  0  0  0  0  0  0  0
  -22.4322    9.3038  -15.5451 C   0  0  0  0  0  0  0  0  0  0  0  0
  -21.7130   10.6123  -15.8295 C   0  0  0  0  0  0  0  0  0  0  0  0
  -20.3186   10.2643  -15.8579 N   0  0  0  0  0  0  0  0  0  0  0  0
  -19.8097    9.6157  -14.6702 C   0  0  0  0  0  0  0  0  0  0  0  0
  -20.8619    9.1947  -13.7079 C   0  0  0  0  0  0  0  0  0  0  0  0
  -17.8954   16.2746  -20.5844 N   0  0  0  0  0  0  0  0  0  0  0  0
  -17.1476   16.9903  -20.5440 H   0  0  0  0  0  0  0  0  0  0  0  0
  -19.1658   16.5718  -19.9542 C   0  0  0  0  0  0  0  0  0  0  0  0
  -20.1879   17.3355  -20.8075 C   0  0  0  0  0  0  0  0  0  0  0  0
  -20.4001   15.8753  -20.4005 C   0  0  0  0  0  0  0  0  0  0  0  0
  -17.5663   12.9146  -25.6015 C   0  0  0  0  0  0  0  0  0  0  0  0
  -17.4683   12.1033  -26.4210 N   0  0  0  0  0  0  0  0  0  0  0  0
 18 19  1  0  0  0
 19 20  1  0  0  0
 20 21  1  0  0  0
 21 22  1  0  0  0
 22 23  1  0  0  0
 23 24  1  0  0  0
 22 12  1  0  0  0
 12 13  2  0  0  0
 13 14  1  0  0  0
 14 15  2  0  0  0
 15 10  1  0  0  0
 10  1  1  0  0  0
  1  2  1  0  0  0
  2  3  2  0  0  0
  3 25  1  0  0  0
 25 27  1  0  0  0
 27 28  1  0  0  0
 28 29  1  0  0  0
  3  4  1  0  0  0
  4  5  2  0  0  0
  5  6  1  0  0  0
  6  7  2  0  0  0
  7 30  1  0  0  0
 30 31  3  0  0  0
  7  8  1  0  0  0
  8  9  1  0  0  0
 15 16  1  0  0  0
 16 17  2  0  0  0
 24 19  1  0  0  0
 17 12  1  0  0  0
  9  1  2  0  0  0
 29 27  1  0  0  0
  8  4  1  0  0  0
 10 11  1  0  0  0
 25 26  1  0  0  0
M  END
> <minimizedAffinity>
-7.83080

> <CNNscore>
0.3627372086

> <CNNaffinity>
6.8096542358

> <CNN_VS>
2.4701149464

> <CNNaffinity_variance>
0.0626081601

$$$$
[H]O[C@@]([H])(C([H])([H])C(=O)N([H])[C@]([H])(C(=O)N([H])[C@@]([H])(C([H])([H])C([H])(C([H])([H])[H])C([H])([H])[H])C([H])(C([H])([H])[H])C([H])([H])[H])C([H])([H])[H])[C@@]([H])(N([H])C(=O)[C@@]([H])(N([H])C(=O)C([H])([H])C([H])(C([H])([H])[H])C([H])([H])[H])C([H])(C([H])([H])[H])C([H])([H])[H])C([H])(C([H])([H])[H])C([H])([H])[H]


 42 41  0  0  0  0  0  0  0  0999 V2000
  -17.5699   16.1468  -20.0957 C   0  0  0  0  0  0  0  0  0  0  0  0
  -16.6526   17.0162  -20.6325 O   0  0  0  0  0  0  0  0  0  0  0  0
  -17.0339   17.6947  -21.2279 H   0  0  0  0  0  0  0  0  0  0  0  0
  -18.8089   15.8685  -20.8512 C   0  0  0  0  0  0  0  0  0  0  0  0
  -19.6175   17.0692  -21.1218 N   0  0  0  0  0  0  0  0  0  0  0  0
  -20.9647   17.1425  -20.7779 C   0  0  0  0  0  0  0  0  0  0  0  0
  -21.4943   16.1430  -20.1805 O   0  0  0  0  0  0  0  0  0  0  0  0
  -19.1544   17.8897  -21.5568 H   0  0  0  0  0  0  0  0  0  0  0  0
  -21.8727   18.2723  -21.0316 C   0  0  0  0  0  0  0  0  0  0  0  0
  -22.0437   18.4494  -22.4128 N   0  0  0  0  0  0  0  0  0  0  0  0
  -21.9144   19.5216  -23.2683 C   0  0  0  0  0  0  0  0  0  0  0  0
  -21.6052   20.6608  -22.8700 O   0  0  0  0  0  0  0  0  0  0  0  0
  -22.3556   17.5240  -22.9400 H   0  0  0  0  0  0  0  0  0  0  0  0
  -22.1330   19.4015  -24.7506 C   0  0  0  0  0  0  0  0  0  0  0  0
  -23.5617   19.0587  -25.0944 C   0  0  0  0  0  0  0  0  0  0  0  0
  -23.7075   18.4603  -26.4713 C   0  0  0  0  0  0  0  0  0  0  0  0
  -24.4918   20.2273  -24.9398 C   0  0  0  0  0  0  0  0  0  0  0  0
  -22.9765   18.4752  -20.0553 C   0  0  0  0  0  0  0  0  0  0  0  0
  -22.4917   19.4512  -18.9378 C   0  0  0  0  0  0  0  0  0  0  0  0
  -24.2509   19.0528  -20.6147 C   0  0  0  0  0  0  0  0  0  0  0  0
  -18.4685   15.2097  -22.1887 C   0  0  0  0  0  0  0  0  0  0  0  0
  -18.5226   16.1200  -23.3626 C   0  0  0  0  0  0  0  0  0  0  0  0
  -17.1205   14.5330  -22.1325 C   0  0  0  0  0  0  0  0  0  0  0  0
  -17.9179   16.7606  -18.7274 C   0  0  0  0  0  0  0  0  0  0  0  0
  -19.9274   15.7847  -17.5747 N   0  0  0  0  0  0  0  0  0  0  0  0
  -18.5285   15.7513  -17.8163 C   0  0  0  0  0  0  0  0  0  0  0  0
  -17.8151   14.8873  -17.2865 O   0  0  0  0  0  0  0  0  0  0  0  0
  -20.4947   16.5489  -17.9780 H   0  0  0  0  0  0  0  0  0  0  0  0
  -20.5061   14.7322  -16.7557 C   0  0  0  0  0  0  0  0  0  0  0  0
  -21.9777   15.1007  -16.5010 C   0  0  0  0  0  0  0  0  0  0  0  0
  -19.7164   12.4094  -17.0481 N   0  0  0  0  0  0  0  0  0  0  0  0
  -20.5130   13.4352  -17.5368 C   0  0  0  0  0  0  0  0  0  0  0  0
  -21.2195   13.3572  -18.5864 O   0  0  0  0  0  0  0  0  0  0  0  0
  -19.1474   12.6016  -16.1652 H   0  0  0  0  0  0  0  0  0  0  0  0
  -19.5500   11.0659  -17.6033 C   0  0  0  0  0  0  0  0  0  0  0  0
  -19.4862   10.1248  -16.4718 C   0  0  0  0  0  0  0  0  0  0  0  0
  -18.9157    8.7650  -16.7271 C   0  0  0  0  0  0  0  0  0  0  0  0
  -20.7816    9.9802  -15.6830 C   0  0  0  0  0  0  0  0  0  0  0  0
  -18.6771   10.9714  -18.7626 C   0  0  0  0  0  0  0  0  0  0  0  0
  -17.1883   11.4596  -20.6296 C   0  0  0  0  0  0  0  0  0  0  0  0
  -17.4214   11.6388  -19.0540 C   0  0  0  0  0  0  0  0  0  0  0  0
  -16.1301   11.0702  -18.5287 C   0  0  0  0  0  0  0  0  0  0  0  0
 40 41  1  0  0  0
 41 42  1  0  0  0
 41 39  1  0  0  0
 39 35  1  0  0  0
 35 31  1  0  0  0
 31 32  1  0  0  0
 32 33  2  0  0  0
 32 29  1  0  0  0
 29 30  1  0  0  0
 29 25  1  0  0  0
 25 26  1  0  0  0
 26 27  2  0  0  0
 26 24  1  0  0  0
 24  1  1  0  0  0
  1  2  1  0  0  0
  1  4  1  0  0  0
  4  5  1  0  0  0
  5  6  1  0  0  0
  6  7  2  0  0  0
  6  9  1  0  0  0
  9 10  1  0  0  0
 10 11  1  0  0  0
 11 12  2  0  0  0
 11 14  1  0  0  0
 14 15  1  0  0  0
 15 16  1  0  0  0
 15 17  1  0  0  0
  9 18  1  0  0  0
 18 19  1  0  0  0
 18 20  1  0  0  0
  4 21  1  0  0  0
 21 22  1  0  0  0
 21 23  1  0  0  0
 35 36  1  0  0  0
 36 37  1  0  0  0
 36 38  1  0  0  0
 31 34  1  0  0  0
 25 28  1  0  0  0
  2  3  1  0  0  0
  5  8  1  0  0  0
 10 13  1  0  0  0
M  END
> <minimizedAffinity>
-6.15731

> <CNNscore>
0.2023811489

> <CNNaffinity>
6.2110857964

> <CNN_VS>
1.2570066452

> <CNNaffinity_variance>
0.2032020092

$$$$
[H]O[C@@]([H])(C([H])([H])C(=O)N([H])[C@]([H])(C(=O)N([H])[C@@]([H])(C([H])([H])C([H])(C([H])([H])[H])C([H])([H])[H])C([H])(C([H])([H])[H])C([H])([H])[H])C([H])([H])[H])[C@@]([H])(N([H])C(=O)[C@@]([H])(N([H])C(=O)C([H])([H])C([H])(C([H])([H])[H])C([H])([H])[H])C([H])(C([H])([H])[H])C([H])([H])[H])C([H])(C([H])([H])[H])C([H])([H])[H]


 42 41  0  0  0  0  0  0  0  0999 V2000
  -18.8520   11.9342  -19.0152 C   0  0  0  0  0  0  0  0  0  0  0  0
  -19.4418   12.6830  -20.0036 O   0  0  0  0  0  0  0  0  0  0  0  0
  -19.6500   13.6056  -19.7468 H   0  0  0  0  0  0  0  0  0  0  0  0
  -19.1353   12.2728  -17.6051 C   0  0  0  0  0  0  0  0  0  0  0  0
  -19.9114   13.5136  -17.4405 N   0  0  0  0  0  0  0  0  0  0  0  0
  -19.3294   14.6896  -16.9751 C   0  0  0  0  0  0  0  0  0  0  0  0
  -18.0763   14.6870  -16.7181 O   0  0  0  0  0  0  0  0  0  0  0  0
  -20.9141   13.5089  -17.7076 H   0  0  0  0  0  0  0  0  0  0  0  0
  -20.0133   15.9711  -16.7394 C   0  0  0  0  0  0  0  0  0  0  0  0
  -20.8648   15.8633  -15.6296 N   0  0  0  0  0  0  0  0  0  0  0  0
  -22.2027   15.5770  -15.4681 C   0  0  0  0  0  0  0  0  0  0  0  0
  -22.9625   15.3671  -16.4328 O   0  0  0  0  0  0  0  0  0  0  0  0
  -20.3539   16.0524  -14.6627 H   0  0  0  0  0  0  0  0  0  0  0  0
  -22.8516   15.4921  -14.1148 C   0  0  0  0  0  0  0  0  0  0  0  0
  -23.3805   16.8256  -13.6469 C   0  0  0  0  0  0  0  0  0  0  0  0
  -24.3080   17.4730  -14.6448 C   0  0  0  0  0  0  0  0  0  0  0  0
  -22.2872   17.7813  -13.2648 C   0  0  0  0  0  0  0  0  0  0  0  0
  -19.2406   17.2064  -17.0392 C   0  0  0  0  0  0  0  0  0  0  0  0
  -19.8870   17.9233  -18.2659 C   0  0  0  0  0  0  0  0  0  0  0  0
  -19.1695   18.2227  -15.9290 C   0  0  0  0  0  0  0  0  0  0  0  0
  -19.9081   11.1334  -16.9393 C   0  0  0  0  0  0  0  0  0  0  0  0
  -19.2583    9.8000  -17.0372 C   0  0  0  0  0  0  0  0  0  0  0  0
  -20.2024   11.4500  -15.4932 C   0  0  0  0  0  0  0  0  0  0  0  0
  -17.3430   12.0637  -19.2916 C   0  0  0  0  0  0  0  0  0  0  0  0
  -16.9393   12.7571  -21.6739 N   0  0  0  0  0  0  0  0  0  0  0  0
  -17.0162   11.7218  -20.7051 C   0  0  0  0  0  0  0  0  0  0  0  0
  -16.8047   10.5422  -21.0212 O   0  0  0  0  0  0  0  0  0  0  0  0
  -17.1778   13.7257  -21.4028 H   0  0  0  0  0  0  0  0  0  0  0  0
  -16.5286   12.4035  -23.0228 C   0  0  0  0  0  0  0  0  0  0  0  0
  -17.7990   12.3189  -23.8860 C   0  0  0  0  0  0  0  0  0  0  0  0
  -16.3436   14.7058  -23.9005 N   0  0  0  0  0  0  0  0  0  0  0  0
  -15.6860   13.5213  -23.6000 C   0  0  0  0  0  0  0  0  0  0  0  0
  -14.4495   13.3186  -23.7914 O   0  0  0  0  0  0  0  0  0  0  0  0
  -17.3943   14.7498  -23.7155 H   0  0  0  0  0  0  0  0  0  0  0  0
  -15.7676   15.9313  -24.4548 C   0  0  0  0  0  0  0  0  0  0  0  0
  -16.1787   17.0461  -23.5840 C   0  0  0  0  0  0  0  0  0  0  0  0
  -16.3152   16.7729  -22.1190 C   0  0  0  0  0  0  0  0  0  0  0  0
  -17.4031   17.8165  -24.0621 C   0  0  0  0  0  0  0  0  0  0  0  0
  -15.7630   16.0198  -25.9064 C   0  0  0  0  0  0  0  0  0  0  0  0
  -15.7863   15.7319  -28.3265 C   0  0  0  0  0  0  0  0  0  0  0  0
  -15.7320   14.9758  -26.9144 C   0  0  0  0  0  0  0  0  0  0  0  0
  -16.9055   14.0451  -27.0668 C   0  0  0  0  0  0  0  0  0  0  0  0
 40 41  1  0  0  0
 41 42  1  0  0  0
 41 39  1  0  0  0
 39 35  1  0  0  0
 35 31  1  0  0  0
 31 32  1  0  0  0
 32 33  2  0  0  0
 32 29  1  0  0  0
 29 30  1  0  0  0
 29 25  1  0  0  0
 25 26  1  0  0  0
 26 27  2  0  0  0
 26 24  1  0  0  0
 24  1  1  0  0  0
  1  2  1  0  0  0
  1  4  1  0  0  0
  4  5  1  0  0  0
  5  6  1  0  0  0
  6  7  2  0  0  0
  6  9  1  0  0  0
  9 10  1  0  0  0
 10 11  1  0  0  0
 11 12  2  0  0  0
 11 14  1  0  0  0
 14 15  1  0  0  0
 15 16  1  0  0  0
 15 17  1  0  0  0
  9 18  1  0  0  0
 18 19  1  0  0  0
 18 20  1  0  0  0
  4 21  1  0  0  0
 21 22  1  0  0  0
 21 23  1  0  0  0
 35 36  1  0  0  0
 36 37  1  0  0  0
 36 38  1  0  0  0
 31 34  1  0  0  0
 25 28  1  0  0  0
  2  3  1  0  0  0
  5  8  1  0  0  0
 10 13  1  0  0  0
M  END
> <minimizedAffinity>
-6.57931

> <CNNscore>
0.1782471240

> <CNNaffinity>
6.3997507095

> <CNN_VS>
1.1407371759

> <CNNaffinity_variance>
0.1802647859

$$$$
[H]O[C@@]([H])(C([H])([H])C(=O)N([H])[C@]([H])(C(=O)N([H])[C@@]([H])(C([H])([H])C([H])(C([H])([H])[H])C([H])([H])[H])C([H])(C([H])([H])[H])C([H])([H])[H])C([H])([H])[H])[C@@]([H])(N([H])C(=O)[C@@]([H])(N([H])C(=O)C([H])([H])C([H])(C([H])([H])[H])C([H])([H])[H])C([H])(C([H])([H])[H])C([H])([H])[H])C([H])(C([H])([H])[H])C([H])([H])[H]


 42 41  0  0  0  0  0  0  0  0999 V2000
  -18.3034   16.8730  -19.9175 C   0  0  0  0  0  0  0  0  0  0  0  0
  -19.0981   17.7692  -19.2460 O   0  0  0  0  0  0  0  0  0  0  0  0
  -19.7805   18.2033  -19.7992 H   0  0  0  0  0  0  0  0  0  0  0  0
  -18.0794   17.0703  -21.3647 C   0  0  0  0  0  0  0  0  0  0  0  0
  -18.1661   15.8276  -22.1501 N   0  0  0  0  0  0  0  0  0  0  0  0
  -17.0536   15.2749  -22.7789 C   0  0  0  0  0  0  0  0  0  0  0  0
  -15.9232   15.8560  -22.6346 O   0  0  0  0  0  0  0  0  0  0  0  0
  -19.0814   15.3421  -22.2084 H   0  0  0  0  0  0  0  0  0  0  0  0
  -17.0318   14.0635  -23.6139 C   0  0  0  0  0  0  0  0  0  0  0  0
  -17.4059   12.9477  -22.8501 N   0  0  0  0  0  0  0  0  0  0  0  0
  -17.3217   12.6253  -21.5133 C   0  0  0  0  0  0  0  0  0  0  0  0
  -16.8001   13.3844  -20.6743 O   0  0  0  0  0  0  0  0  0  0  0  0
  -17.8716   12.1391  -23.4507 H   0  0  0  0  0  0  0  0  0  0  0  0
  -17.8554   11.3336  -20.9600 C   0  0  0  0  0  0  0  0  0  0  0  0
  -16.7751   10.4886  -20.3309 C   0  0  0  0  0  0  0  0  0  0  0  0
  -16.3791   10.9684  -18.9568 C   0  0  0  0  0  0  0  0  0  0  0  0
  -15.5586   10.3598  -21.2017 C   0  0  0  0  0  0  0  0  0  0  0  0
  -17.4249   14.2267  -25.0393 C   0  0  0  0  0  0  0  0  0  0  0  0
  -16.2039   14.7754  -25.8421 C   0  0  0  0  0  0  0  0  0  0  0  0
  -17.8811   12.9747  -25.7428 C   0  0  0  0  0  0  0  0  0  0  0  0
  -19.1032   18.0606  -21.9216 C   0  0  0  0  0  0  0  0  0  0  0  0
  -18.5195   19.2949  -22.5093 C   0  0  0  0  0  0  0  0  0  0  0  0
  -20.0073   17.3959  -22.9309 C   0  0  0  0  0  0  0  0  0  0  0  0
  -18.9787   15.5111  -19.6733 C   0  0  0  0  0  0  0  0  0  0  0  0
  -20.6821   15.0507  -17.8828 N   0  0  0  0  0  0  0  0  0  0  0  0
  -19.3356   15.3291  -18.2376 C   0  0  0  0  0  0  0  0  0  0  0  0
  -18.4560   15.4114  -17.3683 O   0  0  0  0  0  0  0  0  0  0  0  0
  -21.4103   15.0458  -18.6164 H   0  0  0  0  0  0  0  0  0  0  0  0
  -20.9814   14.7874  -16.4849 C   0  0  0  0  0  0  0  0  0  0  0  0
  -22.4057   15.3004  -16.2121 C   0  0  0  0  0  0  0  0  0  0  0  0
  -21.2943   12.8681  -14.9606 N   0  0  0  0  0  0  0  0  0  0  0  0
  -21.0071   13.2918  -16.2504 C   0  0  0  0  0  0  0  0  0  0  0  0
  -20.7543   12.5163  -17.2208 O   0  0  0  0  0  0  0  0  0  0  0  0
  -21.4684   13.6176  -14.2202 H   0  0  0  0  0  0  0  0  0  0  0  0
  -21.3884   11.4918  -14.4727 C   0  0  0  0  0  0  0  0  0  0  0  0
  -20.0148   10.9815  -14.3217 C   0  0  0  0  0  0  0  0  0  0  0  0
  -19.6555    9.7217  -15.0453 C   0  0  0  0  0  0  0  0  0  0  0  0
  -19.5190   10.8876  -12.8842 C   0  0  0  0  0  0  0  0  0  0  0  0
  -22.4701   10.7004  -15.0368 C   0  0  0  0  0  0  0  0  0  0  0  0
  -23.2749    8.9157  -13.5850 C   0  0  0  0  0  0  0  0  0  0  0  0
  -23.6949   10.2106  -14.4310 C   0  0  0  0  0  0  0  0  0  0  0  0
  -24.7768    9.6219  -15.2969 C   0  0  0  0  0  0  0  0  0  0  0  0
 40 41  1  0  0  0
 41 42  1  0  0  0
 41 39  1  0  0  0
 39 35  1  0  0  0
 35 31  1  0  0  0
 31 32  1  0  0  0
 32 33  2  0  0  0
 32 29  1  0  0  0
 29 30  1  0  0  0
 29 25  1  0  0  0
 25 26  1  0  0  0
 26 27  2  0  0  0
 26 24  1  0  0  0
 24  1  1  0  0  0
  1  2  1  0  0  0
  1  4  1  0  0  0
  4  5  1  0  0  0
  5  6  1  0  0  0
  6  7  2  0  0  0
  6  9  1  0  0  0
  9 10  1  0  0  0
 10 11  1  0  0  0
 11 12  2  0  0  0
 11 14  1  0  0  0
 14 15  1  0  0  0
 15 16  1  0  0  0
 15 17  1  0  0  0
  9 18  1  0  0  0
 18 19  1  0  0  0
 18 20  1  0  0  0
  4 21  1  0  0  0
 21 22  1  0  0  0
 21 23  1  0  0  0
 35 36  1  0  0  0
 36 37  1  0  0  0
 36 38  1  0  0  0
 31 34  1  0  0  0
 25 28  1  0  0  0
  2  3  1  0  0  0
  5  8  1  0  0  0
 10 13  1  0  0  0
M  END
> <minimizedAffinity>
-6.34944

> <CNNscore>
0.1773356497

> <CNNaffinity>
6.2133002281

> <CNN_VS>
1.1018396616

> <CNNaffinity_variance>
0.4277730584

$$$$
[H]O[C@@]([H])(C([H])([H])C(=O)N([H])[C@]([H])(C(=O)N([H])[C@@]([H])(C([H])([H])C([H])(C([H])([H])[H])C([H])([H])[H])C([H])(C([H])([H])[H])C([H])([H])[H])C([H])([H])[H])[C@@]([H])(N([H])C(=O)[C@@]([H])(N([H])C(=O)C([H])([H])C([H])(C([H])([H])[H])C([H])([H])[H])C([H])(C([H])([H])[H])C([H])([H])[H])C([H])(C([H])([H])[H])C([H])([H])[H]


 42 41  0  0  0  0  0  0  0  0999 V2000
  -19.5957   13.4960  -16.6051 C   0  0  0  0  0  0  0  0  0  0  0  0
  -18.3098   13.9773  -16.6204 O   0  0  0  0  0  0  0  0  0  0  0  0
  -17.8216   13.8095  -17.4533 H   0  0  0  0  0  0  0  0  0  0  0  0
  -19.9231   12.3224  -17.4412 C   0  0  0  0  0  0  0  0  0  0  0  0
  -18.8015   11.8618  -18.2769 N   0  0  0  0  0  0  0  0  0  0  0  0
  -18.6736   12.2396  -19.6108 C   0  0  0  0  0  0  0  0  0  0  0  0
  -19.5449   13.0368  -20.1026 O   0  0  0  0  0  0  0  0  0  0  0  0
  -18.0755   11.2606  -17.8429 H   0  0  0  0  0  0  0  0  0  0  0  0
  -17.6190   11.8131  -20.5443 C   0  0  0  0  0  0  0  0  0  0  0  0
  -17.1085   12.9246  -21.2315 N   0  0  0  0  0  0  0  0  0  0  0  0
  -17.0188   13.2755  -22.5608 C   0  0  0  0  0  0  0  0  0  0  0  0
  -17.4159   12.5305  -23.4770 O   0  0  0  0  0  0  0  0  0  0  0  0
  -16.6763   13.6962  -20.5613 H   0  0  0  0  0  0  0  0  0  0  0  0
  -16.4374   14.5864  -23.0114 C   0  0  0  0  0  0  0  0  0  0  0  0
  -15.7449   14.4784  -24.3477 C   0  0  0  0  0  0  0  0  0  0  0  0
  -14.2842   14.8491  -24.2843 C   0  0  0  0  0  0  0  0  0  0  0  0
  -16.4312   15.2713  -25.4223 C   0  0  0  0  0  0  0  0  0  0  0  0
  -16.7627   10.6764  -20.1115 C   0  0  0  0  0  0  0  0  0  0  0  0
  -15.7218   10.3701  -21.2337 C   0  0  0  0  0  0  0  0  0  0  0  0
  -15.9822   10.8883  -18.8401 C   0  0  0  0  0  0  0  0  0  0  0  0
  -20.3694   11.1582  -16.5556 C   0  0  0  0  0  0  0  0  0  0  0  0
  -19.5376    9.9319  -16.6736 C   0  0  0  0  0  0  0  0  0  0  0  0
  -20.4522   11.5783  -15.1083 C   0  0  0  0  0  0  0  0  0  0  0  0
  -20.4555   14.6994  -17.0325 C   0  0  0  0  0  0  0  0  0  0  0  0
  -19.0266   15.8278  -18.7658 N   0  0  0  0  0  0  0  0  0  0  0  0
  -19.6096   15.8456  -17.4711 C   0  0  0  0  0  0  0  0  0  0  0  0
  -19.4305   16.8068  -16.7095 O   0  0  0  0  0  0  0  0  0  0  0  0
  -19.1385   14.9909  -19.3621 H   0  0  0  0  0  0  0  0  0  0  0  0
  -18.2838   17.0001  -19.1984 C   0  0  0  0  0  0  0  0  0  0  0  0
  -17.0690   16.5071  -20.0030 C   0  0  0  0  0  0  0  0  0  0  0  0
  -19.4385   17.2203  -21.3717 N   0  0  0  0  0  0  0  0  0  0  0  0
  -19.1359   17.8100  -20.1526 C   0  0  0  0  0  0  0  0  0  0  0  0
  -19.5100   18.9700  -19.8041 O   0  0  0  0  0  0  0  0  0  0  0  0
  -19.0469   16.2451  -21.5611 H   0  0  0  0  0  0  0  0  0  0  0  0
  -20.2429   17.7788  -22.4589 C   0  0  0  0  0  0  0  0  0  0  0  0
  -19.3329   18.5294  -23.3413 C   0  0  0  0  0  0  0  0  0  0  0  0
  -17.9146   18.0624  -23.4401 C   0  0  0  0  0  0  0  0  0  0  0  0
  -19.3461   20.0399  -23.1421 C   0  0  0  0  0  0  0  0  0  0  0  0
  -21.5583   18.2674  -22.0770 C   0  0  0  0  0  0  0  0  0  0  0  0
  -23.6186   18.1184  -23.3706 C   0  0  0  0  0  0  0  0  0  0  0  0
  -22.8461   17.5978  -22.0665 C   0  0  0  0  0  0  0  0  0  0  0  0
  -23.8591   17.9366  -21.0055 C   0  0  0  0  0  0  0  0  0  0  0  0
 40 41  1  0  0  0
 41 42  1  0  0  0
 41 39  1  0  0  0
 39 35  1  0  0  0
 35 31  1  0  0  0
 31 32  1  0  0  0
 32 33  2  0  0  0
 32 29  1  0  0  0
 29 30  1  0  0  0
 29 25  1  0  0  0
 25 26  1  0  0  0
 26 27  2  0  0  0
 26 24  1  0  0  0
 24  1  1  0  0  0
  1  2  1  0  0  0
  1  4  1  0  0  0
  4  5  1  0  0  0
  5  6  1  0  0  0
  6  7  2  0  0  0
  6  9  1  0  0  0
  9 10  1  0  0  0
 10 11  1  0  0  0
 11 12  2  0  0  0
 11 14  1  0  0  0
 14 15  1  0  0  0
 15 16  1  0  0  0
 15 17  1  0  0  0
  9 18  1  0  0  0
 18 19  1  0  0  0
 18 20  1  0  0  0
  4 21  1  0  0  0
 21 22  1  0  0  0
 21 23  1  0  0  0
 35 36  1  0  0  0
 36 37  1  0  0  0
 36 38  1  0  0  0
 31 34  1  0  0  0
 25 28  1  0  0  0
  2  3  1  0  0  0
  5  8  1  0  0  0
 10 13  1  0  0  0
M  END
> <minimizedAffinity>
-7.14797

> <CNNscore>
0.1580957919

> <CNNaffinity>
6.2733111382

> <CNN_VS>
0.9917840958

> <CNNaffinity_variance>
0.9631260633

$$$$
[H]O[C@@]([H])(C([H])([H])C(=O)N([H])[C@]([H])(C(=O)N([H])[C@@]([H])(C([H])([H])C([H])(C([H])([H])[H])C([H])([H])[H])C([H])(C([H])([H])[H])C([H])([H])[H])C([H])([H])[H])[C@@]([H])(N([H])C(=O)[C@@]([H])(N([H])C(=O)C([H])([H])C([H])(C([H])([H])[H])C([H])([H])[H])C([H])(C([H])([H])[H])C([H])([H])[H])C([H])(C([H])([H])[H])C([H])([H])[H]


 42 41  0  0  0  0  0  0  0  0999 V2000
  -20.2290   14.2804  -19.3561 C   0  0  0  0  0  0  0  0  0  0  0  0
  -21.5382   14.4218  -19.7454 O   0  0  0  0  0  0  0  0  0  0  0  0
  -22.1760   14.5086  -19.0065 H   0  0  0  0  0  0  0  0  0  0  0  0
  -19.9424   13.6650  -18.0437 C   0  0  0  0  0  0  0  0  0  0  0  0
  -21.1047   13.6341  -17.1399 N   0  0  0  0  0  0  0  0  0  0  0  0
  -21.3421   14.6438  -16.2112 C   0  0  0  0  0  0  0  0  0  0  0  0
  -20.5375   15.6375  -16.1752 O   0  0  0  0  0  0  0  0  0  0  0  0
  -21.7756   12.8468  -17.2236 H   0  0  0  0  0  0  0  0  0  0  0  0
  -22.4458   14.6975  -15.2394 C   0  0  0  0  0  0  0  0  0  0  0  0
  -22.1451   13.8967  -14.1273 N   0  0  0  0  0  0  0  0  0  0  0  0
  -22.1645   12.5405  -13.8853 C   0  0  0  0  0  0  0  0  0  0  0  0
  -22.5313   11.7139  -14.7422 O   0  0  0  0  0  0  0  0  0  0  0  0
  -21.8214   14.4791  -13.2400 H   0  0  0  0  0  0  0  0  0  0  0  0
  -21.7417   11.9500  -12.5692 C   0  0  0  0  0  0  0  0  0  0  0  0
  -20.8889   10.7170  -12.7407 C   0  0  0  0  0  0  0  0  0  0  0  0
  -20.8303    9.8654  -11.4971 C   0  0  0  0  0  0  0  0  0  0  0  0
  -19.4995   11.0340  -13.2136 C   0  0  0  0  0  0  0  0  0  0  0  0
  -23.1713   15.9908  -15.1223 C   0  0  0  0  0  0  0  0  0  0  0  0
  -24.5322   15.8787  -15.8786 C   0  0  0  0  0  0  0  0  0  0  0  0
  -23.4887   16.4419  -13.7201 C   0  0  0  0  0  0  0  0  0  0  0  0
  -19.4478   12.2307  -18.2361 C   0  0  0  0  0  0  0  0  0  0  0  0
  -18.0269   12.1134  -18.6569 C   0  0  0  0  0  0  0  0  0  0  0  0
  -19.6793   11.4058  -16.9935 C   0  0  0  0  0  0  0  0  0  0  0  0
  -19.6651   15.7124  -19.3970 C   0  0  0  0  0  0  0  0  0  0  0  0
  -18.8152   17.1046  -21.3098 N   0  0  0  0  0  0  0  0  0  0  0  0
  -18.7462   15.9038  -20.5550 C   0  0  0  0  0  0  0  0  0  0  0  0
  -17.9250   15.0214  -20.8429 O   0  0  0  0  0  0  0  0  0  0  0  0
  -19.5467   17.8013  -21.0908 H   0  0  0  0  0  0  0  0  0  0  0  0
  -17.8450   17.3006  -22.3745 C   0  0  0  0  0  0  0  0  0  0  0  0
  -16.4494   17.0394  -21.7826 C   0  0  0  0  0  0  0  0  0  0  0  0
  -17.0413   15.3364  -23.6398 N   0  0  0  0  0  0  0  0  0  0  0  0
  -18.0622   16.2569  -23.4497 C   0  0  0  0  0  0  0  0  0  0  0  0
  -19.1374   16.2846  -24.1204 O   0  0  0  0  0  0  0  0  0  0  0  0
  -16.1714   15.4278  -23.0273 H   0  0  0  0  0  0  0  0  0  0  0  0
  -17.0021   14.2313  -24.5980 C   0  0  0  0  0  0  0  0  0  0  0  0
  -16.3378   13.0954  -23.9357 C   0  0  0  0  0  0  0  0  0  0  0  0
  -17.0318   12.4655  -22.7691 C   0  0  0  0  0  0  0  0  0  0  0  0
  -14.8749   13.3266  -23.5782 C   0  0  0  0  0  0  0  0  0  0  0  0
  -16.7391   14.6082  -25.9777 C   0  0  0  0  0  0  0  0  0  0  0  0
  -15.9711   15.4998  -28.1122 C   0  0  0  0  0  0  0  0  0  0  0  0
  -15.9665   15.7094  -26.5232 C   0  0  0  0  0  0  0  0  0  0  0  0
  -14.4843   15.7838  -26.2700 C   0  0  0  0  0  0  0  0  0  0  0  0
 40 41  1  0  0  0
 41 42  1  0  0  0
 41 39  1  0  0  0
 39 35  1  0  0  0
 35 31  1  0  0  0
 31 32  1  0  0  0
 32 33  2  0  0  0
 32 29  1  0  0  0
 29 30  1  0  0  0
 29 25  1  0  0  0
 25 26  1  0  0  0
 26 27  2  0  0  0
 26 24  1  0  0  0
 24  1  1  0  0  0
  1  2  1  0  0  0
  1  4  1  0  0  0
  4  5  1  0  0  0
  5  6  1  0  0  0
  6  7  2  0  0  0
  6  9  1  0  0  0
  9 10  1  0  0  0
 10 11  1  0  0  0
 11 12  2  0  0  0
 11 14  1  0  0  0
 14 15  1  0  0  0
 15 16  1  0  0  0
 15 17  1  0  0  0
  9 18  1  0  0  0
 18 19  1  0  0  0
 18 20  1  0  0  0
  4 21  1  0  0  0
 21 22  1  0  0  0
 21 23  1  0  0  0
 35 36  1  0  0  0
 36 37  1  0  0  0
 36 38  1  0  0  0
 31 34  1  0  0  0
 25 28  1  0  0  0
  2  3  1  0  0  0
  5  8  1  0  0  0
 10 13  1  0  0  0
M  END
> <minimizedAffinity>
-6.52708

> <CNNscore>
0.1564146429

> <CNNaffinity>
5.8648252487

> <CNN_VS>
0.9173445702

> <CNNaffinity_variance>
0.6036617160

$$$$
[H]O[C@@]([H])(C([H])([H])C(=O)N([H])[C@]([H])(C(=O)N([H])[C@@]([H])(C([H])([H])C([H])(C([H])([H])[H])C([H])([H])[H])C([H])(C([H])([H])[H])C([H])([H])[H])C([H])([H])[H])[C@@]([H])(N([H])C(=O)[C@@]([H])(N([H])C(=O)C([H])([H])C([H])(C([H])([H])[H])C([H])([H])[H])C([H])(C([H])([H])[H])C([H])([H])[H])C([H])(C([H])([H])[H])C([H])([H])[H]


 42 41  0  0  0  0  0  0  0  0999 V2000
  -18.2952   16.4990  -18.5632 C   0  0  0  0  0  0  0  0  0  0  0  0
  -17.1478   16.7287  -19.2817 O   0  0  0  0  0  0  0  0  0  0  0  0
  -17.1074   16.2655  -20.1443 H   0  0  0  0  0  0  0  0  0  0  0  0
  -19.0117   15.2220  -18.7613 C   0  0  0  0  0  0  0  0  0  0  0  0
  -18.1455   14.1250  -19.2253 N   0  0  0  0  0  0  0  0  0  0  0  0
  -18.6099   13.1339  -20.0858 C   0  0  0  0  0  0  0  0  0  0  0  0
  -19.8166   13.2088  -20.5037 O   0  0  0  0  0  0  0  0  0  0  0  0
  -17.1542   14.1140  -18.9186 H   0  0  0  0  0  0  0  0  0  0  0  0
  -17.8469   11.9777  -20.5823 C   0  0  0  0  0  0  0  0  0  0  0  0
  -17.5169   12.1652  -21.9330 N   0  0  0  0  0  0  0  0  0  0  0  0
  -16.9950   13.2134  -22.6590 C   0  0  0  0  0  0  0  0  0  0  0  0
  -16.7264   14.3152  -22.1434 O   0  0  0  0  0  0  0  0  0  0  0  0
  -17.7223   11.2757  -22.5639 H   0  0  0  0  0  0  0  0  0  0  0  0
  -16.7051   13.1099  -24.1303 C   0  0  0  0  0  0  0  0  0  0  0  0
  -16.0029   14.3340  -24.6646 C   0  0  0  0  0  0  0  0  0  0  0  0
  -16.4886   14.7395  -26.0339 C   0  0  0  0  0  0  0  0  0  0  0  0
  -14.5084   14.1889  -24.6705 C   0  0  0  0  0  0  0  0  0  0  0  0
  -16.9265   11.3195  -19.6168 C   0  0  0  0  0  0  0  0  0  0  0  0
  -17.7727   10.5784  -18.5345 C   0  0  0  0  0  0  0  0  0  0  0  0
  -15.9795   10.3029  -20.2000 C   0  0  0  0  0  0  0  0  0  0  0  0
  -19.6755   14.7871  -17.4540 C   0  0  0  0  0  0  0  0  0  0  0  0
  -21.0949   14.3660  -17.5866 C   0  0  0  0  0  0  0  0  0  0  0  0
  -18.8823   13.6939  -16.7804 C   0  0  0  0  0  0  0  0  0  0  0  0
  -19.2148   17.6776  -18.9313 C   0  0  0  0  0  0  0  0  0  0  0  0
  -18.8169   17.6295  -21.4130 N   0  0  0  0  0  0  0  0  0  0  0  0
  -18.7694   18.3451  -20.1874 C   0  0  0  0  0  0  0  0  0  0  0  0
  -18.3722   19.5187  -20.1547 O   0  0  0  0  0  0  0  0  0  0  0  0
  -19.0940   16.6337  -21.4096 H   0  0  0  0  0  0  0  0  0  0  0  0
  -18.4635   18.3367  -22.6329 C   0  0  0  0  0  0  0  0  0  0  0  0
  -17.9606   17.2922  -23.6440 C   0  0  0  0  0  0  0  0  0  0  0  0
  -20.9226   18.3918  -22.8674 N   0  0  0  0  0  0  0  0  0  0  0  0
  -19.7084   18.9560  -23.2323 C   0  0  0  0  0  0  0  0  0  0  0  0
  -19.5817   19.9294  -24.0343 O   0  0  0  0  0  0  0  0  0  0  0  0
  -20.9011   17.5585  -22.2001 H   0  0  0  0  0  0  0  0  0  0  0  0
  -22.2614   18.8010  -23.2930 C   0  0  0  0  0  0  0  0  0  0  0  0
  -23.1270   18.7890  -22.1011 C   0  0  0  0  0  0  0  0  0  0  0  0
  -22.5766   19.3639  -20.8338 C   0  0  0  0  0  0  0  0  0  0  0  0
  -23.7803   17.4470  -21.7954 C   0  0  0  0  0  0  0  0  0  0  0  0
  -22.6886   18.2948  -24.5876 C   0  0  0  0  0  0  0  0  0  0  0  0
  -23.4407   18.5475  -26.8922 C   0  0  0  0  0  0  0  0  0  0  0  0
  -23.8917   18.5628  -25.3543 C   0  0  0  0  0  0  0  0  0  0  0  0
  -24.5407   19.9194  -25.2819 C   0  0  0  0  0  0  0  0  0  0  0  0
 40 41  1  0  0  0
 41 42  1  0  0  0
 41 39  1  0  0  0
 39 35  1  0  0  0
 35 31  1  0  0  0
 31 32  1  0  0  0
 32 33  2  0  0  0
 32 29  1  0  0  0
 29 30  1  0  0  0
 29 25  1  0  0  0
 25 26  1  0  0  0
 26 27  2  0  0  0
 26 24  1  0  0  0
 24  1  1  0  0  0
  1  2  1  0  0  0
  1  4  1  0  0  0
  4  5  1  0  0  0
  5  6  1  0  0  0
  6  7  2  0  0  0
  6  9  1  0  0  0
  9 10  1  0  0  0
 10 11  1  0  0  0
 11 12  2  0  0  0
 11 14  1  0  0  0
 14 15  1  0  0  0
 15 16  1  0  0  0
 15 17  1  0  0  0
  9 18  1  0  0  0
 18 19  1  0  0  0
 18 20  1  0  0  0
  4 21  1  0  0  0
 21 22  1  0  0  0
 21 23  1  0  0  0
 35 36  1  0  0  0
 36 37  1  0  0  0
 36 38  1  0  0  0
 31 34  1  0  0  0
 25 28  1  0  0  0
  2  3  1  0  0  0
  5  8  1  0  0  0
 10 13  1  0  0  0
M  END
> <minimizedAffinity>
-7.29917

> <CNNscore>
0.1508146524

> <CNNaffinity>
6.2366271019

> <CNN_VS>
0.9405747652

> <CNNaffinity_variance>
1.0940477848

$$$$
[H]O[C@@]([H])(C([H])([H])C(=O)N([H])[C@]([H])(C(=O)N([H])[C@@]([H])(C([H])([H])C([H])(C([H])([H])[H])C([H])([H])[H])C([H])(C([H])([H])[H])C([H])([H])[H])C([H])([H])[H])[C@@]([H])(N([H])C(=O)[C@@]([H])(N([H])C(=O)C([H])([H])C([H])(C([H])([H])[H])C([H])([H])[H])C([H])(C([H])([H])[H])C([H])([H])[H])C([H])(C([H])([H])[H])C([H])([H])[H]


 42 41  0  0  0  0  0  0  0  0999 V2000
  -18.3353   12.7411  -18.1613 C   0  0  0  0  0  0  0  0  0  0  0  0
  -18.1984   13.9337  -17.4946 O   0  0  0  0  0  0  0  0  0  0  0  0
  -18.4424   14.7245  -18.0193 H   0  0  0  0  0  0  0  0  0  0  0  0
  -18.2029   12.7329  -19.6330 C   0  0  0  0  0  0  0  0  0  0  0  0
  -17.4363   13.8731  -20.1631 N   0  0  0  0  0  0  0  0  0  0  0  0
  -18.0345   14.8703  -20.9286 C   0  0  0  0  0  0  0  0  0  0  0  0
  -19.2937   14.7988  -21.1424 O   0  0  0  0  0  0  0  0  0  0  0  0
  -16.4271   13.9413  -19.9312 H   0  0  0  0  0  0  0  0  0  0  0  0
  -17.3620   16.0297  -21.5361 C   0  0  0  0  0  0  0  0  0  0  0  0
  -17.3996   15.9273  -22.9348 N   0  0  0  0  0  0  0  0  0  0  0  0
  -16.4894   15.5455  -23.8960 C   0  0  0  0  0  0  0  0  0  0  0  0
  -15.3223   15.2116  -23.6161 O   0  0  0  0  0  0  0  0  0  0  0  0
  -18.3767   16.2206  -23.3716 H   0  0  0  0  0  0  0  0  0  0  0  0
  -16.8331   15.4983  -25.3586 C   0  0  0  0  0  0  0  0  0  0  0  0
  -16.6928   14.1117  -25.9369 C   0  0  0  0  0  0  0  0  0  0  0  0
  -16.7274   14.0974  -27.4448 C   0  0  0  0  0  0  0  0  0  0  0  0
  -17.7075   13.1497  -25.3895 C   0  0  0  0  0  0  0  0  0  0  0  0
  -17.4958   17.3289  -20.8241 C   0  0  0  0  0  0  0  0  0  0  0  0
  -16.0739   17.8428  -20.4359 C   0  0  0  0  0  0  0  0  0  0  0  0
  -18.1626   18.4368  -21.5978 C   0  0  0  0  0  0  0  0  0  0  0  0
  -17.5188   11.4432  -20.0888 C   0  0  0  0  0  0  0  0  0  0  0  0
  -16.8896   11.5141  -21.4337 C   0  0  0  0  0  0  0  0  0  0  0  0
  -16.5000   10.9822  -19.0751 C   0  0  0  0  0  0  0  0  0  0  0  0
  -19.7345   12.2407  -17.7589 C   0  0  0  0  0  0  0  0  0  0  0  0
  -20.8521   13.9539  -16.2977 N   0  0  0  0  0  0  0  0  0  0  0  0
  -20.6886   13.3722  -17.5827 C   0  0  0  0  0  0  0  0  0  0  0  0
  -21.3220   13.8021  -18.5574 O   0  0  0  0  0  0  0  0  0  0  0  0
  -20.3602   13.5422  -15.4871 H   0  0  0  0  0  0  0  0  0  0  0  0
  -21.7196   15.1141  -16.1766 C   0  0  0  0  0  0  0  0  0  0  0  0
  -22.3995   15.0415  -14.7987 C   0  0  0  0  0  0  0  0  0  0  0  0
  -21.5584   17.5775  -16.2800 N   0  0  0  0  0  0  0  0  0  0  0  0
  -20.8776   16.3725  -16.1788 C   0  0  0  0  0  0  0  0  0  0  0  0
  -19.6167   16.2647  -16.1057 O   0  0  0  0  0  0  0  0  0  0  0  0
  -22.6227   17.5402  -16.3582 H   0  0  0  0  0  0  0  0  0  0  0  0
  -20.9901   18.9257  -16.2965 C   0  0  0  0  0  0  0  0  0  0  0  0
  -20.7085   19.2694  -17.7010 C   0  0  0  0  0  0  0  0  0  0  0  0
  -21.5576   18.6356  -18.7578 C   0  0  0  0  0  0  0  0  0  0  0  0
  -19.2443   19.1596  -18.1078 C   0  0  0  0  0  0  0  0  0  0  0  0
  -20.0774   19.2336  -15.2071 C   0  0  0  0  0  0  0  0  0  0  0  0
  -20.6170   18.7565  -12.8786 C   0  0  0  0  0  0  0  0  0  0  0  0
  -20.3104   19.9126  -13.9455 C   0  0  0  0  0  0  0  0  0  0  0  0
  -21.5368   20.7680  -13.7692 C   0  0  0  0  0  0  0  0  0  0  0  0
 40 41  1  0  0  0
 41 42  1  0  0  0
 41 39  1  0  0  0
 39 35  1  0  0  0
 35 31  1  0  0  0
 31 32  1  0  0  0
 32 33  2  0  0  0
 32 29  1  0  0  0
 29 30  1  0  0  0
 29 25  1  0  0  0
 25 26  1  0  0  0
 26 27  2  0  0  0
 26 24  1  0  0  0
 24  1  1  0  0  0
  1  2  1  0  0  0
  1  4  1  0  0  0
  4  5  1  0  0  0
  5  6  1  0  0  0
  6  7  2  0  0  0
  6  9  1  0  0  0
  9 10  1  0  0  0
 10 11  1  0  0  0
 11 12  2  0  0  0
 11 14  1  0  0  0
 14 15  1  0  0  0
 15 16  1  0  0  0
 15 17  1  0  0  0
  9 18  1  0  0  0
 18 19  1  0  0  0
 18 20  1  0  0  0
  4 21  1  0  0  0
 21 22  1  0  0  0
 21 23  1  0  0  0
 35 36  1  0  0  0
 36 37  1  0  0  0
 36 38  1  0  0  0
 31 34  1  0  0  0
 25 28  1  0  0  0
  2  3  1  0  0  0
  5  8  1  0  0  0
 10 13  1  0  0  0
M  END
> <minimizedAffinity>
-6.47377

> <CNNscore>
0.1451395005

> <CNNaffinity>
5.7752103806

> <CNN_VS>
0.8382111788

> <CNNaffinity_variance>
1.1415549517

$$$$
[H]O[C@@]([H])(C([H])([H])C(=O)N([H])[C@]([H])(C(=O)N([H])[C@@]([H])(C([H])([H])C([H])(C([H])([H])[H])C([H])([H])[H])C([H])(C([H])([H])[H])C([H])([H])[H])C([H])([H])[H])[C@@]([H])(N([H])C(=O)[C@@]([H])(N([H])C(=O)C([H])([H])C([H])(C([H])([H])[H])C([H])([H])[H])C([H])(C([H])([H])[H])C([H])([H])[H])C([H])(C([H])([H])[H])C([H])([H])[H]


 42 41  0  0  0  0  0  0  0  0999 V2000
  -17.3644   18.0294  -20.0798 C   0  0  0  0  0  0  0  0  0  0  0  0
  -16.0313   17.7272  -19.9492 O   0  0  0  0  0  0  0  0  0  0  0  0
  -15.8154   16.7781  -20.0628 H   0  0  0  0  0  0  0  0  0  0  0  0
  -18.3621   16.9902  -19.7509 C   0  0  0  0  0  0  0  0  0  0  0  0
  -17.9077   15.6210  -20.0470 N   0  0  0  0  0  0  0  0  0  0  0  0
  -18.3550   14.9225  -21.1652 C   0  0  0  0  0  0  0  0  0  0  0  0
  -19.1584   15.5112  -21.9679 O   0  0  0  0  0  0  0  0  0  0  0  0
  -17.2129   15.1825  -19.4130 H   0  0  0  0  0  0  0  0  0  0  0  0
  -17.9970   13.5446  -21.5376 C   0  0  0  0  0  0  0  0  0  0  0  0
  -16.7397   13.5273  -22.1600 N   0  0  0  0  0  0  0  0  0  0  0  0
  -16.3145   13.4186  -23.4660 C   0  0  0  0  0  0  0  0  0  0  0  0
  -17.1064   13.2735  -24.4168 O   0  0  0  0  0  0  0  0  0  0  0  0
  -15.8942   13.6180  -21.4471 H   0  0  0  0  0  0  0  0  0  0  0  0
  -14.8616   13.4696  -23.8480 C   0  0  0  0  0  0  0  0  0  0  0  0
  -14.3980   14.8720  -24.1567 C   0  0  0  0  0  0  0  0  0  0  0  0
  -15.4442   15.9163  -23.8568 C   0  0  0  0  0  0  0  0  0  0  0  0
  -13.9090   15.0236  -25.5682 C   0  0  0  0  0  0  0  0  0  0  0  0
  -18.4522   12.4647  -20.6215 C   0  0  0  0  0  0  0  0  0  0  0  0
  -17.2556   12.0275  -19.7195 C   0  0  0  0  0  0  0  0  0  0  0  0
  -19.5865   12.8222  -19.6964 C   0  0  0  0  0  0  0  0  0  0  0  0
  -18.7233   17.0639  -18.2667 C   0  0  0  0  0  0  0  0  0  0  0  0
  -20.1295   17.4564  -17.9870 C   0  0  0  0  0  0  0  0  0  0  0  0
  -18.4102   15.7637  -17.5671 C   0  0  0  0  0  0  0  0  0  0  0  0
  -17.5145   18.4514  -21.5528 C   0  0  0  0  0  0  0  0  0  0  0  0
  -18.9774   19.9186  -22.9764 N   0  0  0  0  0  0  0  0  0  0  0  0
  -18.4467   19.6055  -21.6971 C   0  0  0  0  0  0  0  0  0  0  0  0
  -18.7586   20.2745  -20.7015 O   0  0  0  0  0  0  0  0  0  0  0  0
  -18.6582   19.3864  -23.8032 H   0  0  0  0  0  0  0  0  0  0  0  0
  -19.9543   20.9911  -23.0688 C   0  0  0  0  0  0  0  0  0  0  0  0
  -19.7309   21.7059  -24.4124 C   0  0  0  0  0  0  0  0  0  0  0  0
  -21.4615   19.1213  -23.6496 N   0  0  0  0  0  0  0  0  0  0  0  0
  -21.3467   20.3985  -23.1192 C   0  0  0  0  0  0  0  0  0  0  0  0
  -22.3214   21.0906  -22.6976 O   0  0  0  0  0  0  0  0  0  0  0  0
  -20.5694   18.6458  -23.9937 H   0  0  0  0  0  0  0  0  0  0  0  0
  -22.6789   18.3246  -23.8043 C   0  0  0  0  0  0  0  0  0  0  0  0
  -23.1762   18.5387  -25.1744 C   0  0  0  0  0  0  0  0  0  0  0  0
  -24.2936   19.5156  -25.3658 C   0  0  0  0  0  0  0  0  0  0  0  0
  -23.4908   17.2654  -25.9496 C   0  0  0  0  0  0  0  0  0  0  0  0
  -23.5519   18.2834  -22.6420 C   0  0  0  0  0  0  0  0  0  0  0  0
  -24.0811   18.2901  -20.2628 C   0  0  0  0  0  0  0  0  0  0  0  0
  -23.5413   17.4059  -21.4858 C   0  0  0  0  0  0  0  0  0  0  0  0
  -22.2308   16.9344  -20.9137 C   0  0  0  0  0  0  0  0  0  0  0  0
 40 41  1  0  0  0
 41 42  1  0  0  0
 41 39  1  0  0  0
 39 35  1  0  0  0
 35 31  1  0  0  0
 31 32  1  0  0  0
 32 33  2  0  0  0
 32 29  1  0  0  0
 29 30  1  0  0  0
 29 25  1  0  0  0
 25 26  1  0  0  0
 26 27  2  0  0  0
 26 24  1  0  0  0
 24  1  1  0  0  0
  1  2  1  0  0  0
  1  4  1  0  0  0
  4  5  1  0  0  0
  5  6  1  0  0  0
  6  7  2  0  0  0
  6  9  1  0  0  0
  9 10  1  0  0  0
 10 11  1  0  0  0
 11 12  2  0  0  0
 11 14  1  0  0  0
 14 15  1  0  0  0
 15 16  1  0  0  0
 15 17  1  0  0  0
  9 18  1  0  0  0
 18 19  1  0  0  0
 18 20  1  0  0  0
  4 21  1  0  0  0
 21 22  1  0  0  0
 21 23  1  0  0  0
 35 36  1  0  0  0
 36 37  1  0  0  0
 36 38  1  0  0  0
 31 34  1  0  0  0
 25 28  1  0  0  0
  2  3  1  0  0  0
  5  8  1  0  0  0
 10 13  1  0  0  0
M  END
> <minimizedAffinity>
-7.31280

> <CNNscore>
0.1211994812

> <CNNaffinity>
5.9023284912

> <CNN_VS>
0.7153591514

> <CNNaffinity_variance>
1.2144540548

$$$$
[H]O[C@@]([H])(C([H])([H])C(=O)N([H])[C@]([H])(C(=O)N([H])[C@@]([H])(C([H])([H])C([H])(C([H])([H])[H])C([H])([H])[H])C([H])(C([H])([H])[H])C([H])([H])[H])C([H])([H])[H])[C@@]([H])(N([H])C(=O)[C@@]([H])(N([H])C(=O)C([H])([H])C([H])(C([H])([H])[H])C([H])([H])[H])C([H])(C([H])([H])[H])C([H])([H])[H])C([H])(C([H])([H])[H])C([H])([H])[H]


 42 41  0  0  0  0  0  0  0  0999 V2000
  -18.3840   12.9855  -18.2313 C   0  0  0  0  0  0  0  0  0  0  0  0
  -18.2461   14.2145  -17.6348 O   0  0  0  0  0  0  0  0  0  0  0  0
  -18.4676   14.9749  -18.2118 H   0  0  0  0  0  0  0  0  0  0  0  0
  -18.2189   12.8863  -19.6963 C   0  0  0  0  0  0  0  0  0  0  0  0
  -17.4012   13.9671  -20.2726 N   0  0  0  0  0  0  0  0  0  0  0  0
  -17.9749   15.0726  -20.8947 C   0  0  0  0  0  0  0  0  0  0  0  0
  -19.2510   15.1552  -20.9306 O   0  0  0  0  0  0  0  0  0  0  0  0
  -16.3690   13.9077  -20.1835 H   0  0  0  0  0  0  0  0  0  0  0  0
  -17.2580   16.1879  -21.5331 C   0  0  0  0  0  0  0  0  0  0  0  0
  -16.8876   15.8347  -22.8394 N   0  0  0  0  0  0  0  0  0  0  0  0
  -17.5775   15.6460  -24.0170 C   0  0  0  0  0  0  0  0  0  0  0  0
  -18.8164   15.7549  -24.0906 O   0  0  0  0  0  0  0  0  0  0  0  0
  -15.7973   15.6650  -22.9572 H   0  0  0  0  0  0  0  0  0  0  0  0
  -16.8900   15.2970  -25.3074 C   0  0  0  0  0  0  0  0  0  0  0  0
  -16.3419   13.8911  -25.3039 C   0  0  0  0  0  0  0  0  0  0  0  0
  -17.3662   12.8619  -24.8955 C   0  0  0  0  0  0  0  0  0  0  0  0
  -15.1076   13.7520  -24.4604 C   0  0  0  0  0  0  0  0  0  0  0  0
  -17.6980   17.5614  -21.1689 C   0  0  0  0  0  0  0  0  0  0  0  0
  -16.5363   18.2827  -20.4161 C   0  0  0  0  0  0  0  0  0  0  0  0
  -18.0907   18.4523  -22.3189 C   0  0  0  0  0  0  0  0  0  0  0  0
  -17.5701   11.5499  -20.0596 C   0  0  0  0  0  0  0  0  0  0  0  0
  -16.9243   11.5149  -21.3980 C   0  0  0  0  0  0  0  0  0  0  0  0
  -16.5772   11.1246  -19.0054 C   0  0  0  0  0  0  0  0  0  0  0  0
  -19.7985   12.5273  -17.8318 C   0  0  0  0  0  0  0  0  0  0  0  0
  -20.7705   14.3695  -16.4245 N   0  0  0  0  0  0  0  0  0  0  0  0
  -20.7213   13.6863  -17.6683 C   0  0  0  0  0  0  0  0  0  0  0  0
  -21.4287   14.0502  -18.6188 O   0  0  0  0  0  0  0  0  0  0  0  0
  -20.2177   14.0135  -15.6269 H   0  0  0  0  0  0  0  0  0  0  0  0
  -21.6113   15.5512  -16.3251 C   0  0  0  0  0  0  0  0  0  0  0  0
  -22.1756   15.5985  -14.8949 C   0  0  0  0  0  0  0  0  0  0  0  0
  -21.1235   17.9055  -15.7554 N   0  0  0  0  0  0  0  0  0  0  0  0
  -20.7577   16.7901  -16.4955 C   0  0  0  0  0  0  0  0  0  0  0  0
  -19.7801   16.7530  -17.3016 O   0  0  0  0  0  0  0  0  0  0  0  0
  -21.9817   17.8223  -15.1253 H   0  0  0  0  0  0  0  0  0  0  0  0
  -20.4695   19.2141  -15.7295 C   0  0  0  0  0  0  0  0  0  0  0  0
  -20.2669   19.5792  -14.3168 C   0  0  0  0  0  0  0  0  0  0  0  0
  -19.7510   18.5229  -13.3907 C   0  0  0  0  0  0  0  0  0  0  0  0
  -21.4478   20.2827  -13.6597 C   0  0  0  0  0  0  0  0  0  0  0  0
  -20.9242   20.1610  -16.7352 C   0  0  0  0  0  0  0  0  0  0  0  0
  -21.1865   19.6029  -19.0932 C   0  0  0  0  0  0  0  0  0  0  0  0
  -20.3725   20.4915  -18.0366 C   0  0  0  0  0  0  0  0  0  0  0  0
  -18.9636   20.0861  -18.3791 C   0  0  0  0  0  0  0  0  0  0  0  0
 40 41  1  0  0  0
 41 42  1  0  0  0
 41 39  1  0  0  0
 39 35  1  0  0  0
 35 31  1  0  0  0
 31 32  1  0  0  0
 32 33  2  0  0  0
 32 29  1  0  0  0
 29 30  1  0  0  0
 29 25  1  0  0  0
 25 26  1  0  0  0
 26 27  2  0  0  0
 26 24  1  0  0  0
 24  1  1  0  0  0
  1  2  1  0  0  0
  1  4  1  0  0  0
  4  5  1  0  0  0
  5  6  1  0  0  0
  6  7  2  0  0  0
  6  9  1  0  0  0
  9 10  1  0  0  0
 10 11  1  0  0  0
 11 12  2  0  0  0
 11 14  1  0  0  0
 14 15  1  0  0  0
 15 16  1  0  0  0
 15 17  1  0  0  0
  9 18  1  0  0  0
 18 19  1  0  0  0
 18 20  1  0  0  0
  4 21  1  0  0  0
 21 22  1  0  0  0
 21 23  1  0  0  0
 35 36  1  0  0  0
 36 37  1  0  0  0
 36 38  1  0  0  0
 31 34  1  0  0  0
 25 28  1  0  0  0
  2  3  1  0  0  0
  5  8  1  0  0  0
 10 13  1  0  0  0
M  END
> <minimizedAffinity>
-6.36311

> <CNNscore>
0.1203484610

> <CNNaffinity>
5.8243012428

> <CNN_VS>
0.7009456754

> <CNNaffinity_variance>
1.0241429806

$$$$
[H]OC(=O)[C@@]([H])(N([H])C(=O)[C@@]([H])(N([H])C(=O)[C@@]([H])(N([H])C(=O)[C@@]([H])(N([H])C(=O)c1c([H])c([H])c(S(=O)(=O)N([H])[H])c([H])c1[H])C([H])([H])c1c([H])c([H])c([H])c([H])c1[H])C([H])([H])c1c([H])c([H])c([H])c([H])c1[H])C([H])([H])c1c([H])c([H])c(O[H])c([H])c1[H])C([H])([H])c1c([H])c([H])c([H])c([H])c1[H]


 66 70  0  0  0  0  0  0  0  0999 V2000
  -18.9483   14.3896  -19.1958 C   0  0  0  0  0  0  0  0  0  0  0  0
  -21.1837   14.5555  -17.9733 C   0  0  0  0  0  0  0  0  0  0  0  0
  -21.9571   14.6759  -18.9832 O   0  0  0  0  0  0  0  0  0  0  0  0
  -19.7945   14.4227  -18.0806 N   0  0  0  0  0  0  0  0  0  0  0  0
  -19.2970   14.3409  -17.1212 H   0  0  0  0  0  0  0  0  0  0  0  0
  -21.8755   14.5714  -16.6638 C   0  0  0  0  0  0  0  0  0  0  0  0
  -21.8982   12.9348  -14.7810 C   0  0  0  0  0  0  0  0  0  0  0  0
  -23.1553   12.8234  -14.8388 O   0  0  0  0  0  0  0  0  0  0  0  0
  -21.2160   13.7833  -15.6669 N   0  0  0  0  0  0  0  0  0  0  0  0
  -20.1759   13.8591  -15.6208 H   0  0  0  0  0  0  0  0  0  0  0  0
  -19.8997   10.6455  -11.7989 C   0  0  0  0  0  0  0  0  0  0  0  0
  -19.3634   10.7509  -13.0837 C   0  0  0  0  0  0  0  0  0  0  0  0
  -20.0156   11.4997  -14.0388 C   0  0  0  0  0  0  0  0  0  0  0  0
  -21.2002   12.1626  -13.7744 C   0  0  0  0  0  0  0  0  0  0  0  0
  -21.7240   12.0563  -12.5115 C   0  0  0  0  0  0  0  0  0  0  0  0
  -21.0712   11.3015  -11.5383 C   0  0  0  0  0  0  0  0  0  0  0  0
  -17.6225   10.4970  -10.1303 N   0  0  0  0  0  0  0  0  0  0  0  0
  -19.1098    9.6982  -10.5688 S   0  0  0  0  0  0  0  0  0  0  0  0
  -18.8737    8.2919  -11.0049 O   0  0  0  0  0  0  0  0  0  0  0  0
  -19.9711    9.7129   -9.3288 O   0  0  0  0  0  0  0  0  0  0  0  0
  -17.0421    9.8770   -9.5439 H   0  0  0  0  0  0  0  0  0  0  0  0
  -17.8392   11.3604   -9.6064 H   0  0  0  0  0  0  0  0  0  0  0  0
  -22.3722   15.8767  -16.1758 C   0  0  0  0  0  0  0  0  0  0  0  0
  -23.7615   16.2226  -16.4412 C   0  0  0  0  0  0  0  0  0  0  0  0
  -24.0119   17.2710  -17.3097 C   0  0  0  0  0  0  0  0  0  0  0  0
  -25.2657   17.7131  -17.6169 C   0  0  0  0  0  0  0  0  0  0  0  0
  -26.3504   17.0964  -17.0420 C   0  0  0  0  0  0  0  0  0  0  0  0
  -26.1251   16.0454  -16.1698 C   0  0  0  0  0  0  0  0  0  0  0  0
  -24.8527   15.6122  -15.8719 C   0  0  0  0  0  0  0  0  0  0  0  0
  -18.8745   15.6812  -19.9357 C   0  0  0  0  0  0  0  0  0  0  0  0
  -18.1468   16.6050  -19.4417 O   0  0  0  0  0  0  0  0  0  0  0  0
  -19.5892   15.8247  -21.1241 N   0  0  0  0  0  0  0  0  0  0  0  0
  -20.1584   15.0459  -21.5040 H   0  0  0  0  0  0  0  0  0  0  0  0
  -19.5938   17.0410  -21.9307 C   0  0  0  0  0  0  0  0  0  0  0  0
  -20.7788   17.8525  -21.7449 C   0  0  0  0  0  0  0  0  0  0  0  0
  -21.7244   17.3263  -21.0508 O   0  0  0  0  0  0  0  0  0  0  0  0
  -21.0137   19.1353  -22.2271 N   0  0  0  0  0  0  0  0  0  0  0  0
  -20.3261   19.6287  -22.8045 H   0  0  0  0  0  0  0  0  0  0  0  0
  -22.2736   19.8293  -21.9157 C   0  0  0  0  0  0  0  0  0  0  0  0
  -22.3592   20.1178  -20.4704 C   0  0  0  0  0  0  0  0  0  0  0  0
  -23.5409   19.9765  -19.7223 O   0  0  0  0  0  0  0  0  0  0  0  0
  -21.3642   20.5220  -19.7824 O   0  0  0  0  0  0  0  0  0  0  0  0
  -24.4387   20.2022  -20.1453 H   0  0  0  0  0  0  0  0  0  0  0  0
  -23.3605   18.9151  -22.3992 C   0  0  0  0  0  0  0  0  0  0  0  0
  -23.4558   18.7352  -23.8414 C   0  0  0  0  0  0  0  0  0  0  0  0
  -23.5556   19.8475  -24.6488 C   0  0  0  0  0  0  0  0  0  0  0  0
  -23.6290   19.7215  -26.0231 C   0  0  0  0  0  0  0  0  0  0  0  0
  -23.6022   18.4679  -26.6014 C   0  0  0  0  0  0  0  0  0  0  0  0
  -23.5021   17.3310  -25.8182 C   0  0  0  0  0  0  0  0  0  0  0  0
  -23.4307   17.5023  -24.4369 C   0  0  0  0  0  0  0  0  0  0  0  0
  -19.0667   16.8066  -23.2922 C   0  0  0  0  0  0  0  0  0  0  0  0
  -17.9968   15.8478  -23.4761 C   0  0  0  0  0  0  0  0  0  0  0  0
  -18.1756   14.7268  -24.2493 C   0  0  0  0  0  0  0  0  0  0  0  0
  -17.1299   13.8097  -24.4308 C   0  0  0  0  0  0  0  0  0  0  0  0
  -15.9138   13.9890  -23.8580 C   0  0  0  0  0  0  0  0  0  0  0  0
  -14.9130   13.0663  -24.0617 O   0  0  0  0  0  0  0  0  0  0  0  0
  -15.7143   15.1263  -23.0662 C   0  0  0  0  0  0  0  0  0  0  0  0
  -16.7367   16.0269  -22.8857 C   0  0  0  0  0  0  0  0  0  0  0  0
  -13.9878   13.1139  -23.6817 H   0  0  0  0  0  0  0  0  0  0  0  0
  -19.0077   13.2466  -20.1525 C   0  0  0  0  0  0  0  0  0  0  0  0
  -17.9130   12.2687  -20.1141 C   0  0  0  0  0  0  0  0  0  0  0  0
  -17.3599   11.7312  -18.9949 C   0  0  0  0  0  0  0  0  0  0  0  0
  -16.3233   10.7877  -19.0588 C   0  0  0  0  0  0  0  0  0  0  0  0
  -15.8056   10.3508  -20.2439 C   0  0  0  0  0  0  0  0  0  0  0  0
  -16.3570   10.8890  -21.4020 C   0  0  0  0  0  0  0  0  0  0  0  0
  -17.3646   11.8054  -21.3302 C   0  0  0  0  0  0  0  0  0  0  0  0
 17 18  1  0  0  0
 18 19  2  0  0  0
 18 20  2  0  0  0
 18 11  1  0  0  0
 11 12  2  0  0  0
 12 13  1  0  0  0
 13 14  2  0  0  0
 14 15  1  0  0  0
 15 16  2  0  0  0
 14  7  1  0  0  0
  7  8  2  0  0  0
  7  9  1  0  0  0
  9  6  1  0  0  0
  6 23  1  0  0  0
 23 24  1  0  0  0
 24 25  2  0  0  0
 25 26  1  0  0  0
 26 27  2  0  0  0
 27 28  1  0  0  0
 28 29  2  0  0  0
  6  2  1  0  0  0
  2  3  2  0  0  0
  2  4  1  0  0  0
  4  1  1  0  0  0
  1 60  1  0  0  0
 60 61  1  0  0  0
 61 62  2  0  0  0
 62 63  1  0  0  0
 63 64  2  0  0  0
 64 65  1  0  0  0
 65 66  2  0  0  0
  1 30  1  0  0  0
 30 31  2  0  0  0
 30 32  1  0  0  0
 32 34  1  0  0  0
 34 51  1  0  0  0
 51 52  1  0  0  0
 52 53  2  0  0  0
 53 54  1  0  0  0
 54 55  2  0  0  0
 55 56  1  0  0  0
 55 57  1  0  0  0
 57 58  2  0  0  0
 34 35  1  0  0  0
 35 36  2  0  0  0
 35 37  1  0  0  0
 37 39  1  0  0  0
 39 44  1  0  0  0
 44 45  1  0  0  0
 45 46  2  0  0  0
 46 47  1  0  0  0
 47 48  2  0  0  0
 48 49  1  0  0  0
 49 50  2  0  0  0
 39 40  1  0  0  0
 40 41  1  0  0  0
 40 42  2  0  0  0
 16 11  1  0  0  0
 29 24  1  0  0  0
 66 61  1  0  0  0
 58 52  1  0  0  0
 50 45  1  0  0  0
 17 21  1  0  0  0
 17 22  1  0  0  0
  9 10  1  0  0  0
  4  5  1  0  0  0
 32 33  1  0  0  0
 56 59  1  0  0  0
 37 38  1  0  0  0
 41 43  1  0  0  0
M  END
> <minimizedAffinity>
-9.31810

> <CNNscore>
0.2581958175

> <CNNaffinity>
7.0872459412

> <CNN_VS>
1.8298972845

> <CNNaffinity_variance>
0.7919772863

$$$$
[H]OC(=O)[C@@]([H])(N([H])C(=O)[C@@]([H])(N([H])C(=O)[C@@]([H])(N([H])C(=O)[C@@]([H])(N([H])C(=O)c1c([H])c([H])c(S(=O)(=O)N([H])[H])c([H])c1[H])C([H])([H])c1c([H])c([H])c([H])c([H])c1[H])C([H])([H])c1c([H])c([H])c([H])c([H])c1[H])C([H])([H])c1c([H])c([H])c(O[H])c([H])c1[H])C([H])([H])c1c([H])c([H])c([H])c([H])c1[H]


 66 70  0  0  0  0  0  0  0  0999 V2000
  -18.0405   14.7051  -19.9876 C   0  0  0  0  0  0  0  0  0  0  0  0
  -19.0019   15.1444  -17.6634 C   0  0  0  0  0  0  0  0  0  0  0  0
  -17.9788   14.8394  -16.9614 O   0  0  0  0  0  0  0  0  0  0  0  0
  -19.0214   15.0806  -19.0615 N   0  0  0  0  0  0  0  0  0  0  0  0
  -19.9750   15.3668  -19.4896 H   0  0  0  0  0  0  0  0  0  0  0  0
  -20.1817   15.5722  -16.8769 C   0  0  0  0  0  0  0  0  0  0  0  0
  -20.9797   13.2525  -16.4229 C   0  0  0  0  0  0  0  0  0  0  0  0
  -20.8175   12.9165  -17.6299 O   0  0  0  0  0  0  0  0  0  0  0  0
  -20.6738   14.5548  -15.9979 N   0  0  0  0  0  0  0  0  0  0  0  0
  -20.7982   14.8199  -14.9959 H   0  0  0  0  0  0  0  0  0  0  0  0
  -22.4439   10.2684  -13.7622 C   0  0  0  0  0  0  0  0  0  0  0  0
  -22.2432   11.5752  -13.3138 C   0  0  0  0  0  0  0  0  0  0  0  0
  -21.7750   12.5341  -14.1855 C   0  0  0  0  0  0  0  0  0  0  0  0
  -21.4898   12.2519  -15.5089 C   0  0  0  0  0  0  0  0  0  0  0  0
  -21.6878   10.9670  -15.9454 C   0  0  0  0  0  0  0  0  0  0  0  0
  -22.1617    9.9901  -15.0713 C   0  0  0  0  0  0  0  0  0  0  0  0
  -23.6072    7.6944  -13.6490 N   0  0  0  0  0  0  0  0  0  0  0  0
  -23.0231    9.0267  -12.6865 S   0  0  0  0  0  0  0  0  0  0  0  0
  -24.0688    9.5331  -11.7519 O   0  0  0  0  0  0  0  0  0  0  0  0
  -21.8502    8.4900  -11.9018 O   0  0  0  0  0  0  0  0  0  0  0  0
  -24.1235    7.0243  -13.0575 H   0  0  0  0  0  0  0  0  0  0  0  0
  -22.8066    7.2148  -14.0916 H   0  0  0  0  0  0  0  0  0  0  0  0
  -20.1433   16.9249  -16.2792 C   0  0  0  0  0  0  0  0  0  0  0  0
  -20.3200   18.0686  -17.1630 C   0  0  0  0  0  0  0  0  0  0  0  0
  -21.4112   18.0648  -18.0146 C   0  0  0  0  0  0  0  0  0  0  0  0
  -21.6717   19.0597  -18.9114 C   0  0  0  0  0  0  0  0  0  0  0  0
  -20.8150   20.1309  -18.9874 C   0  0  0  0  0  0  0  0  0  0  0  0
  -19.7164   20.1571  -18.1456 C   0  0  0  0  0  0  0  0  0  0  0  0
  -19.4695   19.1444  -17.2463 C   0  0  0  0  0  0  0  0  0  0  0  0
  -17.4317   15.8515  -20.7199 C   0  0  0  0  0  0  0  0  0  0  0  0
  -17.0540   16.8581  -20.0337 O   0  0  0  0  0  0  0  0  0  0  0  0
  -17.2964   15.7771  -22.1055 N   0  0  0  0  0  0  0  0  0  0  0  0
  -17.6008   14.9354  -22.6289 H   0  0  0  0  0  0  0  0  0  0  0  0
  -16.7183   16.8365  -22.9261 C   0  0  0  0  0  0  0  0  0  0  0  0
  -17.6617   17.8798  -23.2706 C   0  0  0  0  0  0  0  0  0  0  0  0
  -17.5722   18.3559  -24.4615 O   0  0  0  0  0  0  0  0  0  0  0  0
  -18.6550   18.4261  -22.4655 N   0  0  0  0  0  0  0  0  0  0  0  0
  -18.7911   18.1230  -21.4964 H   0  0  0  0  0  0  0  0  0  0  0  0
  -19.5514   19.4681  -22.9916 C   0  0  0  0  0  0  0  0  0  0  0  0
  -19.1506   20.7958  -22.4858 C   0  0  0  0  0  0  0  0  0  0  0  0
  -18.2161   20.9796  -21.4519 O   0  0  0  0  0  0  0  0  0  0  0  0
  -19.6235   21.8869  -22.9469 O   0  0  0  0  0  0  0  0  0  0  0  0
  -18.1809   20.3204  -20.6773 H   0  0  0  0  0  0  0  0  0  0  0  0
  -20.9290   19.0633  -22.5567 C   0  0  0  0  0  0  0  0  0  0  0  0
  -21.9665   19.1121  -23.5778 C   0  0  0  0  0  0  0  0  0  0  0  0
  -22.3063   17.9532  -24.2417 C   0  0  0  0  0  0  0  0  0  0  0  0
  -23.2983   17.9523  -25.2038 C   0  0  0  0  0  0  0  0  0  0  0  0
  -23.9620   19.1242  -25.5088 C   0  0  0  0  0  0  0  0  0  0  0  0
  -23.6447   20.3047  -24.8595 C   0  0  0  0  0  0  0  0  0  0  0  0
  -22.6383   20.2620  -23.8964 C   0  0  0  0  0  0  0  0  0  0  0  0
  -15.8001   16.3035  -23.9552 C   0  0  0  0  0  0  0  0  0  0  0  0
  -16.2381   15.1991  -24.7836 C   0  0  0  0  0  0  0  0  0  0  0  0
  -16.5795   13.9898  -24.2291 C   0  0  0  0  0  0  0  0  0  0  0  0
  -17.0135   12.9294  -25.0384 C   0  0  0  0  0  0  0  0  0  0  0  0
  -17.1132   13.0522  -26.3853 C   0  0  0  0  0  0  0  0  0  0  0  0
  -17.5446   11.9882  -27.1444 O   0  0  0  0  0  0  0  0  0  0  0  0
  -16.7688   14.2781  -26.9673 C   0  0  0  0  0  0  0  0  0  0  0  0
  -16.3428   15.3191  -26.1776 C   0  0  0  0  0  0  0  0  0  0  0  0
  -17.6493   11.9850  -28.1403 H   0  0  0  0  0  0  0  0  0  0  0  0
  -18.2807   13.5641  -20.9180 C   0  0  0  0  0  0  0  0  0  0  0  0
  -17.6299   12.2846  -20.6089 C   0  0  0  0  0  0  0  0  0  0  0  0
  -16.7947   11.5937  -21.4289 C   0  0  0  0  0  0  0  0  0  0  0  0
  -16.2059   10.3815  -21.0381 C   0  0  0  0  0  0  0  0  0  0  0  0
  -16.4328    9.8204  -19.8147 C   0  0  0  0  0  0  0  0  0  0  0  0
  -17.2855   10.5111  -18.9598 C   0  0  0  0  0  0  0  0  0  0  0  0
  -17.8532   11.6888  -19.3481 C   0  0  0  0  0  0  0  0  0  0  0  0
 17 18  1  0  0  0
 18 19  2  0  0  0
 18 20  2  0  0  0
 18 11  1  0  0  0
 11 12  2  0  0  0
 12 13  1  0  0  0
 13 14  2  0  0  0
 14 15  1  0  0  0
 15 16  2  0  0  0
 14  7  1  0  0  0
  7  8  2  0  0  0
  7  9  1  0  0  0
  9  6  1  0  0  0
  6 23  1  0  0  0
 23 24  1  0  0  0
 24 25  2  0  0  0
 25 26  1  0  0  0
 26 27  2  0  0  0
 27 28  1  0  0  0
 28 29  2  0  0  0
  6  2  1  0  0  0
  2  3  2  0  0  0
  2  4  1  0  0  0
  4  1  1  0  0  0
  1 60  1  0  0  0
 60 61  1  0  0  0
 61 62  2  0  0  0
 62 63  1  0  0  0
 63 64  2  0  0  0
 64 65  1  0  0  0
 65 66  2  0  0  0
  1 30  1  0  0  0
 30 31  2  0  0  0
 30 32  1  0  0  0
 32 34  1  0  0  0
 34 51  1  0  0  0
 51 52  1  0  0  0
 52 53  2  0  0  0
 53 54  1  0  0  0
 54 55  2  0  0  0
 55 56  1  0  0  0
 55 57  1  0  0  0
 57 58  2  0  0  0
 34 35  1  0  0  0
 35 36  2  0  0  0
 35 37  1  0  0  0
 37 39  1  0  0  0
 39 44  1  0  0  0
 44 45  1  0  0  0
 45 46  2  0  0  0
 46 47  1  0  0  0
 47 48  2  0  0  0
 48 49  1  0  0  0
 49 50  2  0  0  0
 39 40  1  0  0  0
 40 41  1  0  0  0
 40 42  2  0  0  0
 16 11  1  0  0  0
 29 24  1  0  0  0
 66 61  1  0  0  0
 58 52  1  0  0  0
 50 45  1  0  0  0
 17 21  1  0  0  0
 17 22  1  0  0  0
  9 10  1  0  0  0
  4  5  1  0  0  0
 32 33  1  0  0  0
 56 59  1  0  0  0
 37 38  1  0  0  0
 41 43  1  0  0  0
M  END
> <minimizedAffinity>
-10.19483

> <CNNscore>
0.2415609062

> <CNNaffinity>
7.5027513504

> <CNN_VS>
1.8123713732

> <CNNaffinity_variance>
0.9091430902

$$$$
[H]OC(=O)[C@@]([H])(N([H])C(=O)[C@@]([H])(N([H])C(=O)[C@@]([H])(N([H])C(=O)[C@@]([H])(N([H])C(=O)c1c([H])c([H])c(S(=O)(=O)N([H])[H])c([H])c1[H])C([H])([H])c1c([H])c([H])c([H])c([H])c1[H])C([H])([H])c1c([H])c([H])c([H])c([H])c1[H])C([H])([H])c1c([H])c([H])c(O[H])c([H])c1[H])C([H])([H])c1c([H])c([H])c([H])c([H])c1[H]


 66 70  0  0  0  0  0  0  0  0999 V2000
  -17.7628   14.7051  -20.4181 C   0  0  0  0  0  0  0  0  0  0  0  0
  -20.0743   14.5932  -19.3394 C   0  0  0  0  0  0  0  0  0  0  0  0
  -20.7785   14.4142  -20.3905 O   0  0  0  0  0  0  0  0  0  0  0  0
  -18.6810   14.7255  -19.3611 N   0  0  0  0  0  0  0  0  0  0  0  0
  -18.2505   14.8800  -18.3786 H   0  0  0  0  0  0  0  0  0  0  0  0
  -20.8528   14.6549  -18.0810 C   0  0  0  0  0  0  0  0  0  0  0  0
  -20.1451   12.5049  -17.0319 C   0  0  0  0  0  0  0  0  0  0  0  0
  -18.9302   12.8515  -17.0441 O   0  0  0  0  0  0  0  0  0  0  0  0
  -21.1369   13.3649  -17.5287 N   0  0  0  0  0  0  0  0  0  0  0  0
  -22.1397   13.0759  -17.5024 H   0  0  0  0  0  0  0  0  0  0  0  0
  -21.1492    8.6753  -15.4655 C   0  0  0  0  0  0  0  0  0  0  0  0
  -19.9153    8.8819  -16.0851 C   0  0  0  0  0  0  0  0  0  0  0  0
  -19.5986   10.1271  -16.5826 C   0  0  0  0  0  0  0  0  0  0  0  0
  -20.4668   11.1999  -16.4933 C   0  0  0  0  0  0  0  0  0  0  0  0
  -21.6779   10.9929  -15.8844 C   0  0  0  0  0  0  0  0  0  0  0  0
  -22.0073    9.7368  -15.3775 C   0  0  0  0  0  0  0  0  0  0  0  0
  -20.2491    6.0233  -15.0807 N   0  0  0  0  0  0  0  0  0  0  0  0
  -21.5895    7.1122  -14.8352 S   0  0  0  0  0  0  0  0  0  0  0  0
  -22.8447    6.5901  -15.4480 O   0  0  0  0  0  0  0  0  0  0  0  0
  -21.7599    7.2314  -13.3398 O   0  0  0  0  0  0  0  0  0  0  0  0
  -20.5379    5.0508  -14.8902 H   0  0  0  0  0  0  0  0  0  0  0  0
  -19.4768    6.2822  -14.4456 H   0  0  0  0  0  0  0  0  0  0  0  0
  -20.4463   15.6674  -17.0819 C   0  0  0  0  0  0  0  0  0  0  0  0
  -21.1166   16.9598  -17.1060 C   0  0  0  0  0  0  0  0  0  0  0  0
  -20.3314   18.0967  -17.0234 C   0  0  0  0  0  0  0  0  0  0  0  0
  -20.8379   19.3636  -17.0044 C   0  0  0  0  0  0  0  0  0  0  0  0
  -22.1988   19.5394  -17.0695 C   0  0  0  0  0  0  0  0  0  0  0  0
  -23.0049   18.4172  -17.1526 C   0  0  0  0  0  0  0  0  0  0  0  0
  -22.4762   17.1461  -17.1711 C   0  0  0  0  0  0  0  0  0  0  0  0
  -17.5645   16.0302  -21.0708 C   0  0  0  0  0  0  0  0  0  0  0  0
  -17.4202   17.0466  -20.3139 O   0  0  0  0  0  0  0  0  0  0  0  0
  -17.5398   16.1045  -22.4627 N   0  0  0  0  0  0  0  0  0  0  0  0
  -17.6448   15.2540  -23.0464 H   0  0  0  0  0  0  0  0  0  0  0  0
  -17.3546   17.3445  -23.2097 C   0  0  0  0  0  0  0  0  0  0  0  0
  -18.4032   18.3172  -22.9827 C   0  0  0  0  0  0  0  0  0  0  0  0
  -19.4548   18.1996  -23.7129 O   0  0  0  0  0  0  0  0  0  0  0  0
  -18.4076   19.3627  -22.0660 N   0  0  0  0  0  0  0  0  0  0  0  0
  -17.6072   19.5462  -21.4535 H   0  0  0  0  0  0  0  0  0  0  0  0
  -19.5794   20.2455  -21.9483 C   0  0  0  0  0  0  0  0  0  0  0  0
  -19.1694   21.6607  -22.0400 C   0  0  0  0  0  0  0  0  0  0  0  0
  -18.1366   22.2182  -21.2662 O   0  0  0  0  0  0  0  0  0  0  0  0
  -19.7230   22.4948  -22.8302 O   0  0  0  0  0  0  0  0  0  0  0  0
  -17.9983   21.9086  -20.3067 H   0  0  0  0  0  0  0  0  0  0  0  0
  -20.2072   19.8982  -20.6307 C   0  0  0  0  0  0  0  0  0  0  0  0
  -21.4802   19.1930  -20.6905 C   0  0  0  0  0  0  0  0  0  0  0  0
  -22.6486   19.9234  -20.7182 C   0  0  0  0  0  0  0  0  0  0  0  0
  -23.8764   19.2937  -20.7939 C   0  0  0  0  0  0  0  0  0  0  0  0
  -23.9408   17.9152  -20.8432 C   0  0  0  0  0  0  0  0  0  0  0  0
  -22.7856   17.1531  -20.8177 C   0  0  0  0  0  0  0  0  0  0  0  0
  -21.5684   17.8274  -20.7407 C   0  0  0  0  0  0  0  0  0  0  0  0
  -16.8620   17.0982  -24.5819 C   0  0  0  0  0  0  0  0  0  0  0  0
  -17.0203   15.7792  -25.1592 C   0  0  0  0  0  0  0  0  0  0  0  0
  -16.1899   15.3405  -26.1614 C   0  0  0  0  0  0  0  0  0  0  0  0
  -16.3437   14.0572  -26.7064 C   0  0  0  0  0  0  0  0  0  0  0  0
  -17.3064   13.2064  -26.2722 C   0  0  0  0  0  0  0  0  0  0  0  0
  -17.4237   11.9545  -26.8321 O   0  0  0  0  0  0  0  0  0  0  0  0
  -18.1619   13.6376  -25.2514 C   0  0  0  0  0  0  0  0  0  0  0  0
  -18.0146   14.8945  -24.7151 C   0  0  0  0  0  0  0  0  0  0  0  0
  -18.1003   11.2616  -26.5779 H   0  0  0  0  0  0  0  0  0  0  0  0
  -17.8206   13.6247  -21.4450 C   0  0  0  0  0  0  0  0  0  0  0  0
  -17.1984   12.3365  -21.1140 C   0  0  0  0  0  0  0  0  0  0  0  0
  -16.2262   11.7110  -21.8288 C   0  0  0  0  0  0  0  0  0  0  0  0
  -15.6798   10.4838  -21.4233 C   0  0  0  0  0  0  0  0  0  0  0  0
  -16.0877    9.8418  -20.2898 C   0  0  0  0  0  0  0  0  0  0  0  0
  -17.0829   10.4647  -19.5436 C   0  0  0  0  0  0  0  0  0  0  0  0
  -17.6079   11.6575  -19.9454 C   0  0  0  0  0  0  0  0  0  0  0  0
 17 18  1  0  0  0
 18 19  2  0  0  0
 18 20  2  0  0  0
 18 11  1  0  0  0
 11 12  2  0  0  0
 12 13  1  0  0  0
 13 14  2  0  0  0
 14 15  1  0  0  0
 15 16  2  0  0  0
 14  7  1  0  0  0
  7  8  2  0  0  0
  7  9  1  0  0  0
  9  6  1  0  0  0
  6 23  1  0  0  0
 23 24  1  0  0  0
 24 25  2  0  0  0
 25 26  1  0  0  0
 26 27  2  0  0  0
 27 28  1  0  0  0
 28 29  2  0  0  0
  6  2  1  0  0  0
  2  3  2  0  0  0
  2  4  1  0  0  0
  4  1  1  0  0  0
  1 60  1  0  0  0
 60 61  1  0  0  0
 61 62  2  0  0  0
 62 63  1  0  0  0
 63 64  2  0  0  0
 64 65  1  0  0  0
 65 66  2  0  0  0
  1 30  1  0  0  0
 30 31  2  0  0  0
 30 32  1  0  0  0
 32 34  1  0  0  0
 34 51  1  0  0  0
 51 52  1  0  0  0
 52 53  2  0  0  0
 53 54  1  0  0  0
 54 55  2  0  0  0
 55 56  1  0  0  0
 55 57  1  0  0  0
 57 58  2  0  0  0
 34 35  1  0  0  0
 35 36  2  0  0  0
 35 37  1  0  0  0
 37 39  1  0  0  0
 39 44  1  0  0  0
 44 45  1  0  0  0
 45 46  2  0  0  0
 46 47  1  0  0  0
 47 48  2  0  0  0
 48 49  1  0  0  0
 49 50  2  0  0  0
 39 40  1  0  0  0
 40 41  1  0  0  0
 40 42  2  0  0  0
 16 11  1  0  0  0
 29 24  1  0  0  0
 66 61  1  0  0  0
 58 52  1  0  0  0
 50 45  1  0  0  0
 17 21  1  0  0  0
 17 22  1  0  0  0
  9 10  1  0  0  0
  4  5  1  0  0  0
 32 33  1  0  0  0
 56 59  1  0  0  0
 37 38  1  0  0  0
 41 43  1  0  0  0
M  END
> <minimizedAffinity>
-9.89489

> <CNNscore>
0.2371925712

> <CNNaffinity>
7.3345518112

> <CNN_VS>
1.7397011518

> <CNNaffinity_variance>
1.9169628620

$$$$
[H]OC(=O)[C@@]([H])(N([H])C(=O)[C@@]([H])(N([H])C(=O)[C@@]([H])(N([H])C(=O)[C@@]([H])(N([H])C(=O)c1c([H])c([H])c(S(=O)(=O)N([H])[H])c([H])c1[H])C([H])([H])c1c([H])c([H])c([H])c([H])c1[H])C([H])([H])c1c([H])c([H])c([H])c([H])c1[H])C([H])([H])c1c([H])c([H])c(O[H])c([H])c1[H])C([H])([H])c1c([H])c([H])c([H])c([H])c1[H]


 66 70  0  0  0  0  0  0  0  0999 V2000
  -18.2485   15.2485  -19.6571 C   0  0  0  0  0  0  0  0  0  0  0  0
  -19.0298   15.7039  -17.2694 C   0  0  0  0  0  0  0  0  0  0  0  0
  -18.2712   14.8837  -16.6494 O   0  0  0  0  0  0  0  0  0  0  0  0
  -19.0120   15.8670  -18.6594 N   0  0  0  0  0  0  0  0  0  0  0  0
  -19.7284   16.5990  -19.0136 H   0  0  0  0  0  0  0  0  0  0  0  0
  -19.9437   16.4762  -16.3965 C   0  0  0  0  0  0  0  0  0  0  0  0
  -22.3019   15.8691  -15.8538 C   0  0  0  0  0  0  0  0  0  0  0  0
  -22.7517   16.8048  -16.5738 O   0  0  0  0  0  0  0  0  0  0  0  0
  -20.9187   15.6607  -15.7375 N   0  0  0  0  0  0  0  0  0  0  0  0
  -20.5562   14.8769  -15.1510 H   0  0  0  0  0  0  0  0  0  0  0  0
  -25.1551   13.4118  -13.8667 C   0  0  0  0  0  0  0  0  0  0  0  0
  -23.7895   13.2313  -13.6391 C   0  0  0  0  0  0  0  0  0  0  0  0
  -22.8755   14.0367  -14.2830 C   0  0  0  0  0  0  0  0  0  0  0  0
  -23.2603   15.0335  -15.1609 C   0  0  0  0  0  0  0  0  0  0  0  0
  -24.6024   15.2073  -15.3822 C   0  0  0  0  0  0  0  0  0  0  0  0
  -25.5348   14.3979  -14.7351 C   0  0  0  0  0  0  0  0  0  0  0  0
  -25.5663   11.5844  -11.7493 N   0  0  0  0  0  0  0  0  0  0  0  0
  -26.3394   12.4052  -13.0802 S   0  0  0  0  0  0  0  0  0  0  0  0
  -26.9798   11.4449  -14.0243 O   0  0  0  0  0  0  0  0  0  0  0  0
  -27.3905   13.2972  -12.4644 O   0  0  0  0  0  0  0  0  0  0  0  0
  -26.1831   10.8453  -11.3772 H   0  0  0  0  0  0  0  0  0  0  0  0
  -25.3578   12.2657  -11.0015 H   0  0  0  0  0  0  0  0  0  0  0  0
  -19.3400   17.5167  -15.5355 C   0  0  0  0  0  0  0  0  0  0  0  0
  -19.9440   18.8417  -15.5379 C   0  0  0  0  0  0  0  0  0  0  0  0
  -20.1806   19.4419  -16.7626 C   0  0  0  0  0  0  0  0  0  0  0  0
  -20.7117   20.6912  -16.9003 C   0  0  0  0  0  0  0  0  0  0  0  0
  -21.0349   21.4071  -15.7732 C   0  0  0  0  0  0  0  0  0  0  0  0
  -20.8073   20.8277  -14.5368 C   0  0  0  0  0  0  0  0  0  0  0  0
  -20.2709   19.5654  -14.4168 C   0  0  0  0  0  0  0  0  0  0  0  0
  -17.6712   16.1976  -20.6506 C   0  0  0  0  0  0  0  0  0  0  0  0
  -16.5279   16.7008  -20.3927 O   0  0  0  0  0  0  0  0  0  0  0  0
  -18.3909   16.4896  -21.8083 N   0  0  0  0  0  0  0  0  0  0  0  0
  -19.3113   16.0491  -21.9921 H   0  0  0  0  0  0  0  0  0  0  0  0
  -17.9272   17.4031  -22.8479 C   0  0  0  0  0  0  0  0  0  0  0  0
  -18.7576   18.5804  -22.9943 C   0  0  0  0  0  0  0  0  0  0  0  0
  -18.6280   19.2337  -24.0940 O   0  0  0  0  0  0  0  0  0  0  0  0
  -19.6808   19.0866  -22.0862 N   0  0  0  0  0  0  0  0  0  0  0  0
  -19.8402   18.6443  -21.1760 H   0  0  0  0  0  0  0  0  0  0  0  0
  -20.4662   20.2876  -22.4132 C   0  0  0  0  0  0  0  0  0  0  0  0
  -20.0837   21.4088  -21.5322 C   0  0  0  0  0  0  0  0  0  0  0  0
  -20.2467   22.7598  -21.8850 O   0  0  0  0  0  0  0  0  0  0  0  0
  -19.5709   21.2409  -20.3766 O   0  0  0  0  0  0  0  0  0  0  0  0
  -20.1080   23.0520  -22.8500 H   0  0  0  0  0  0  0  0  0  0  0  0
  -21.9011   19.8785  -22.2567 C   0  0  0  0  0  0  0  0  0  0  0  0
  -22.6063   19.5242  -23.4808 C   0  0  0  0  0  0  0  0  0  0  0  0
  -22.4498   18.2572  -23.9999 C   0  0  0  0  0  0  0  0  0  0  0  0
  -23.1158   17.8747  -25.1487 C   0  0  0  0  0  0  0  0  0  0  0  0
  -23.9509   18.7683  -25.7899 C   0  0  0  0  0  0  0  0  0  0  0  0
  -24.1298   20.0480  -25.2936 C   0  0  0  0  0  0  0  0  0  0  0  0
  -23.4396   20.3933  -24.1332 C   0  0  0  0  0  0  0  0  0  0  0  0
  -17.4508   16.6828  -24.0481 C   0  0  0  0  0  0  0  0  0  0  0  0
  -16.7401   15.4319  -23.8811 C   0  0  0  0  0  0  0  0  0  0  0  0
  -17.3884   14.2272  -24.0038 C   0  0  0  0  0  0  0  0  0  0  0  0
  -16.6892   13.0207  -23.8515 C   0  0  0  0  0  0  0  0  0  0  0  0
  -15.3607   12.9932  -23.5804 C   0  0  0  0  0  0  0  0  0  0  0  0
  -14.7107   11.7882  -23.4396 O   0  0  0  0  0  0  0  0  0  0  0  0
  -14.6843   14.2122  -23.4516 C   0  0  0  0  0  0  0  0  0  0  0  0
  -15.3660   15.3964  -23.5997 C   0  0  0  0  0  0  0  0  0  0  0  0
  -13.7367   11.6693  -23.2399 H   0  0  0  0  0  0  0  0  0  0  0  0
  -18.7550   14.0245  -20.3429 C   0  0  0  0  0  0  0  0  0  0  0  0
  -18.2974   12.7231  -19.8397 C   0  0  0  0  0  0  0  0  0  0  0  0
  -18.7235   12.1102  -18.7039 C   0  0  0  0  0  0  0  0  0  0  0  0
  -18.2373   10.8540  -18.3112 C   0  0  0  0  0  0  0  0  0  0  0  0
  -17.3090   10.1694  -19.0411 C   0  0  0  0  0  0  0  0  0  0  0  0
  -16.8585   10.7795  -20.2073 C   0  0  0  0  0  0  0  0  0  0  0  0
  -17.3370   12.0006  -20.5813 C   0  0  0  0  0  0  0  0  0  0  0  0
 17 18  1  0  0  0
 18 19  2  0  0  0
 18 20  2  0  0  0
 18 11  1  0  0  0
 11 12  2  0  0  0
 12 13  1  0  0  0
 13 14  2  0  0  0
 14 15  1  0  0  0
 15 16  2  0  0  0
 14  7  1  0  0  0
  7  8  2  0  0  0
  7  9  1  0  0  0
  9  6  1  0  0  0
  6 23  1  0  0  0
 23 24  1  0  0  0
 24 25  2  0  0  0
 25 26  1  0  0  0
 26 27  2  0  0  0
 27 28  1  0  0  0
 28 29  2  0  0  0
  6  2  1  0  0  0
  2  3  2  0  0  0
  2  4  1  0  0  0
  4  1  1  0  0  0
  1 60  1  0  0  0
 60 61  1  0  0  0
 61 62  2  0  0  0
 62 63  1  0  0  0
 63 64  2  0  0  0
 64 65  1  0  0  0
 65 66  2  0  0  0
  1 30  1  0  0  0
 30 31  2  0  0  0
 30 32  1  0  0  0
 32 34  1  0  0  0
 34 51  1  0  0  0
 51 52  1  0  0  0
 52 53  2  0  0  0
 53 54  1  0  0  0
 54 55  2  0  0  0
 55 56  1  0  0  0
 55 57  1  0  0  0
 57 58  2  0  0  0
 34 35  1  0  0  0
 35 36  2  0  0  0
 35 37  1  0  0  0
 37 39  1  0  0  0
 39 44  1  0  0  0
 44 45  1  0  0  0
 45 46  2  0  0  0
 46 47  1  0  0  0
 47 48  2  0  0  0
 48 49  1  0  0  0
 49 50  2  0  0  0
 39 40  1  0  0  0
 40 41  1  0  0  0
 40 42  2  0  0  0
 16 11  1  0  0  0
 29 24  1  0  0  0
 66 61  1  0  0  0
 58 52  1  0  0  0
 50 45  1  0  0  0
 17 21  1  0  0  0
 17 22  1  0  0  0
  9 10  1  0  0  0
  4  5  1  0  0  0
 32 33  1  0  0  0
 56 59  1  0  0  0
 37 38  1  0  0  0
 41 43  1  0  0  0
M  END
> <minimizedAffinity>
-8.74678

> <CNNscore>
0.2336231470

> <CNNaffinity>
7.5416135788

> <CNN_VS>
1.7618955374

> <CNNaffinity_variance>
0.3511067033

$$$$
[H]OC(=O)[C@@]([H])(N([H])C(=O)[C@@]([H])(N([H])C(=O)[C@@]([H])(N([H])C(=O)[C@@]([H])(N([H])C(=O)c1c([H])c([H])c(S(=O)(=O)N([H])[H])c([H])c1[H])C([H])([H])c1c([H])c([H])c([H])c([H])c1[H])C([H])([H])c1c([H])c([H])c([H])c([H])c1[H])C([H])([H])c1c([H])c([H])c(O[H])c([H])c1[H])C([H])([H])c1c([H])c([H])c([H])c([H])c1[H]


 66 70  0  0  0  0  0  0  0  0999 V2000
  -17.5523   14.8966  -19.8759 C   0  0  0  0  0  0  0  0  0  0  0  0
  -19.4386   15.8773  -18.4619 C   0  0  0  0  0  0  0  0  0  0  0  0
  -20.1291   16.4153  -19.3927 O   0  0  0  0  0  0  0  0  0  0  0  0
  -18.2496   15.1763  -18.6942 N   0  0  0  0  0  0  0  0  0  0  0  0
  -17.7933   14.7955  -17.7879 H   0  0  0  0  0  0  0  0  0  0  0  0
  -19.9955   16.0565  -17.1013 C   0  0  0  0  0  0  0  0  0  0  0  0
  -20.6309   13.6560  -16.8607 C   0  0  0  0  0  0  0  0  0  0  0  0
  -21.1028   13.6210  -18.0321 O   0  0  0  0  0  0  0  0  0  0  0  0
  -20.0658   14.8369  -16.3546 N   0  0  0  0  0  0  0  0  0  0  0  0
  -19.6661   14.8530  -15.3903 H   0  0  0  0  0  0  0  0  0  0  0  0
  -20.7734   10.0767  -14.5593 C   0  0  0  0  0  0  0  0  0  0  0  0
  -21.3812   11.2421  -14.0884 C   0  0  0  0  0  0  0  0  0  0  0  0
  -21.3342   12.3928  -14.8447 C   0  0  0  0  0  0  0  0  0  0  0  0
  -20.6987   12.4435  -16.0720 C   0  0  0  0  0  0  0  0  0  0  0  0
  -20.1025   11.2970  -16.5308 C   0  0  0  0  0  0  0  0  0  0  0  0
  -20.1452   10.1277  -15.7732 C   0  0  0  0  0  0  0  0  0  0  0  0
  -19.5318    7.5616  -14.2070 N   0  0  0  0  0  0  0  0  0  0  0  0
  -20.8019    8.6063  -13.6258 S   0  0  0  0  0  0  0  0  0  0  0  0
  -22.1329    7.9354  -13.6708 O   0  0  0  0  0  0  0  0  0  0  0  0
  -20.4442    8.9409  -12.1976 O   0  0  0  0  0  0  0  0  0  0  0  0
  -19.6346    6.6157  -13.8069 H   0  0  0  0  0  0  0  0  0  0  0  0
  -18.6154    7.9518  -13.9334 H   0  0  0  0  0  0  0  0  0  0  0  0
  -19.5180   17.2195  -16.3216 C   0  0  0  0  0  0  0  0  0  0  0  0
  -20.1257   18.5161  -16.5855 C   0  0  0  0  0  0  0  0  0  0  0  0
  -21.3372   18.7978  -15.9780 C   0  0  0  0  0  0  0  0  0  0  0  0
  -22.0236   19.9616  -16.1676 C   0  0  0  0  0  0  0  0  0  0  0  0
  -21.4994   20.9171  -17.0040 C   0  0  0  0  0  0  0  0  0  0  0  0
  -20.2887   20.6582  -17.6233 C   0  0  0  0  0  0  0  0  0  0  0  0
  -19.6095   19.4780  -17.4197 C   0  0  0  0  0  0  0  0  0  0  0  0
  -17.1472   16.1108  -20.6392 C   0  0  0  0  0  0  0  0  0  0  0  0
  -16.7590   17.1264  -19.9723 O   0  0  0  0  0  0  0  0  0  0  0  0
  -17.2028   16.0871  -22.0320 N   0  0  0  0  0  0  0  0  0  0  0  0
  -17.5089   15.2374  -22.5414 H   0  0  0  0  0  0  0  0  0  0  0  0
  -16.8333   17.2145  -22.8819 C   0  0  0  0  0  0  0  0  0  0  0  0
  -17.8836   18.2020  -23.0199 C   0  0  0  0  0  0  0  0  0  0  0  0
  -18.2321   18.4962  -24.2219 O   0  0  0  0  0  0  0  0  0  0  0  0
  -18.5615   18.8681  -22.0050 N   0  0  0  0  0  0  0  0  0  0  0  0
  -18.3409   18.7125  -21.0167 H   0  0  0  0  0  0  0  0  0  0  0  0
  -19.6303   19.8271  -22.3276 C   0  0  0  0  0  0  0  0  0  0  0  0
  -19.4657   21.0656  -21.5412 C   0  0  0  0  0  0  0  0  0  0  0  0
  -18.2291   21.7104  -21.3639 O   0  0  0  0  0  0  0  0  0  0  0  0
  -20.4357   21.6511  -20.9556 O   0  0  0  0  0  0  0  0  0  0  0  0
  -17.3788   21.1591  -21.2706 H   0  0  0  0  0  0  0  0  0  0  0  0
  -20.9126   19.1070  -22.0309 C   0  0  0  0  0  0  0  0  0  0  0  0
  -21.9320   19.1535  -23.0702 C   0  0  0  0  0  0  0  0  0  0  0  0
  -22.7352   20.2689  -23.1695 C   0  0  0  0  0  0  0  0  0  0  0  0
  -23.7016   20.3611  -24.1531 C   0  0  0  0  0  0  0  0  0  0  0  0
  -23.8698   19.3260  -25.0516 C   0  0  0  0  0  0  0  0  0  0  0  0
  -23.0786   18.1925  -24.9789 C   0  0  0  0  0  0  0  0  0  0  0  0
  -22.1164   18.1397  -23.9722 C   0  0  0  0  0  0  0  0  0  0  0  0
  -16.0634   16.7861  -24.0694 C   0  0  0  0  0  0  0  0  0  0  0  0
  -16.4738   15.5927  -24.7800 C   0  0  0  0  0  0  0  0  0  0  0  0
  -16.2567   15.4623  -26.1299 C   0  0  0  0  0  0  0  0  0  0  0  0
  -16.6475   14.2978  -26.8074 C   0  0  0  0  0  0  0  0  0  0  0  0
  -17.2483   13.2649  -26.1662 C   0  0  0  0  0  0  0  0  0  0  0  0
  -17.6155   12.1385  -26.8669 O   0  0  0  0  0  0  0  0  0  0  0  0
  -17.4777   13.3812  -24.7900 C   0  0  0  0  0  0  0  0  0  0  0  0
  -17.0966   14.5208  -24.1228 C   0  0  0  0  0  0  0  0  0  0  0  0
  -18.0623   11.3298  -26.4809 H   0  0  0  0  0  0  0  0  0  0  0  0
  -18.0416   13.8384  -20.8064 C   0  0  0  0  0  0  0  0  0  0  0  0
  -17.5472   12.4708  -20.6029 C   0  0  0  0  0  0  0  0  0  0  0  0
  -16.7385   11.7788  -21.4482 C   0  0  0  0  0  0  0  0  0  0  0  0
  -16.3037   10.4763  -21.1596 C   0  0  0  0  0  0  0  0  0  0  0  0
  -16.6633    9.8229  -20.0163 C   0  0  0  0  0  0  0  0  0  0  0  0
  -17.4916   10.5131  -19.1374 C   0  0  0  0  0  0  0  0  0  0  0  0
  -17.9091   11.7789  -19.4262 C   0  0  0  0  0  0  0  0  0  0  0  0
 17 18  1  0  0  0
 18 19  2  0  0  0
 18 20  2  0  0  0
 18 11  1  0  0  0
 11 12  2  0  0  0
 12 13  1  0  0  0
 13 14  2  0  0  0
 14 15  1  0  0  0
 15 16  2  0  0  0
 14  7  1  0  0  0
  7  8  2  0  0  0
  7  9  1  0  0  0
  9  6  1  0  0  0
  6 23  1  0  0  0
 23 24  1  0  0  0
 24 25  2  0  0  0
 25 26  1  0  0  0
 26 27  2  0  0  0
 27 28  1  0  0  0
 28 29  2  0  0  0
  6  2  1  0  0  0
  2  3  2  0  0  0
  2  4  1  0  0  0
  4  1  1  0  0  0
  1 60  1  0  0  0
 60 61  1  0  0  0
 61 62  2  0  0  0
 62 63  1  0  0  0
 63 64  2  0  0  0
 64 65  1  0  0  0
 65 66  2  0  0  0
  1 30  1  0  0  0
 30 31  2  0  0  0
 30 32  1  0  0  0
 32 34  1  0  0  0
 34 51  1  0  0  0
 51 52  1  0  0  0
 52 53  2  0  0  0
 53 54  1  0  0  0
 54 55  2  0  0  0
 55 56  1  0  0  0
 55 57  1  0  0  0
 57 58  2  0  0  0
 34 35  1  0  0  0
 35 36  2  0  0  0
 35 37  1  0  0  0
 37 39  1  0  0  0
 39 44  1  0  0  0
 44 45  1  0  0  0
 45 46  2  0  0  0
 46 47  1  0  0  0
 47 48  2  0  0  0
 48 49  1  0  0  0
 49 50  2  0  0  0
 39 40  1  0  0  0
 40 41  1  0  0  0
 40 42  2  0  0  0
 16 11  1  0  0  0
 29 24  1  0  0  0
 66 61  1  0  0  0
 58 52  1  0  0  0
 50 45  1  0  0  0
 17 21  1  0  0  0
 17 22  1  0  0  0
  9 10  1  0  0  0
  4  5  1  0  0  0
 32 33  1  0  0  0
 56 59  1  0  0  0
 37 38  1  0  0  0
 41 43  1  0  0  0
M  END
> <minimizedAffinity>
-9.88413

> <CNNscore>
0.2185874283

> <CNNaffinity>
7.7702789307

> <CNN_VS>
1.6984852552

> <CNNaffinity_variance>
0.8241500854

$$$$
[H]OC(=O)[C@@]([H])(N([H])C(=O)[C@@]([H])(N([H])C(=O)[C@@]([H])(N([H])C(=O)[C@@]([H])(N([H])C(=O)c1c([H])c([H])c(S(=O)(=O)N([H])[H])c([H])c1[H])C([H])([H])c1c([H])c([H])c([H])c([H])c1[H])C([H])([H])c1c([H])c([H])c([H])c([H])c1[H])C([H])([H])c1c([H])c([H])c(O[H])c([H])c1[H])C([H])([H])c1c([H])c([H])c([H])c([H])c1[H]


 66 70  0  0  0  0  0  0  0  0999 V2000
  -18.4590   16.1356  -22.7734 C   0  0  0  0  0  0  0  0  0  0  0  0
  -18.2393   15.2669  -20.3826 C   0  0  0  0  0  0  0  0  0  0  0  0
  -17.2532   15.9827  -19.9981 O   0  0  0  0  0  0  0  0  0  0  0  0
  -18.7910   15.3448  -21.6666 N   0  0  0  0  0  0  0  0  0  0  0  0
  -19.6156   14.6585  -21.8204 H   0  0  0  0  0  0  0  0  0  0  0  0
  -18.7589   14.3340  -19.3563 C   0  0  0  0  0  0  0  0  0  0  0  0
  -20.9917   15.3836  -18.9865 C   0  0  0  0  0  0  0  0  0  0  0  0
  -21.2859   15.2864  -20.2113 O   0  0  0  0  0  0  0  0  0  0  0  0
  -19.7545   14.9213  -18.5114 N   0  0  0  0  0  0  0  0  0  0  0  0
  -19.5251   14.9934  -17.4956 H   0  0  0  0  0  0  0  0  0  0  0  0
  -23.8963   17.1810  -16.4447 C   0  0  0  0  0  0  0  0  0  0  0  0
  -23.4121   15.9013  -16.1670 C   0  0  0  0  0  0  0  0  0  0  0  0
  -22.4676   15.3322  -16.9931 C   0  0  0  0  0  0  0  0  0  0  0  0
  -21.9703   15.9862  -18.1055 C   0  0  0  0  0  0  0  0  0  0  0  0
  -22.4487   17.2428  -18.3751 C   0  0  0  0  0  0  0  0  0  0  0  0
  -23.4039   17.8272  -17.5451 C   0  0  0  0  0  0  0  0  0  0  0  0
  -24.3938   18.2139  -13.8606 N   0  0  0  0  0  0  0  0  0  0  0  0
  -25.0992   17.9280  -15.4301 S   0  0  0  0  0  0  0  0  0  0  0  0
  -26.3435   17.1115  -15.3360 O   0  0  0  0  0  0  0  0  0  0  0  0
  -25.4212   19.2904  -15.9956 O   0  0  0  0  0  0  0  0  0  0  0  0
  -25.1244   18.4827  -13.1829 H   0  0  0  0  0  0  0  0  0  0  0  0
  -23.6963   18.9725  -13.9317 H   0  0  0  0  0  0  0  0  0  0  0  0
  -19.0671   12.9536  -19.7895 C   0  0  0  0  0  0  0  0  0  0  0  0
  -17.9615   12.1073  -20.2155 C   0  0  0  0  0  0  0  0  0  0  0  0
  -17.3525   11.3106  -19.2613 C   0  0  0  0  0  0  0  0  0  0  0  0
  -16.2886   10.4977  -19.5246 C   0  0  0  0  0  0  0  0  0  0  0  0
  -15.7807   10.4552  -20.8004 C   0  0  0  0  0  0  0  0  0  0  0  0
  -16.3731   11.2433  -21.7720 C   0  0  0  0  0  0  0  0  0  0  0  0
  -17.4466   12.0574  -21.4883 C   0  0  0  0  0  0  0  0  0  0  0  0
  -19.3086   17.3509  -22.9234 C   0  0  0  0  0  0  0  0  0  0  0  0
  -18.9751   18.1992  -23.8156 O   0  0  0  0  0  0  0  0  0  0  0  0
  -20.4211   17.5075  -22.0979 N   0  0  0  0  0  0  0  0  0  0  0  0
  -20.6708   16.7889  -21.3936 H   0  0  0  0  0  0  0  0  0  0  0  0
  -21.3221   18.6544  -22.1532 C   0  0  0  0  0  0  0  0  0  0  0  0
  -21.1896   19.5477  -21.0211 C   0  0  0  0  0  0  0  0  0  0  0  0
  -22.2555   20.1692  -20.6602 O   0  0  0  0  0  0  0  0  0  0  0  0
  -20.0452   19.8109  -20.2765 N   0  0  0  0  0  0  0  0  0  0  0  0
  -19.1447   19.3763  -20.4999 H   0  0  0  0  0  0  0  0  0  0  0  0
  -20.0975   20.7327  -19.1304 C   0  0  0  0  0  0  0  0  0  0  0  0
  -19.8057   22.1128  -19.5655 C   0  0  0  0  0  0  0  0  0  0  0  0
  -18.5546   22.5189  -20.0617 O   0  0  0  0  0  0  0  0  0  0  0  0
  -20.6681   23.0516  -19.5242 O   0  0  0  0  0  0  0  0  0  0  0  0
  -17.7020   22.1207  -19.6741 H   0  0  0  0  0  0  0  0  0  0  0  0
  -19.0968   20.2009  -18.1472 C   0  0  0  0  0  0  0  0  0  0  0  0
  -19.6383   19.4730  -17.0078 C   0  0  0  0  0  0  0  0  0  0  0  0
  -20.5922   20.0791  -16.2192 C   0  0  0  0  0  0  0  0  0  0  0  0
  -21.1453   19.4162  -15.1401 C   0  0  0  0  0  0  0  0  0  0  0  0
  -20.7419   18.1295  -14.8426 C   0  0  0  0  0  0  0  0  0  0  0  0
  -19.7863   17.4928  -15.6155 C   0  0  0  0  0  0  0  0  0  0  0  0
  -19.2539   18.1967  -16.6941 C   0  0  0  0  0  0  0  0  0  0  0  0
  -22.6658   18.2820  -22.6452 C   0  0  0  0  0  0  0  0  0  0  0  0
  -22.9351   18.3422  -24.0671 C   0  0  0  0  0  0  0  0  0  0  0  0
  -23.2639   17.2114  -24.7740 C   0  0  0  0  0  0  0  0  0  0  0  0
  -23.5341   17.2815  -26.1487 C   0  0  0  0  0  0  0  0  0  0  0  0
  -23.4831   18.4536  -26.8288 C   0  0  0  0  0  0  0  0  0  0  0  0
  -23.7564   18.4805  -28.1775 O   0  0  0  0  0  0  0  0  0  0  0  0
  -23.1491   19.6161  -26.1237 C   0  0  0  0  0  0  0  0  0  0  0  0
  -22.8832   19.5513  -24.7768 C   0  0  0  0  0  0  0  0  0  0  0  0
  -23.7435   19.2946  -28.7605 H   0  0  0  0  0  0  0  0  0  0  0  0
  -18.2160   15.5055  -24.1035 C   0  0  0  0  0  0  0  0  0  0  0  0
  -16.8217   15.2843  -24.5078 C   0  0  0  0  0  0  0  0  0  0  0  0
  -15.8981   14.5550  -23.8278 C   0  0  0  0  0  0  0  0  0  0  0  0
  -14.5887   14.3867  -24.3033 C   0  0  0  0  0  0  0  0  0  0  0  0
  -14.1599   14.9421  -25.4741 C   0  0  0  0  0  0  0  0  0  0  0  0
  -15.0895   15.6935  -26.1857 C   0  0  0  0  0  0  0  0  0  0  0  0
  -16.3601   15.8514  -25.7159 C   0  0  0  0  0  0  0  0  0  0  0  0
 17 18  1  0  0  0
 18 19  2  0  0  0
 18 20  2  0  0  0
 18 11  1  0  0  0
 11 12  2  0  0  0
 12 13  1  0  0  0
 13 14  2  0  0  0
 14 15  1  0  0  0
 15 16  2  0  0  0
 14  7  1  0  0  0
  7  8  2  0  0  0
  7  9  1  0  0  0
  9  6  1  0  0  0
  6 23  1  0  0  0
 23 24  1  0  0  0
 24 25  2  0  0  0
 25 26  1  0  0  0
 26 27  2  0  0  0
 27 28  1  0  0  0
 28 29  2  0  0  0
  6  2  1  0  0  0
  2  3  2  0  0  0
  2  4  1  0  0  0
  4  1  1  0  0  0
  1 60  1  0  0  0
 60 61  1  0  0  0
 61 62  2  0  0  0
 62 63  1  0  0  0
 63 64  2  0  0  0
 64 65  1  0  0  0
 65 66  2  0  0  0
  1 30  1  0  0  0
 30 31  2  0  0  0
 30 32  1  0  0  0
 32 34  1  0  0  0
 34 51  1  0  0  0
 51 52  1  0  0  0
 52 53  2  0  0  0
 53 54  1  0  0  0
 54 55  2  0  0  0
 55 56  1  0  0  0
 55 57  1  0  0  0
 57 58  2  0  0  0
 34 35  1  0  0  0
 35 36  2  0  0  0
 35 37  1  0  0  0
 37 39  1  0  0  0
 39 44  1  0  0  0
 44 45  1  0  0  0
 45 46  2  0  0  0
 46 47  1  0  0  0
 47 48  2  0  0  0
 48 49  1  0  0  0
 49 50  2  0  0  0
 39 40  1  0  0  0
 40 41  1  0  0  0
 40 42  2  0  0  0
 16 11  1  0  0  0
 29 24  1  0  0  0
 66 61  1  0  0  0
 58 52  1  0  0  0
 50 45  1  0  0  0
 17 21  1  0  0  0
 17 22  1  0  0  0
  9 10  1  0  0  0
  4  5  1  0  0  0
 32 33  1  0  0  0
 56 59  1  0  0  0
 37 38  1  0  0  0
 41 43  1  0  0  0
M  END
> <minimizedAffinity>
-9.56811

> <CNNscore>
0.2080074847

> <CNNaffinity>
7.0148038864

> <CNN_VS>
1.4591317177

> <CNNaffinity_variance>
1.7718166113

$$$$
[H]OC(=O)[C@@]([H])(N([H])C(=O)[C@@]([H])(N([H])C(=O)[C@@]([H])(N([H])C(=O)[C@@]([H])(N([H])C(=O)c1c([H])c([H])c(S(=O)(=O)N([H])[H])c([H])c1[H])C([H])([H])c1c([H])c([H])c([H])c([H])c1[H])C([H])([H])c1c([H])c([H])c([H])c([H])c1[H])C([H])([H])c1c([H])c([H])c(O[H])c([H])c1[H])C([H])([H])c1c([H])c([H])c([H])c([H])c1[H]


 66 70  0  0  0  0  0  0  0  0999 V2000
  -18.3509   14.7169  -20.0223 C   0  0  0  0  0  0  0  0  0  0  0  0
  -20.5794   14.6262  -18.7794 C   0  0  0  0  0  0  0  0  0  0  0  0
  -21.3665   14.8492  -19.7609 O   0  0  0  0  0  0  0  0  0  0  0  0
  -19.1870   14.5657  -18.9093 N   0  0  0  0  0  0  0  0  0  0  0  0
  -18.6776   14.3765  -17.9716 H   0  0  0  0  0  0  0  0  0  0  0  0
  -21.2588   14.4383  -17.4769 C   0  0  0  0  0  0  0  0  0  0  0  0
  -20.3004   12.2737  -16.6892 C   0  0  0  0  0  0  0  0  0  0  0  0
  -19.1380   12.7645  -16.6256 O   0  0  0  0  0  0  0  0  0  0  0  0
  -21.3862   13.0631  -17.0995 N   0  0  0  0  0  0  0  0  0  0  0  0
  -22.3455   12.6530  -17.1364 H   0  0  0  0  0  0  0  0  0  0  0  0
  -20.7194    8.1756  -15.6132 C   0  0  0  0  0  0  0  0  0  0  0  0
  -21.7486    9.0819  -15.3510 C   0  0  0  0  0  0  0  0  0  0  0  0
  -21.6044   10.4045  -15.7094 C   0  0  0  0  0  0  0  0  0  0  0  0
  -20.4631   10.8809  -16.3283 C   0  0  0  0  0  0  0  0  0  0  0  0
  -19.4544    9.9877  -16.5838 C   0  0  0  0  0  0  0  0  0  0  0  0
  -19.5910    8.6476  -16.2254 C   0  0  0  0  0  0  0  0  0  0  0  0
  -19.3433    5.9847  -14.4741 N   0  0  0  0  0  0  0  0  0  0  0  0
  -20.8607    6.4986  -15.1639 S   0  0  0  0  0  0  0  0  0  0  0  0
  -21.2643    5.6388  -16.3135 O   0  0  0  0  0  0  0  0  0  0  0  0
  -21.8805    6.3857  -14.0562 O   0  0  0  0  0  0  0  0  0  0  0  0
  -19.3276    4.9582  -14.3672 H   0  0  0  0  0  0  0  0  0  0  0  0
  -19.2202    6.4275  -13.5491 H   0  0  0  0  0  0  0  0  0  0  0  0
  -20.8637   15.3377  -16.3707 C   0  0  0  0  0  0  0  0  0  0  0  0
  -20.7083   16.7554  -16.6641 C   0  0  0  0  0  0  0  0  0  0  0  0
  -21.8487   17.4840  -16.9553 C   0  0  0  0  0  0  0  0  0  0  0  0
  -21.8351   18.8100  -17.2768 C   0  0  0  0  0  0  0  0  0  0  0  0
  -20.6333   19.4743  -17.3193 C   0  0  0  0  0  0  0  0  0  0  0  0
  -19.4788   18.7666  -17.0319 C   0  0  0  0  0  0  0  0  0  0  0  0
  -19.5115   17.4287  -16.7087 C   0  0  0  0  0  0  0  0  0  0  0  0
  -18.3672   16.0875  -20.6074 C   0  0  0  0  0  0  0  0  0  0  0  0
  -17.5856   16.9573  -20.0981 O   0  0  0  0  0  0  0  0  0  0  0  0
  -19.2200   16.3593  -21.6763 N   0  0  0  0  0  0  0  0  0  0  0  0
  -19.8306   15.6223  -22.0750 H   0  0  0  0  0  0  0  0  0  0  0  0
  -19.3221   17.6618  -22.3268 C   0  0  0  0  0  0  0  0  0  0  0  0
  -20.6603   18.2151  -22.3039 C   0  0  0  0  0  0  0  0  0  0  0  0
  -20.9202   19.0335  -21.3471 O   0  0  0  0  0  0  0  0  0  0  0  0
  -21.6970   17.9671  -23.1967 N   0  0  0  0  0  0  0  0  0  0  0  0
  -21.5896   17.3161  -23.9805 H   0  0  0  0  0  0  0  0  0  0  0  0
  -22.9944   18.6438  -23.0385 C   0  0  0  0  0  0  0  0  0  0  0  0
  -23.9772   17.7345  -22.4168 C   0  0  0  0  0  0  0  0  0  0  0  0
  -24.6254   16.7016  -23.1161 O   0  0  0  0  0  0  0  0  0  0  0  0
  -24.3198   17.8147  -21.1908 O   0  0  0  0  0  0  0  0  0  0  0  0
  -24.8884   16.8361  -24.0900 H   0  0  0  0  0  0  0  0  0  0  0  0
  -23.3861   19.0791  -24.4198 C   0  0  0  0  0  0  0  0  0  0  0  0
  -22.6683   20.2249  -24.9612 C   0  0  0  0  0  0  0  0  0  0  0  0
  -22.4235   20.2812  -26.3163 C   0  0  0  0  0  0  0  0  0  0  0  0
  -21.7625   21.3596  -26.8729 C   0  0  0  0  0  0  0  0  0  0  0  0
  -21.3393   22.3979  -26.0669 C   0  0  0  0  0  0  0  0  0  0  0  0
  -21.5702   22.3717  -24.7024 C   0  0  0  0  0  0  0  0  0  0  0  0
  -22.2398   21.2660  -24.1816 C   0  0  0  0  0  0  0  0  0  0  0  0
  -18.5177   17.7287  -23.5656 C   0  0  0  0  0  0  0  0  0  0  0  0
  -17.6027   16.6475  -23.8685 C   0  0  0  0  0  0  0  0  0  0  0  0
  -18.0499   15.4792  -24.4354 C   0  0  0  0  0  0  0  0  0  0  0  0
  -17.1544   14.4420  -24.7356 C   0  0  0  0  0  0  0  0  0  0  0  0
  -15.8263   14.5480  -24.4822 C   0  0  0  0  0  0  0  0  0  0  0  0
  -14.9801   13.5079  -24.7929 O   0  0  0  0  0  0  0  0  0  0  0  0
  -15.3534   15.7321  -23.9041 C   0  0  0  0  0  0  0  0  0  0  0  0
  -16.2278   16.7503  -23.6081 C   0  0  0  0  0  0  0  0  0  0  0  0
  -13.9902   13.4949  -24.6430 H   0  0  0  0  0  0  0  0  0  0  0  0
  -18.3456   13.6909  -21.1051 C   0  0  0  0  0  0  0  0  0  0  0  0
  -17.5919   12.4533  -20.8670 C   0  0  0  0  0  0  0  0  0  0  0  0
  -16.6704   11.9051  -21.7023 C   0  0  0  0  0  0  0  0  0  0  0  0
  -15.9873   10.7225  -21.3802 C   0  0  0  0  0  0  0  0  0  0  0  0
  -16.2032   10.0493  -20.2126 C   0  0  0  0  0  0  0  0  0  0  0  0
  -17.1433   10.5930  -19.3434 C   0  0  0  0  0  0  0  0  0  0  0  0
  -17.8023   11.7430  -19.6647 C   0  0  0  0  0  0  0  0  0  0  0  0
 17 18  1  0  0  0
 18 19  2  0  0  0
 18 20  2  0  0  0
 18 11  1  0  0  0
 11 12  2  0  0  0
 12 13  1  0  0  0
 13 14  2  0  0  0
 14 15  1  0  0  0
 15 16  2  0  0  0
 14  7  1  0  0  0
  7  8  2  0  0  0
  7  9  1  0  0  0
  9  6  1  0  0  0
  6 23  1  0  0  0
 23 24  1  0  0  0
 24 25  2  0  0  0
 25 26  1  0  0  0
 26 27  2  0  0  0
 27 28  1  0  0  0
 28 29  2  0  0  0
  6  2  1  0  0  0
  2  3  2  0  0  0
  2  4  1  0  0  0
  4  1  1  0  0  0
  1 60  1  0  0  0
 60 61  1  0  0  0
 61 62  2  0  0  0
 62 63  1  0  0  0
 63 64  2  0  0  0
 64 65  1  0  0  0
 65 66  2  0  0  0
  1 30  1  0  0  0
 30 31  2  0  0  0
 30 32  1  0  0  0
 32 34  1  0  0  0
 34 51  1  0  0  0
 51 52  1  0  0  0
 52 53  2  0  0  0
 53 54  1  0  0  0
 54 55  2  0  0  0
 55 56  1  0  0  0
 55 57  1  0  0  0
 57 58  2  0  0  0
 34 35  1  0  0  0
 35 36  2  0  0  0
 35 37  1  0  0  0
 37 39  1  0  0  0
 39 44  1  0  0  0
 44 45  1  0  0  0
 45 46  2  0  0  0
 46 47  1  0  0  0
 47 48  2  0  0  0
 48 49  1  0  0  0
 49 50  2  0  0  0
 39 40  1  0  0  0
 40 41  1  0  0  0
 40 42  2  0  0  0
 16 11  1  0  0  0
 29 24  1  0  0  0
 66 61  1  0  0  0
 58 52  1  0  0  0
 50 45  1  0  0  0
 17 21  1  0  0  0
 17 22  1  0  0  0
  9 10  1  0  0  0
  4  5  1  0  0  0
 32 33  1  0  0  0
 56 59  1  0  0  0
 37 38  1  0  0  0
 41 43  1  0  0  0
M  END
> <minimizedAffinity>
-10.62429

> <CNNscore>
0.1996759176

> <CNNaffinity>
7.0156488419

> <CNN_VS>
1.4008561373

> <CNNaffinity_variance>
1.7305244207

$$$$
[H]OC(=O)[C@@]([H])(N([H])C(=O)[C@@]([H])(N([H])C(=O)[C@@]([H])(N([H])C(=O)[C@@]([H])(N([H])C(=O)c1c([H])c([H])c(S(=O)(=O)N([H])[H])c([H])c1[H])C([H])([H])c1c([H])c([H])c([H])c([H])c1[H])C([H])([H])c1c([H])c([H])c([H])c([H])c1[H])C([H])([H])c1c([H])c([H])c(O[H])c([H])c1[H])C([H])([H])c1c([H])c([H])c([H])c([H])c1[H]


 66 70  0  0  0  0  0  0  0  0999 V2000
  -18.3547   16.7031  -19.0148 C   0  0  0  0  0  0  0  0  0  0  0  0
  -18.4094   14.2405  -18.3427 C   0  0  0  0  0  0  0  0  0  0  0  0
  -18.0930   14.3610  -17.1107 O   0  0  0  0  0  0  0  0  0  0  0  0
  -18.5292   15.3283  -19.2154 N   0  0  0  0  0  0  0  0  0  0  0  0
  -18.7962   15.0394  -20.2252 H   0  0  0  0  0  0  0  0  0  0  0  0
  -18.6389   12.8458  -18.7850 C   0  0  0  0  0  0  0  0  0  0  0  0
  -19.1819   10.8074  -17.4528 C   0  0  0  0  0  0  0  0  0  0  0  0
  -18.1175   10.2342  -17.8197 O   0  0  0  0  0  0  0  0  0  0  0  0
  -19.4836   12.1038  -17.8984 N   0  0  0  0  0  0  0  0  0  0  0  0
  -20.3588   12.5751  -17.5797 H   0  0  0  0  0  0  0  0  0  0  0  0
  -21.8320    8.6904  -14.8794 C   0  0  0  0  0  0  0  0  0  0  0  0
  -20.6174    8.1196  -15.2642 C   0  0  0  0  0  0  0  0  0  0  0  0
  -19.7648    8.8166  -16.0923 C   0  0  0  0  0  0  0  0  0  0  0  0
  -20.0668   10.0798  -16.5673 C   0  0  0  0  0  0  0  0  0  0  0  0
  -21.2609   10.6369  -16.1875 C   0  0  0  0  0  0  0  0  0  0  0  0
  -22.1298    9.9398  -15.3496 C   0  0  0  0  0  0  0  0  0  0  0  0
  -22.5617    8.2298  -12.1874 N   0  0  0  0  0  0  0  0  0  0  0  0
  -22.9406    7.8347  -13.8435 S   0  0  0  0  0  0  0  0  0  0  0  0
  -22.9120    6.3627  -14.0806 O   0  0  0  0  0  0  0  0  0  0  0  0
  -24.3318    8.3669  -14.0902 O   0  0  0  0  0  0  0  0  0  0  0  0
  -23.0720    7.6045  -11.5440 H   0  0  0  0  0  0  0  0  0  0  0  0
  -22.8308    9.2091  -11.9989 H   0  0  0  0  0  0  0  0  0  0  0  0
  -18.9247   12.6284  -20.2201 C   0  0  0  0  0  0  0  0  0  0  0  0
  -17.8006   12.3783  -21.1112 C   0  0  0  0  0  0  0  0  0  0  0  0
  -16.9691   11.3109  -20.8189 C   0  0  0  0  0  0  0  0  0  0  0  0
  -15.8664   10.9899  -21.5556 C   0  0  0  0  0  0  0  0  0  0  0  0
  -15.5483   11.7568  -22.6501 C   0  0  0  0  0  0  0  0  0  0  0  0
  -16.3650   12.8300  -22.9624 C   0  0  0  0  0  0  0  0  0  0  0  0
  -17.4744   13.1389  -22.2079 C   0  0  0  0  0  0  0  0  0  0  0  0
  -19.5901   17.4100  -18.5731 C   0  0  0  0  0  0  0  0  0  0  0  0
  -20.7109   16.8557  -18.8251 O   0  0  0  0  0  0  0  0  0  0  0  0
  -19.4733   18.6291  -17.9070 N   0  0  0  0  0  0  0  0  0  0  0  0
  -18.5440   19.0424  -17.7053 H   0  0  0  0  0  0  0  0  0  0  0  0
  -20.6106   19.4101  -17.4308 C   0  0  0  0  0  0  0  0  0  0  0  0
  -21.4230   19.9566  -18.4979 C   0  0  0  0  0  0  0  0  0  0  0  0
  -20.9122   20.9357  -19.1561 O   0  0  0  0  0  0  0  0  0  0  0  0
  -22.6902   19.5455  -18.8961 N   0  0  0  0  0  0  0  0  0  0  0  0
  -23.1848   18.7851  -18.4200 H   0  0  0  0  0  0  0  0  0  0  0  0
  -23.3640   20.1999  -20.0291 C   0  0  0  0  0  0  0  0  0  0  0  0
  -24.4676   21.0545  -19.5484 C   0  0  0  0  0  0  0  0  0  0  0  0
  -24.4598   21.6970  -18.2980 O   0  0  0  0  0  0  0  0  0  0  0  0
  -25.5218   21.2775  -20.2308 O   0  0  0  0  0  0  0  0  0  0  0  0
  -24.0415   21.2352  -17.4934 H   0  0  0  0  0  0  0  0  0  0  0  0
  -23.8279   19.0815  -20.9149 C   0  0  0  0  0  0  0  0  0  0  0  0
  -23.3785   19.1286  -22.2996 C   0  0  0  0  0  0  0  0  0  0  0  0
  -22.5242   18.1496  -22.7589 C   0  0  0  0  0  0  0  0  0  0  0  0
  -22.0893   18.1468  -24.0707 C   0  0  0  0  0  0  0  0  0  0  0  0
  -22.5126   19.1346  -24.9379 C   0  0  0  0  0  0  0  0  0  0  0  0
  -23.3710   20.1315  -24.5076 C   0  0  0  0  0  0  0  0  0  0  0  0
  -23.7853   20.0976  -23.1774 C   0  0  0  0  0  0  0  0  0  0  0  0
  -20.2583   20.2518  -16.2673 C   0  0  0  0  0  0  0  0  0  0  0  0
  -20.4973   19.7418  -14.9329 C   0  0  0  0  0  0  0  0  0  0  0  0
  -19.6366   18.8414  -14.3542 C   0  0  0  0  0  0  0  0  0  0  0  0
  -19.8703   18.3616  -13.0569 C   0  0  0  0  0  0  0  0  0  0  0  0
  -20.9421   18.7617  -12.3287 C   0  0  0  0  0  0  0  0  0  0  0  0
  -21.1353   18.2685  -11.0583 O   0  0  0  0  0  0  0  0  0  0  0  0
  -21.8299   19.6790  -12.9035 C   0  0  0  0  0  0  0  0  0  0  0  0
  -21.6046   20.1509  -14.1745 C   0  0  0  0  0  0  0  0  0  0  0  0
  -21.8938   18.5045  -10.4487 H   0  0  0  0  0  0  0  0  0  0  0  0
  -17.6193   17.5235  -20.0204 C   0  0  0  0  0  0  0  0  0  0  0  0
  -17.6814   17.0970  -21.4242 C   0  0  0  0  0  0  0  0  0  0  0  0
  -18.8128   16.9135  -22.1547 C   0  0  0  0  0  0  0  0  0  0  0  0
  -18.7714   16.5178  -23.5003 C   0  0  0  0  0  0  0  0  0  0  0  0
  -17.5976   16.2924  -24.1595 C   0  0  0  0  0  0  0  0  0  0  0  0
  -16.4273   16.4738  -23.4297 C   0  0  0  0  0  0  0  0  0  0  0  0
  -16.4772   16.8588  -22.1223 C   0  0  0  0  0  0  0  0  0  0  0  0
 17 18  1  0  0  0
 18 19  2  0  0  0
 18 20  2  0  0  0
 18 11  1  0  0  0
 11 12  2  0  0  0
 12 13  1  0  0  0
 13 14  2  0  0  0
 14 15  1  0  0  0
 15 16  2  0  0  0
 14  7  1  0  0  0
  7  8  2  0  0  0
  7  9  1  0  0  0
  9  6  1  0  0  0
  6 23  1  0  0  0
 23 24  1  0  0  0
 24 25  2  0  0  0
 25 26  1  0  0  0
 26 27  2  0  0  0
 27 28  1  0  0  0
 28 29  2  0  0  0
  6  2  1  0  0  0
  2  3  2  0  0  0
  2  4  1  0  0  0
  4  1  1  0  0  0
  1 60  1  0  0  0
 60 61  1  0  0  0
 61 62  2  0  0  0
 62 63  1  0  0  0
 63 64  2  0  0  0
 64 65  1  0  0  0
 65 66  2  0  0  0
  1 30  1  0  0  0
 30 31  2  0  0  0
 30 32  1  0  0  0
 32 34  1  0  0  0
 34 51  1  0  0  0
 51 52  1  0  0  0
 52 53  2  0  0  0
 53 54  1  0  0  0
 54 55  2  0  0  0
 55 56  1  0  0  0
 55 57  1  0  0  0
 57 58  2  0  0  0
 34 35  1  0  0  0
 35 36  2  0  0  0
 35 37  1  0  0  0
 37 39  1  0  0  0
 39 44  1  0  0  0
 44 45  1  0  0  0
 45 46  2  0  0  0
 46 47  1  0  0  0
 47 48  2  0  0  0
 48 49  1  0  0  0
 49 50  2  0  0  0
 39 40  1  0  0  0
 40 41  1  0  0  0
 40 42  2  0  0  0
 16 11  1  0  0  0
 29 24  1  0  0  0
 66 61  1  0  0  0
 58 52  1  0  0  0
 50 45  1  0  0  0
 17 21  1  0  0  0
 17 22  1  0  0  0
  9 10  1  0  0  0
  4  5  1  0  0  0
 32 33  1  0  0  0
 56 59  1  0  0  0
 37 38  1  0  0  0
 41 43  1  0  0  0
M  END
> <minimizedAffinity>
-8.60703

> <CNNscore>
0.1871020049

> <CNNaffinity>
7.1296920776

> <CNN_VS>
1.3339797258

> <CNNaffinity_variance>
0.5868215561

$$$$
[H]OC(=O)[C@@]([H])(N([H])C(=O)[C@@]([H])(N([H])C(=O)[C@@]([H])(N([H])C(=O)[C@@]([H])(N([H])C(=O)c1c([H])c([H])c(S(=O)(=O)N([H])[H])c([H])c1[H])C([H])([H])c1c([H])c([H])c([H])c([H])c1[H])C([H])([H])c1c([H])c([H])c([H])c([H])c1[H])C([H])([H])c1c([H])c([H])c(O[H])c([H])c1[H])C([H])([H])c1c([H])c([H])c([H])c([H])c1[H]


 66 70  0  0  0  0  0  0  0  0999 V2000
  -17.4463   14.8052  -20.2843 C   0  0  0  0  0  0  0  0  0  0  0  0
  -19.1104   15.8393  -18.6471 C   0  0  0  0  0  0  0  0  0  0  0  0
  -19.6552   16.6930  -19.4261 O   0  0  0  0  0  0  0  0  0  0  0  0
  -18.0909   14.9700  -19.0522 N   0  0  0  0  0  0  0  0  0  0  0  0
  -17.7415   14.3206  -18.2580 H   0  0  0  0  0  0  0  0  0  0  0  0
  -19.6422   15.8412  -17.2648 C   0  0  0  0  0  0  0  0  0  0  0  0
  -20.2016   13.4141  -17.1220 C   0  0  0  0  0  0  0  0  0  0  0  0
  -20.8820   13.4664  -18.1852 O   0  0  0  0  0  0  0  0  0  0  0  0
  -19.5625   14.5617  -16.6272 N   0  0  0  0  0  0  0  0  0  0  0  0
  -18.9913   14.5064  -15.7552 H   0  0  0  0  0  0  0  0  0  0  0  0
  -19.9879    9.6766  -15.0939 C   0  0  0  0  0  0  0  0  0  0  0  0
  -19.6309    9.7692  -16.4404 C   0  0  0  0  0  0  0  0  0  0  0  0
  -19.6980   10.9852  -17.0847 C   0  0  0  0  0  0  0  0  0  0  0  0
  -20.1118   12.1383  -16.4431 C   0  0  0  0  0  0  0  0  0  0  0  0
  -20.4620   12.0432  -15.1206 C   0  0  0  0  0  0  0  0  0  0  0  0
  -20.3970   10.8175  -14.4599 C   0  0  0  0  0  0  0  0  0  0  0  0
  -18.7058    8.2622  -13.0088 N   0  0  0  0  0  0  0  0  0  0  0  0
  -19.9274    8.1543  -14.2492 S   0  0  0  0  0  0  0  0  0  0  0  0
  -19.6797    7.0079  -15.1702 O   0  0  0  0  0  0  0  0  0  0  0  0
  -21.2381    7.9574  -13.5261 O   0  0  0  0  0  0  0  0  0  0  0  0
  -18.5137    7.3286  -12.6130 H   0  0  0  0  0  0  0  0  0  0  0  0
  -19.0343    8.8917  -12.2586 H   0  0  0  0  0  0  0  0  0  0  0  0
  -19.2656   16.9775  -16.3956 C   0  0  0  0  0  0  0  0  0  0  0  0
  -20.1958   17.3753  -15.3484 C   0  0  0  0  0  0  0  0  0  0  0  0
  -19.7252   18.2084  -14.3482 C   0  0  0  0  0  0  0  0  0  0  0  0
  -20.4855   18.6276  -13.2955 C   0  0  0  0  0  0  0  0  0  0  0  0
  -21.7912   18.2096  -13.2069 C   0  0  0  0  0  0  0  0  0  0  0  0
  -22.2846   17.3757  -14.1955 C   0  0  0  0  0  0  0  0  0  0  0  0
  -21.5028   16.9632  -15.2511 C   0  0  0  0  0  0  0  0  0  0  0  0
  -17.2512   16.0761  -21.0379 C   0  0  0  0  0  0  0  0  0  0  0  0
  -16.3676   16.8891  -20.6077 O   0  0  0  0  0  0  0  0  0  0  0  0
  -18.0274   16.3201  -22.1700 N   0  0  0  0  0  0  0  0  0  0  0  0
  -18.7259   15.6284  -22.4996 H   0  0  0  0  0  0  0  0  0  0  0  0
  -17.9253   17.5274  -22.9837 C   0  0  0  0  0  0  0  0  0  0  0  0
  -19.1158   18.3511  -22.9465 C   0  0  0  0  0  0  0  0  0  0  0  0
  -19.1329   19.3609  -23.7419 O   0  0  0  0  0  0  0  0  0  0  0  0
  -20.2443   18.1771  -22.1529 N   0  0  0  0  0  0  0  0  0  0  0  0
  -20.3148   17.4111  -21.4763 H   0  0  0  0  0  0  0  0  0  0  0  0
  -21.3845   19.1007  -22.2663 C   0  0  0  0  0  0  0  0  0  0  0  0
  -21.6700   19.7292  -20.9613 C   0  0  0  0  0  0  0  0  0  0  0  0
  -21.0530   19.3344  -19.7615 O   0  0  0  0  0  0  0  0  0  0  0  0
  -22.5043   20.6830  -20.8170 O   0  0  0  0  0  0  0  0  0  0  0  0
  -20.8375   18.3528  -19.6013 H   0  0  0  0  0  0  0  0  0  0  0  0
  -22.5211   18.2671  -22.7800 C   0  0  0  0  0  0  0  0  0  0  0  0
  -22.8403   18.4152  -24.1933 C   0  0  0  0  0  0  0  0  0  0  0  0
  -23.2616   17.3114  -24.9028 C   0  0  0  0  0  0  0  0  0  0  0  0
  -23.5925   17.4128  -26.2407 C   0  0  0  0  0  0  0  0  0  0  0  0
  -23.5025   18.6328  -26.8812 C   0  0  0  0  0  0  0  0  0  0  0  0
  -23.0834   19.7604  -26.1965 C   0  0  0  0  0  0  0  0  0  0  0  0
  -22.7591   19.6147  -24.8490 C   0  0  0  0  0  0  0  0  0  0  0  0
  -17.2444   17.2734  -24.2714 C   0  0  0  0  0  0  0  0  0  0  0  0
  -17.2418   15.9297  -24.8119 C   0  0  0  0  0  0  0  0  0  0  0  0
  -18.2744   15.0612  -24.5554 C   0  0  0  0  0  0  0  0  0  0  0  0
  -18.2686   13.7654  -25.0926 C   0  0  0  0  0  0  0  0  0  0  0  0
  -17.2561   13.3214  -25.8780 C   0  0  0  0  0  0  0  0  0  0  0  0
  -17.2883   12.0430  -26.3871 O   0  0  0  0  0  0  0  0  0  0  0  0
  -16.1951   14.1935  -26.1493 C   0  0  0  0  0  0  0  0  0  0  0  0
  -16.1971   15.4638  -25.6243 C   0  0  0  0  0  0  0  0  0  0  0  0
  -16.5896   11.6294  -26.9731 H   0  0  0  0  0  0  0  0  0  0  0  0
  -17.8601   13.7115  -21.2104 C   0  0  0  0  0  0  0  0  0  0  0  0
  -17.2357   12.3946  -21.0312 C   0  0  0  0  0  0  0  0  0  0  0  0
  -16.3366   11.8152  -21.8697 C   0  0  0  0  0  0  0  0  0  0  0  0
  -15.7806   10.5543  -21.6054 C   0  0  0  0  0  0  0  0  0  0  0  0
  -16.1056    9.8313  -20.4941 C   0  0  0  0  0  0  0  0  0  0  0  0
  -17.0252   10.4058  -19.6227 C   0  0  0  0  0  0  0  0  0  0  0  0
  -17.5601   11.6320  -19.8877 C   0  0  0  0  0  0  0  0  0  0  0  0
 17 18  1  0  0  0
 18 19  2  0  0  0
 18 20  2  0  0  0
 18 11  1  0  0  0
 11 12  2  0  0  0
 12 13  1  0  0  0
 13 14  2  0  0  0
 14 15  1  0  0  0
 15 16  2  0  0  0
 14  7  1  0  0  0
  7  8  2  0  0  0
  7  9  1  0  0  0
  9  6  1  0  0  0
  6 23  1  0  0  0
 23 24  1  0  0  0
 24 25  2  0  0  0
 25 26  1  0  0  0
 26 27  2  0  0  0
 27 28  1  0  0  0
 28 29  2  0  0  0
  6  2  1  0  0  0
  2  3  2  0  0  0
  2  4  1  0  0  0
  4  1  1  0  0  0
  1 60  1  0  0  0
 60 61  1  0  0  0
 61 62  2  0  0  0
 62 63  1  0  0  0
 63 64  2  0  0  0
 64 65  1  0  0  0
 65 66  2  0  0  0
  1 30  1  0  0  0
 30 31  2  0  0  0
 30 32  1  0  0  0
 32 34  1  0  0  0
 34 51  1  0  0  0
 51 52  1  0  0  0
 52 53  2  0  0  0
 53 54  1  0  0  0
 54 55  2  0  0  0
 55 56  1  0  0  0
 55 57  1  0  0  0
 57 58  2  0  0  0
 34 35  1  0  0  0
 35 36  2  0  0  0
 35 37  1  0  0  0
 37 39  1  0  0  0
 39 44  1  0  0  0
 44 45  1  0  0  0
 45 46  2  0  0  0
 46 47  1  0  0  0
 47 48  2  0  0  0
 48 49  1  0  0  0
 49 50  2  0  0  0
 39 40  1  0  0  0
 40 41  1  0  0  0
 40 42  2  0  0  0
 16 11  1  0  0  0
 29 24  1  0  0  0
 66 61  1  0  0  0
 58 52  1  0  0  0
 50 45  1  0  0  0
 17 21  1  0  0  0
 17 22  1  0  0  0
  9 10  1  0  0  0
  4  5  1  0  0  0
 32 33  1  0  0  0
 56 59  1  0  0  0
 37 38  1  0  0  0
 41 43  1  0  0  0
M  END
> <minimizedAffinity>
-10.52158

> <CNNscore>
0.1803047657

> <CNNaffinity>
7.2044143677

> <CNN_VS>
1.2989902496

> <CNNaffinity_variance>
1.3704698086

$$$$
[H]N=C(N([H])[H])N([H])C([H])([H])C([H])([H])C([H])([H])[C@@]([H])(C(=O)N([H])[C@]([H])(C(=O)N([H])[C@]([H])(C(=N[H])N([H])[H])C([H])([H])c1c([H])c([H])c([H])c([H])c1[H])C([H])([H])C(=O)O[H])N([H])C(=O)[C@@]([H])(N([H])[H])C([H])([H])c1c([H])c([H])c([H])c([H])c1[H]


 55 56  0  0  0  0  0  0  0  0999 V2000
  -19.4690   14.9320  -20.3411 C   0  0  0  0  0  0  0  0  0  0  0  0
  -20.7210   15.0156  -20.1826 O   0  0  0  0  0  0  0  0  0  0  0  0
  -18.7215   16.1131  -20.4007 N   0  0  0  0  0  0  0  0  0  0  0  0
  -17.7023   16.0922  -20.5305 H   0  0  0  0  0  0  0  0  0  0  0  0
  -18.7924   13.6196  -20.4620 C   0  0  0  0  0  0  0  0  0  0  0  0
  -17.7695   13.7239  -21.4586 N   0  0  0  0  0  0  0  0  0  0  0  0
  -17.1313   12.5837  -21.9821 C   0  0  0  0  0  0  0  0  0  0  0  0
  -17.4504   11.4417  -21.5784 O   0  0  0  0  0  0  0  0  0  0  0  0
  -17.4861   14.6693  -21.8082 H   0  0  0  0  0  0  0  0  0  0  0  0
  -16.0622   12.6742  -23.0254 C   0  0  0  0  0  0  0  0  0  0  0  0
  -15.2249   11.4922  -23.0159 N   0  0  0  0  0  0  0  0  0  0  0  0
  -15.7986   10.6237  -23.1514 H   0  0  0  0  0  0  0  0  0  0  0  0
  -14.7324   11.3640  -22.1098 H   0  0  0  0  0  0  0  0  0  0  0  0
  -16.7587   12.8275  -24.3615 C   0  0  0  0  0  0  0  0  0  0  0  0
  -16.0931   13.8422  -25.2123 C   0  0  0  0  0  0  0  0  0  0  0  0
  -14.8403   14.3278  -24.9130 C   0  0  0  0  0  0  0  0  0  0  0  0
  -14.2242   15.2832  -25.7223 C   0  0  0  0  0  0  0  0  0  0  0  0
  -14.8547   15.7729  -26.8525 C   0  0  0  0  0  0  0  0  0  0  0  0
  -16.1079   15.2810  -27.1431 C   0  0  0  0  0  0  0  0  0  0  0  0
  -16.7141   14.3354  -26.3395 C   0  0  0  0  0  0  0  0  0  0  0  0
  -18.1959   13.1750  -19.1362 C   0  0  0  0  0  0  0  0  0  0  0  0
  -19.2516   12.5028  -18.2852 C   0  0  0  0  0  0  0  0  0  0  0  0
  -19.4067   13.2190  -16.9838 C   0  0  0  0  0  0  0  0  0  0  0  0
  -20.5186   14.1390  -17.0636 N   0  0  0  0  0  0  0  0  0  0  0  0
  -21.4764   13.7934  -17.2463 H   0  0  0  0  0  0  0  0  0  0  0  0
  -21.1884   16.4996  -17.3240 N   0  0  0  0  0  0  0  0  0  0  0  0
  -20.2449   15.5339  -16.8805 C   0  0  0  0  0  0  0  0  0  0  0  0
  -19.1416   15.8581  -16.3143 N   0  0  0  0  0  0  0  0  0  0  0  0
  -21.5580   17.1837  -16.6457 H   0  0  0  0  0  0  0  0  0  0  0  0
  -21.4818   16.4931  -18.3142 H   0  0  0  0  0  0  0  0  0  0  0  0
  -18.9354   16.8625  -16.1776 H   0  0  0  0  0  0  0  0  0  0  0  0
  -19.3404   17.4549  -20.2823 C   0  0  0  0  0  0  0  0  0  0  0  0
  -19.4960   18.0547  -21.6101 C   0  0  0  0  0  0  0  0  0  0  0  0
  -18.9248   17.5080  -22.6027 O   0  0  0  0  0  0  0  0  0  0  0  0
  -20.2532   19.2062  -21.8332 N   0  0  0  0  0  0  0  0  0  0  0  0
  -20.7634   19.7216  -21.0883 H   0  0  0  0  0  0  0  0  0  0  0  0
  -20.4093   19.8048  -23.1734 C   0  0  0  0  0  0  0  0  0  0  0  0
  -19.4847   20.9304  -23.3393 C   0  0  0  0  0  0  0  0  0  0  0  0
  -19.0108   21.6949  -22.2540 N   0  0  0  0  0  0  0  0  0  0  0  0
  -19.0680   21.2590  -24.5233 N   0  0  0  0  0  0  0  0  0  0  0  0
  -19.0592   22.7499  -22.3913 H   0  0  0  0  0  0  0  0  0  0  0  0
  -18.6338   21.3537  -21.3635 H   0  0  0  0  0  0  0  0  0  0  0  0
  -18.4097   22.0516  -24.6982 H   0  0  0  0  0  0  0  0  0  0  0  0
  -21.8522   20.1344  -23.4428 C   0  0  0  0  0  0  0  0  0  0  0  0
  -22.4811   19.3576  -24.5282 C   0  0  0  0  0  0  0  0  0  0  0  0
  -22.7523   18.0164  -24.3664 C   0  0  0  0  0  0  0  0  0  0  0  0
  -23.3149   17.3071  -25.3967 C   0  0  0  0  0  0  0  0  0  0  0  0
  -23.6309   17.8682  -26.6070 C   0  0  0  0  0  0  0  0  0  0  0  0
  -23.3591   19.2215  -26.7758 C   0  0  0  0  0  0  0  0  0  0  0  0
  -22.7960   19.9288  -25.7425 C   0  0  0  0  0  0  0  0  0  0  0  0
  -18.4271   18.2160  -19.3496 C   0  0  0  0  0  0  0  0  0  0  0  0
  -19.0208   19.3832  -18.6994 C   0  0  0  0  0  0  0  0  0  0  0  0
  -18.9547   20.6403  -19.2717 O   0  0  0  0  0  0  0  0  0  0  0  0
  -19.6173   19.2832  -17.5855 O   0  0  0  0  0  0  0  0  0  0  0  0
  -18.9822   20.8466  -20.2449 H   0  0  0  0  0  0  0  0  0  0  0  0
 26 27  1  0  0  0
 27 28  2  0  0  0
 27 24  1  0  0  0
 24 23  1  0  0  0
 23 22  1  0  0  0
 22 21  1  0  0  0
 21  5  1  0  0  0
  5  6  1  0  0  0
  6  7  1  0  0  0
  7  8  2  0  0  0
  7 10  1  0  0  0
 10 11  1  0  0  0
 10 14  1  0  0  0
 14 15  1  0  0  0
 15 16  2  0  0  0
 16 17  1  0  0  0
 17 18  2  0  0  0
 18 19  1  0  0  0
 19 20  2  0  0  0
  5  1  1  0  0  0
  1  2  2  0  0  0
  1  3  1  0  0  0
  3 32  1  0  0  0
 32 51  1  0  0  0
 51 52  1  0  0  0
 52 53  1  0  0  0
 52 54  2  0  0  0
 32 33  1  0  0  0
 33 34  2  0  0  0
 33 35  1  0  0  0
 35 37  1  0  0  0
 37 44  1  0  0  0
 44 45  1  0  0  0
 45 46  2  0  0  0
 46 47  1  0  0  0
 47 48  2  0  0  0
 48 49  1  0  0  0
 49 50  2  0  0  0
 37 38  1  0  0  0
 38 39  1  0  0  0
 38 40  2  0  0  0
 20 15  1  0  0  0
 50 45  1  0  0  0
 26 29  1  0  0  0
 26 30  1  0  0  0
 28 31  1  0  0  0
 24 25  1  0  0  0
  6  9  1  0  0  0
 11 12  1  0  0  0
 11 13  1  0  0  0
  3  4  1  0  0  0
 53 55  1  0  0  0
 35 36  1  0  0  0
 39 41  1  0  0  0
 39 42  1  0  0  0
 40 43  1  0  0  0
M  END
> <minimizedAffinity>
-8.03820

> <CNNscore>
0.2976909578

> <CNNaffinity>
6.7379517555

> <CNN_VS>
2.0058274269

> <CNNaffinity_variance>
0.3972812593

$$$$
[H]N=C(N([H])[H])N([H])C([H])([H])C([H])([H])C([H])([H])[C@@]([H])(C(=O)N([H])[C@]([H])(C(=O)N([H])[C@]([H])(C(=N[H])N([H])[H])C([H])([H])c1c([H])c([H])c([H])c([H])c1[H])C([H])([H])C(=O)O[H])N([H])C(=O)[C@@]([H])(N([H])[H])C([H])([H])c1c([H])c([H])c([H])c([H])c1[H]


 55 56  0  0  0  0  0  0  0  0999 V2000
  -19.8057   14.2242  -20.0711 C   0  0  0  0  0  0  0  0  0  0  0  0
  -21.0361   13.9717  -19.9225 O   0  0  0  0  0  0  0  0  0  0  0  0
  -19.4143   15.5526  -20.2696 N   0  0  0  0  0  0  0  0  0  0  0  0
  -18.4257   15.8029  -20.3970 H   0  0  0  0  0  0  0  0  0  0  0  0
  -18.7878   13.1484  -20.0376 C   0  0  0  0  0  0  0  0  0  0  0  0
  -17.7707   13.4528  -20.9986 N   0  0  0  0  0  0  0  0  0  0  0  0
  -17.3154   12.4910  -21.9199 C   0  0  0  0  0  0  0  0  0  0  0  0
  -17.7977   11.3349  -21.9144 O   0  0  0  0  0  0  0  0  0  0  0  0
  -17.3525   14.4125  -21.0188 H   0  0  0  0  0  0  0  0  0  0  0  0
  -16.2552   12.7925  -22.9323 C   0  0  0  0  0  0  0  0  0  0  0  0
  -15.2572   11.7433  -22.9684 N   0  0  0  0  0  0  0  0  0  0  0  0
  -15.6983   10.8112  -23.1642 H   0  0  0  0  0  0  0  0  0  0  0  0
  -14.7647   11.6348  -22.0598 H   0  0  0  0  0  0  0  0  0  0  0  0
  -16.9469   12.9214  -24.2734 C   0  0  0  0  0  0  0  0  0  0  0  0
  -16.2359   13.8659  -25.1673 C   0  0  0  0  0  0  0  0  0  0  0  0
  -15.0119   14.3981  -24.8305 C   0  0  0  0  0  0  0  0  0  0  0  0
  -14.3525   15.2864  -25.6810 C   0  0  0  0  0  0  0  0  0  0  0  0
  -14.9096   15.6605  -26.8911 C   0  0  0  0  0  0  0  0  0  0  0  0
  -16.1346   15.1228  -27.2187 C   0  0  0  0  0  0  0  0  0  0  0  0
  -16.7839   14.2439  -26.3741 C   0  0  0  0  0  0  0  0  0  0  0  0
  -18.1791   12.9990  -18.6525 C   0  0  0  0  0  0  0  0  0  0  0  0
  -17.9064   11.5405  -18.3541 C   0  0  0  0  0  0  0  0  0  0  0  0
  -19.1652   10.8467  -17.9484 C   0  0  0  0  0  0  0  0  0  0  0  0
  -19.0685   10.4302  -16.5677 N   0  0  0  0  0  0  0  0  0  0  0  0
  -19.0427   11.1305  -15.8066 H   0  0  0  0  0  0  0  0  0  0  0  0
  -20.1748    8.3481  -15.8397 N   0  0  0  0  0  0  0  0  0  0  0  0
  -19.0115    9.0238  -16.2975 C   0  0  0  0  0  0  0  0  0  0  0  0
  -17.8943    8.4235  -16.4832 N   0  0  0  0  0  0  0  0  0  0  0  0
  -20.5225    7.5365  -16.3738 H   0  0  0  0  0  0  0  0  0  0  0  0
  -20.6445    8.6859  -14.9843 H   0  0  0  0  0  0  0  0  0  0  0  0
  -17.8435    7.4083  -16.2911 H   0  0  0  0  0  0  0  0  0  0  0  0
  -20.3850   16.6722  -20.3092 C   0  0  0  0  0  0  0  0  0  0  0  0
  -20.1959   17.4573  -21.5318 C   0  0  0  0  0  0  0  0  0  0  0  0
  -19.6664   16.9029  -22.5431 O   0  0  0  0  0  0  0  0  0  0  0  0
  -20.5789   18.7960  -21.6350 N   0  0  0  0  0  0  0  0  0  0  0  0
  -21.0258   19.3352  -20.8666 H   0  0  0  0  0  0  0  0  0  0  0  0
  -20.3890   19.5817  -22.8700 C   0  0  0  0  0  0  0  0  0  0  0  0
  -19.3243   20.5724  -22.6847 C   0  0  0  0  0  0  0  0  0  0  0  0
  -18.3544   20.4689  -21.6671 N   0  0  0  0  0  0  0  0  0  0  0  0
  -19.2467   21.5975  -23.4762 N   0  0  0  0  0  0  0  0  0  0  0  0
  -18.1876   21.3622  -21.1117 H   0  0  0  0  0  0  0  0  0  0  0  0
  -17.8041   19.6438  -21.4066 H   0  0  0  0  0  0  0  0  0  0  0  0
  -18.5091   22.3328  -23.3890 H   0  0  0  0  0  0  0  0  0  0  0  0
  -21.6986   20.1507  -23.3438 C   0  0  0  0  0  0  0  0  0  0  0  0
  -22.3482   19.4034  -24.4377 C   0  0  0  0  0  0  0  0  0  0  0  0
  -22.7409   20.0461  -25.5914 C   0  0  0  0  0  0  0  0  0  0  0  0
  -23.3652   19.3375  -26.5861 C   0  0  0  0  0  0  0  0  0  0  0  0
  -23.6275   17.9948  -26.4971 C   0  0  0  0  0  0  0  0  0  0  0  0
  -23.2335   17.3411  -25.3347 C   0  0  0  0  0  0  0  0  0  0  0  0
  -22.6087   18.0532  -24.3409 C   0  0  0  0  0  0  0  0  0  0  0  0
  -20.1423   17.4338  -19.0269 C   0  0  0  0  0  0  0  0  0  0  0  0
  -18.7752   17.9117  -18.8266 C   0  0  0  0  0  0  0  0  0  0  0  0
  -17.7852   17.0824  -18.3322 O   0  0  0  0  0  0  0  0  0  0  0  0
  -18.4494   19.1060  -19.0991 O   0  0  0  0  0  0  0  0  0  0  0  0
  -17.6935   16.1067  -18.5052 H   0  0  0  0  0  0  0  0  0  0  0  0
 26 27  1  0  0  0
 27 28  2  0  0  0
 27 24  1  0  0  0
 24 23  1  0  0  0
 23 22  1  0  0  0
 22 21  1  0  0  0
 21  5  1  0  0  0
  5  6  1  0  0  0
  6  7  1  0  0  0
  7  8  2  0  0  0
  7 10  1  0  0  0
 10 11  1  0  0  0
 10 14  1  0  0  0
 14 15  1  0  0  0
 15 16  2  0  0  0
 16 17  1  0  0  0
 17 18  2  0  0  0
 18 19  1  0  0  0
 19 20  2  0  0  0
  5  1  1  0  0  0
  1  2  2  0  0  0
  1  3  1  0  0  0
  3 32  1  0  0  0
 32 51  1  0  0  0
 51 52  1  0  0  0
 52 53  1  0  0  0
 52 54  2  0  0  0
 32 33  1  0  0  0
 33 34  2  0  0  0
 33 35  1  0  0  0
 35 37  1  0  0  0
 37 44  1  0  0  0
 44 45  1  0  0  0
 45 46  2  0  0  0
 46 47  1  0  0  0
 47 48  2  0  0  0
 48 49  1  0  0  0
 49 50  2  0  0  0
 37 38  1  0  0  0
 38 39  1  0  0  0
 38 40  2  0  0  0
 20 15  1  0  0  0
 50 45  1  0  0  0
 26 29  1  0  0  0
 26 30  1  0  0  0
 28 31  1  0  0  0
 24 25  1  0  0  0
  6  9  1  0  0  0
 11 12  1  0  0  0
 11 13  1  0  0  0
  3  4  1  0  0  0
 53 55  1  0  0  0
 35 36  1  0  0  0
 39 41  1  0  0  0
 39 42  1  0  0  0
 40 43  1  0  0  0
M  END
> <minimizedAffinity>
-8.48075

> <CNNscore>
0.2955645621

> <CNNaffinity>
6.7864708900

> <CNN_VS>
2.0058403015

> <CNNaffinity_variance>
0.2672273517

$$$$
[H]N=C(N([H])[H])N([H])C([H])([H])C([H])([H])C([H])([H])[C@@]([H])(C(=O)N([H])[C@]([H])(C(=O)N([H])[C@]([H])(C(=N[H])N([H])[H])C([H])([H])c1c([H])c([H])c([H])c([H])c1[H])C([H])([H])C(=O)O[H])N([H])C(=O)[C@@]([H])(N([H])[H])C([H])([H])c1c([H])c([H])c([H])c([H])c1[H]


 55 56  0  0  0  0  0  0  0  0999 V2000
  -19.9154   13.9261  -19.9075 C   0  0  0  0  0  0  0  0  0  0  0  0
  -21.1593   13.7027  -19.9582 O   0  0  0  0  0  0  0  0  0  0  0  0
  -19.4777   15.2482  -19.7739 N   0  0  0  0  0  0  0  0  0  0  0  0
  -18.4764   15.4756  -19.7310 H   0  0  0  0  0  0  0  0  0  0  0  0
  -18.9296   12.8231  -19.9858 C   0  0  0  0  0  0  0  0  0  0  0  0
  -17.9271   13.1746  -20.9460 N   0  0  0  0  0  0  0  0  0  0  0  0
  -17.1932   12.1932  -21.6386 C   0  0  0  0  0  0  0  0  0  0  0  0
  -17.4061   10.9778  -21.4228 O   0  0  0  0  0  0  0  0  0  0  0  0
  -17.7318   14.1848  -21.1397 H   0  0  0  0  0  0  0  0  0  0  0  0
  -16.1439   12.5426  -22.6467 C   0  0  0  0  0  0  0  0  0  0  0  0
  -15.2605   11.4203  -22.8883 N   0  0  0  0  0  0  0  0  0  0  0  0
  -15.8014   10.5758  -23.1980 H   0  0  0  0  0  0  0  0  0  0  0  0
  -14.7502   11.1275  -22.0317 H   0  0  0  0  0  0  0  0  0  0  0  0
  -16.8653   12.9408  -23.9175 C   0  0  0  0  0  0  0  0  0  0  0  0
  -16.6798   14.3789  -24.2243 C   0  0  0  0  0  0  0  0  0  0  0  0
  -17.7315   15.2665  -24.1931 C   0  0  0  0  0  0  0  0  0  0  0  0
  -17.5437   16.6183  -24.4841 C   0  0  0  0  0  0  0  0  0  0  0  0
  -16.2926   17.1091  -24.8136 C   0  0  0  0  0  0  0  0  0  0  0  0
  -15.2471   16.2129  -24.8424 C   0  0  0  0  0  0  0  0  0  0  0  0
  -15.4372   14.8758  -24.5537 C   0  0  0  0  0  0  0  0  0  0  0  0
  -18.2928   12.5466  -18.6333 C   0  0  0  0  0  0  0  0  0  0  0  0
  -18.6188   11.1406  -18.1777 C   0  0  0  0  0  0  0  0  0  0  0  0
  -19.6623   11.1670  -17.1095 C   0  0  0  0  0  0  0  0  0  0  0  0
  -19.8008   12.5114  -16.5971 N   0  0  0  0  0  0  0  0  0  0  0  0
  -19.0167   13.1833  -16.6615 H   0  0  0  0  0  0  0  0  0  0  0  0
  -21.3049   14.2300  -15.6628 N   0  0  0  0  0  0  0  0  0  0  0  0
  -21.0541   12.8734  -16.0035 C   0  0  0  0  0  0  0  0  0  0  0  0
  -21.9116   11.9424  -15.8011 N   0  0  0  0  0  0  0  0  0  0  0  0
  -22.1363   14.6974  -16.0567 H   0  0  0  0  0  0  0  0  0  0  0  0
  -20.6489   14.7155  -15.0299 H   0  0  0  0  0  0  0  0  0  0  0  0
  -22.8192   12.1941  -15.3733 H   0  0  0  0  0  0  0  0  0  0  0  0
  -20.4150   16.3932  -19.6868 C   0  0  0  0  0  0  0  0  0  0  0  0
  -20.2279   17.2835  -20.8354 C   0  0  0  0  0  0  0  0  0  0  0  0
  -19.7749   16.8026  -21.9189 O   0  0  0  0  0  0  0  0  0  0  0  0
  -20.5319   18.6454  -20.7912 N   0  0  0  0  0  0  0  0  0  0  0  0
  -20.9133   19.1305  -19.9544 H   0  0  0  0  0  0  0  0  0  0  0  0
  -20.3444   19.5375  -21.9521 C   0  0  0  0  0  0  0  0  0  0  0  0
  -19.1283   20.3395  -21.7870 C   0  0  0  0  0  0  0  0  0  0  0  0
  -18.0287   19.9085  -21.0175 N   0  0  0  0  0  0  0  0  0  0  0  0
  -19.0320   21.4984  -22.3624 N   0  0  0  0  0  0  0  0  0  0  0  0
  -17.6405   20.6340  -20.3413 H   0  0  0  0  0  0  0  0  0  0  0  0
  -17.5717   18.9908  -21.0354 H   0  0  0  0  0  0  0  0  0  0  0  0
  -18.1891   22.1104  -22.2780 H   0  0  0  0  0  0  0  0  0  0  0  0
  -21.5914   20.3372  -22.2139 C   0  0  0  0  0  0  0  0  0  0  0  0
  -22.4244   19.8527  -23.3313 C   0  0  0  0  0  0  0  0  0  0  0  0
  -22.1926   18.6177  -23.8966 C   0  0  0  0  0  0  0  0  0  0  0  0
  -22.9628   18.1966  -24.9504 C   0  0  0  0  0  0  0  0  0  0  0  0
  -23.9741   18.9507  -25.4869 C   0  0  0  0  0  0  0  0  0  0  0  0
  -24.2123   20.1982  -24.9204 C   0  0  0  0  0  0  0  0  0  0  0  0
  -23.4396   20.6169  -23.8655 C   0  0  0  0  0  0  0  0  0  0  0  0
  -20.1231   17.0247  -18.3454 C   0  0  0  0  0  0  0  0  0  0  0  0
  -18.9467   16.5078  -17.6480 C   0  0  0  0  0  0  0  0  0  0  0  0
  -17.6706   16.9291  -17.9742 O   0  0  0  0  0  0  0  0  0  0  0  0
  -19.0558   15.6529  -16.7184 O   0  0  0  0  0  0  0  0  0  0  0  0
  -17.4105   17.8411  -18.2757 H   0  0  0  0  0  0  0  0  0  0  0  0
 26 27  1  0  0  0
 27 28  2  0  0  0
 27 24  1  0  0  0
 24 23  1  0  0  0
 23 22  1  0  0  0
 22 21  1  0  0  0
 21  5  1  0  0  0
  5  6  1  0  0  0
  6  7  1  0  0  0
  7  8  2  0  0  0
  7 10  1  0  0  0
 10 11  1  0  0  0
 10 14  1  0  0  0
 14 15  1  0  0  0
 15 16  2  0  0  0
 16 17  1  0  0  0
 17 18  2  0  0  0
 18 19  1  0  0  0
 19 20  2  0  0  0
  5  1  1  0  0  0
  1  2  2  0  0  0
  1  3  1  0  0  0
  3 32  1  0  0  0
 32 51  1  0  0  0
 51 52  1  0  0  0
 52 53  1  0  0  0
 52 54  2  0  0  0
 32 33  1  0  0  0
 33 34  2  0  0  0
 33 35  1  0  0  0
 35 37  1  0  0  0
 37 44  1  0  0  0
 44 45  1  0  0  0
 45 46  2  0  0  0
 46 47  1  0  0  0
 47 48  2  0  0  0
 48 49  1  0  0  0
 49 50  2  0  0  0
 37 38  1  0  0  0
 38 39  1  0  0  0
 38 40  2  0  0  0
 20 15  1  0  0  0
 50 45  1  0  0  0
 26 29  1  0  0  0
 26 30  1  0  0  0
 28 31  1  0  0  0
 24 25  1  0  0  0
  6  9  1  0  0  0
 11 12  1  0  0  0
 11 13  1  0  0  0
  3  4  1  0  0  0
 53 55  1  0  0  0
 35 36  1  0  0  0
 39 41  1  0  0  0
 39 42  1  0  0  0
 40 43  1  0  0  0
M  END
> <minimizedAffinity>
-7.62038

> <CNNscore>
0.2509236336

> <CNNaffinity>
6.6660346985

> <CNN_VS>
1.6726655960

> <CNNaffinity_variance>
0.3856744170

$$$$
[H]N=C(N([H])[H])N([H])C([H])([H])C([H])([H])C([H])([H])[C@@]([H])(C(=O)N([H])[C@]([H])(C(=O)N([H])[C@]([H])(C(=N[H])N([H])[H])C([H])([H])c1c([H])c([H])c([H])c([H])c1[H])C([H])([H])C(=O)O[H])N([H])C(=O)[C@@]([H])(N([H])[H])C([H])([H])c1c([H])c([H])c([H])c([H])c1[H]


 55 56  0  0  0  0  0  0  0  0999 V2000
  -20.1251   14.6500  -19.7619 C   0  0  0  0  0  0  0  0  0  0  0  0
  -21.3235   14.2584  -19.6607 O   0  0  0  0  0  0  0  0  0  0  0  0
  -19.7827   15.9001  -19.2354 N   0  0  0  0  0  0  0  0  0  0  0  0
  -18.8216   16.2587  -19.2973 H   0  0  0  0  0  0  0  0  0  0  0  0
  -19.0936   13.8150  -20.4201 C   0  0  0  0  0  0  0  0  0  0  0  0
  -18.3461   14.6395  -21.3212 N   0  0  0  0  0  0  0  0  0  0  0  0
  -17.5639   14.0847  -22.3516 C   0  0  0  0  0  0  0  0  0  0  0  0
  -17.5059   12.8422  -22.4996 O   0  0  0  0  0  0  0  0  0  0  0  0
  -18.3789   15.6805  -21.2136 H   0  0  0  0  0  0  0  0  0  0  0  0
  -16.7786   14.9314  -23.3035 C   0  0  0  0  0  0  0  0  0  0  0  0
  -15.9067   15.8428  -22.5911 N   0  0  0  0  0  0  0  0  0  0  0  0
  -15.2636   15.3213  -21.9461 H   0  0  0  0  0  0  0  0  0  0  0  0
  -16.4344   16.5034  -21.9868 H   0  0  0  0  0  0  0  0  0  0  0  0
  -15.9736   13.9892  -24.1741 C   0  0  0  0  0  0  0  0  0  0  0  0
  -15.8863   14.4754  -25.5715 C   0  0  0  0  0  0  0  0  0  0  0  0
  -16.7532   14.0351  -26.5459 C   0  0  0  0  0  0  0  0  0  0  0  0
  -16.6606   14.5007  -27.8581 C   0  0  0  0  0  0  0  0  0  0  0  0
  -15.6930   15.4209  -28.2211 C   0  0  0  0  0  0  0  0  0  0  0  0
  -14.8305   15.8549  -27.2390 C   0  0  0  0  0  0  0  0  0  0  0  0
  -14.9254   15.3917  -25.9414 C   0  0  0  0  0  0  0  0  0  0  0  0
  -18.1671   13.1678  -19.4033 C   0  0  0  0  0  0  0  0  0  0  0  0
  -18.4676   11.6891  -19.2866 C   0  0  0  0  0  0  0  0  0  0  0  0
  -17.5714   11.0527  -18.2753 C   0  0  0  0  0  0  0  0  0  0  0  0
  -17.8805    9.6449  -18.1679 N   0  0  0  0  0  0  0  0  0  0  0  0
  -17.6297    8.9907  -18.9292 H   0  0  0  0  0  0  0  0  0  0  0  0
  -19.7851    9.7702  -16.6040 N   0  0  0  0  0  0  0  0  0  0  0  0
  -18.5403    9.1955  -16.9775 C   0  0  0  0  0  0  0  0  0  0  0  0
  -17.9702    8.2781  -16.2874 N   0  0  0  0  0  0  0  0  0  0  0  0
  -20.5993    9.1509  -16.4680 H   0  0  0  0  0  0  0  0  0  0  0  0
  -19.8452   10.7935  -16.4784 H   0  0  0  0  0  0  0  0  0  0  0  0
  -18.4390    7.9471  -15.4267 H   0  0  0  0  0  0  0  0  0  0  0  0
  -20.7688   16.7789  -18.5626 C   0  0  0  0  0  0  0  0  0  0  0  0
  -21.4148   17.6529  -19.5453 C   0  0  0  0  0  0  0  0  0  0  0  0
  -20.9951   18.8429  -19.6800 O   0  0  0  0  0  0  0  0  0  0  0  0
  -22.4760   17.2300  -20.3480 N   0  0  0  0  0  0  0  0  0  0  0  0
  -22.8853   16.2748  -20.3173 H   0  0  0  0  0  0  0  0  0  0  0  0
  -23.1214   18.1134  -21.3388 C   0  0  0  0  0  0  0  0  0  0  0  0
  -23.9814   19.0913  -20.6653 C   0  0  0  0  0  0  0  0  0  0  0  0
  -23.6909   20.4703  -20.6359 N   0  0  0  0  0  0  0  0  0  0  0  0
  -25.0620   18.6996  -20.0635 N   0  0  0  0  0  0  0  0  0  0  0  0
  -23.7758   20.9279  -19.6779 H   0  0  0  0  0  0  0  0  0  0  0  0
  -23.4105   21.0693  -21.4195 H   0  0  0  0  0  0  0  0  0  0  0  0
  -25.7099   19.3535  -19.5684 H   0  0  0  0  0  0  0  0  0  0  0  0
  -23.8087   17.3036  -22.4041 C   0  0  0  0  0  0  0  0  0  0  0  0
  -23.7152   17.8549  -23.7695 C   0  0  0  0  0  0  0  0  0  0  0  0
  -23.8472   19.2084  -23.9914 C   0  0  0  0  0  0  0  0  0  0  0  0
  -23.7814   19.6975  -25.2711 C   0  0  0  0  0  0  0  0  0  0  0  0
  -23.5872   18.8992  -26.3686 C   0  0  0  0  0  0  0  0  0  0  0  0
  -23.4536   17.5323  -26.1504 C   0  0  0  0  0  0  0  0  0  0  0  0
  -23.5198   17.0458  -24.8682 C   0  0  0  0  0  0  0  0  0  0  0  0
  -19.9737   17.5030  -17.5011 C   0  0  0  0  0  0  0  0  0  0  0  0
  -19.7389   16.7531  -16.2681 C   0  0  0  0  0  0  0  0  0  0  0  0
  -19.1263   15.5135  -16.2823 O   0  0  0  0  0  0  0  0  0  0  0  0
  -20.0904   17.2141  -15.1409 O   0  0  0  0  0  0  0  0  0  0  0  0
  -18.4060   15.2195  -16.9029 H   0  0  0  0  0  0  0  0  0  0  0  0
 26 27  1  0  0  0
 27 28  2  0  0  0
 27 24  1  0  0  0
 24 23  1  0  0  0
 23 22  1  0  0  0
 22 21  1  0  0  0
 21  5  1  0  0  0
  5  6  1  0  0  0
  6  7  1  0  0  0
  7  8  2  0  0  0
  7 10  1  0  0  0
 10 11  1  0  0  0
 10 14  1  0  0  0
 14 15  1  0  0  0
 15 16  2  0  0  0
 16 17  1  0  0  0
 17 18  2  0  0  0
 18 19  1  0  0  0
 19 20  2  0  0  0
  5  1  1  0  0  0
  1  2  2  0  0  0
  1  3  1  0  0  0
  3 32  1  0  0  0
 32 51  1  0  0  0
 51 52  1  0  0  0
 52 53  1  0  0  0
 52 54  2  0  0  0
 32 33  1  0  0  0
 33 34  2  0  0  0
 33 35  1  0  0  0
 35 37  1  0  0  0
 37 44  1  0  0  0
 44 45  1  0  0  0
 45 46  2  0  0  0
 46 47  1  0  0  0
 47 48  2  0  0  0
 48 49  1  0  0  0
 49 50  2  0  0  0
 37 38  1  0  0  0
 38 39  1  0  0  0
 38 40  2  0  0  0
 20 15  1  0  0  0
 50 45  1  0  0  0
 26 29  1  0  0  0
 26 30  1  0  0  0
 28 31  1  0  0  0
 24 25  1  0  0  0
  6  9  1  0  0  0
 11 12  1  0  0  0
 11 13  1  0  0  0
  3  4  1  0  0  0
 53 55  1  0  0  0
 35 36  1  0  0  0
 39 41  1  0  0  0
 39 42  1  0  0  0
 40 43  1  0  0  0
M  END
> <minimizedAffinity>
-8.18634

> <CNNscore>
0.2376883626

> <CNNaffinity>
6.5661954880

> <CNN_VS>
1.5607082844

> <CNNaffinity_variance>
0.2689598203

$$$$
[H]N=C(N([H])[H])N([H])C([H])([H])C([H])([H])C([H])([H])[C@@]([H])(C(=O)N([H])[C@]([H])(C(=O)N([H])[C@]([H])(C(=N[H])N([H])[H])C([H])([H])c1c([H])c([H])c([H])c([H])c1[H])C([H])([H])C(=O)O[H])N([H])C(=O)[C@@]([H])(N([H])[H])C([H])([H])c1c([H])c([H])c([H])c([H])c1[H]


 55 56  0  0  0  0  0  0  0  0999 V2000
  -20.1467   17.3627  -18.4242 C   0  0  0  0  0  0  0  0  0  0  0  0
  -21.1039   17.0824  -19.2019 O   0  0  0  0  0  0  0  0  0  0  0  0
  -19.0443   18.0520  -18.9410 N   0  0  0  0  0  0  0  0  0  0  0  0
  -18.2436   18.2982  -18.3458 H   0  0  0  0  0  0  0  0  0  0  0  0
  -20.1763   16.9776  -16.9940 C   0  0  0  0  0  0  0  0  0  0  0  0
  -20.0857   15.5514  -16.9037 N   0  0  0  0  0  0  0  0  0  0  0  0
  -18.9489   14.8548  -17.3553 C   0  0  0  0  0  0  0  0  0  0  0  0
  -17.9835   15.4791  -17.8526 O   0  0  0  0  0  0  0  0  0  0  0  0
  -20.8825   15.0101  -16.4934 H   0  0  0  0  0  0  0  0  0  0  0  0
  -18.8365   13.3651  -17.2665 C   0  0  0  0  0  0  0  0  0  0  0  0
  -19.5386   12.8589  -16.1049 N   0  0  0  0  0  0  0  0  0  0  0  0
  -20.5465   13.1516  -16.1176 H   0  0  0  0  0  0  0  0  0  0  0  0
  -19.1501   13.2302  -15.2154 H   0  0  0  0  0  0  0  0  0  0  0  0
  -19.4289   12.7993  -18.5402 C   0  0  0  0  0  0  0  0  0  0  0  0
  -18.4026   12.1207  -19.3667 C   0  0  0  0  0  0  0  0  0  0  0  0
  -18.2497   12.4027  -20.7053 C   0  0  0  0  0  0  0  0  0  0  0  0
  -17.2795   11.7569  -21.4727 C   0  0  0  0  0  0  0  0  0  0  0  0
  -16.4397   10.8114  -20.9108 C   0  0  0  0  0  0  0  0  0  0  0  0
  -16.6009   10.5363  -19.5710 C   0  0  0  0  0  0  0  0  0  0  0  0
  -17.5624   11.1777  -18.8150 C   0  0  0  0  0  0  0  0  0  0  0  0
  -19.0441   17.6298  -16.2169 C   0  0  0  0  0  0  0  0  0  0  0  0
  -19.5954   18.6484  -15.2426 C   0  0  0  0  0  0  0  0  0  0  0  0
  -20.5073   17.9900  -14.2599 C   0  0  0  0  0  0  0  0  0  0  0  0
  -20.0781   18.2985  -12.9147 N   0  0  0  0  0  0  0  0  0  0  0  0
  -19.0900   18.1731  -12.6350 H   0  0  0  0  0  0  0  0  0  0  0  0
  -21.4194   17.9918  -10.8663 N   0  0  0  0  0  0  0  0  0  0  0  0
  -21.0646   18.7810  -11.9936 C   0  0  0  0  0  0  0  0  0  0  0  0
  -21.5949   19.9240  -12.2289 N   0  0  0  0  0  0  0  0  0  0  0  0
  -21.3296   18.4009   -9.9232 H   0  0  0  0  0  0  0  0  0  0  0  0
  -21.7580   17.0280  -11.0180 H   0  0  0  0  0  0  0  0  0  0  0  0
  -22.3077   20.2806  -11.5695 H   0  0  0  0  0  0  0  0  0  0  0  0
  -18.9583   18.4673  -20.3614 C   0  0  0  0  0  0  0  0  0  0  0  0
  -17.6967   18.0031  -20.9444 C   0  0  0  0  0  0  0  0  0  0  0  0
  -16.6285   18.1160  -20.2686 O   0  0  0  0  0  0  0  0  0  0  0  0
  -17.6182   17.4348  -22.2173 N   0  0  0  0  0  0  0  0  0  0  0  0
  -18.4358   17.2932  -22.8436 H   0  0  0  0  0  0  0  0  0  0  0  0
  -16.3452   16.9660  -22.7989 C   0  0  0  0  0  0  0  0  0  0  0  0
  -16.2431   17.3800  -24.2016 C   0  0  0  0  0  0  0  0  0  0  0  0
  -15.1715   16.9979  -25.0338 N   0  0  0  0  0  0  0  0  0  0  0  0
  -17.1636   18.1292  -24.7259 N   0  0  0  0  0  0  0  0  0  0  0  0
  -14.7370   17.7887  -25.5998 H   0  0  0  0  0  0  0  0  0  0  0  0
  -14.7709   16.0613  -25.1505 H   0  0  0  0  0  0  0  0  0  0  0  0
  -17.1402   18.4530  -25.7193 H   0  0  0  0  0  0  0  0  0  0  0  0
  -16.1670   15.4904  -22.5667 C   0  0  0  0  0  0  0  0  0  0  0  0
  -16.7250   14.6181  -23.6179 C   0  0  0  0  0  0  0  0  0  0  0  0
  -18.0560   14.6989  -23.9648 C   0  0  0  0  0  0  0  0  0  0  0  0
  -18.5600   13.8619  -24.9275 C   0  0  0  0  0  0  0  0  0  0  0  0
  -17.7985   12.9274  -25.5803 C   0  0  0  0  0  0  0  0  0  0  0  0
  -16.4544   12.8413  -25.2338 C   0  0  0  0  0  0  0  0  0  0  0  0
  -15.9529   13.6807  -24.2699 C   0  0  0  0  0  0  0  0  0  0  0  0
  -19.1243   19.9688  -20.3312 C   0  0  0  0  0  0  0  0  0  0  0  0
  -18.7252   20.6719  -21.5493 C   0  0  0  0  0  0  0  0  0  0  0  0
  -18.1637   21.9348  -21.5034 O   0  0  0  0  0  0  0  0  0  0  0  0
  -18.8812   20.1473  -22.6927 O   0  0  0  0  0  0  0  0  0  0  0  0
  -17.5592   22.2851  -20.7948 H   0  0  0  0  0  0  0  0  0  0  0  0
 26 27  1  0  0  0
 27 28  2  0  0  0
 27 24  1  0  0  0
 24 23  1  0  0  0
 23 22  1  0  0  0
 22 21  1  0  0  0
 21  5  1  0  0  0
  5  6  1  0  0  0
  6  7  1  0  0  0
  7  8  2  0  0  0
  7 10  1  0  0  0
 10 11  1  0  0  0
 10 14  1  0  0  0
 14 15  1  0  0  0
 15 16  2  0  0  0
 16 17  1  0  0  0
 17 18  2  0  0  0
 18 19  1  0  0  0
 19 20  2  0  0  0
  5  1  1  0  0  0
  1  2  2  0  0  0
  1  3  1  0  0  0
  3 32  1  0  0  0
 32 51  1  0  0  0
 51 52  1  0  0  0
 52 53  1  0  0  0
 52 54  2  0  0  0
 32 33  1  0  0  0
 33 34  2  0  0  0
 33 35  1  0  0  0
 35 37  1  0  0  0
 37 44  1  0  0  0
 44 45  1  0  0  0
 45 46  2  0  0  0
 46 47  1  0  0  0
 47 48  2  0  0  0
 48 49  1  0  0  0
 49 50  2  0  0  0
 37 38  1  0  0  0
 38 39  1  0  0  0
 38 40  2  0  0  0
 20 15  1  0  0  0
 50 45  1  0  0  0
 26 29  1  0  0  0
 26 30  1  0  0  0
 28 31  1  0  0  0
 24 25  1  0  0  0
  6  9  1  0  0  0
 11 12  1  0  0  0
 11 13  1  0  0  0
  3  4  1  0  0  0
 53 55  1  0  0  0
 35 36  1  0  0  0
 39 41  1  0  0  0
 39 42  1  0  0  0
 40 43  1  0  0  0
M  END
> <minimizedAffinity>
-8.10836

> <CNNscore>
0.2216445059

> <CNNaffinity>
6.5120415688

> <CNN_VS>
1.4433581829

> <CNNaffinity_variance>
0.2322086990

$$$$
[H]N=C(N([H])[H])N([H])C([H])([H])C([H])([H])C([H])([H])[C@@]([H])(C(=O)N([H])[C@]([H])(C(=O)N([H])[C@]([H])(C(=N[H])N([H])[H])C([H])([H])c1c([H])c([H])c([H])c([H])c1[H])C([H])([H])C(=O)O[H])N([H])C(=O)[C@@]([H])(N([H])[H])C([H])([H])c1c([H])c([H])c([H])c([H])c1[H]


 55 56  0  0  0  0  0  0  0  0999 V2000
  -18.7137   16.7014  -20.6293 C   0  0  0  0  0  0  0  0  0  0  0  0
  -17.9374   16.3372  -19.6995 O   0  0  0  0  0  0  0  0  0  0  0  0
  -20.0791   16.8263  -20.3509 N   0  0  0  0  0  0  0  0  0  0  0  0
  -20.7460   17.1171  -21.0768 H   0  0  0  0  0  0  0  0  0  0  0  0
  -18.2046   16.9939  -21.9894 C   0  0  0  0  0  0  0  0  0  0  0  0
  -18.9452   18.0955  -22.5265 N   0  0  0  0  0  0  0  0  0  0  0  0
  -18.9856   19.3435  -21.8767 C   0  0  0  0  0  0  0  0  0  0  0  0
  -18.3668   19.5144  -20.8011 O   0  0  0  0  0  0  0  0  0  0  0  0
  -19.4714   17.9734  -23.4234 H   0  0  0  0  0  0  0  0  0  0  0  0
  -19.7524   20.5059  -22.4249 C   0  0  0  0  0  0  0  0  0  0  0  0
  -19.0122   21.7404  -22.2624 N   0  0  0  0  0  0  0  0  0  0  0  0
  -18.0681   21.6755  -22.7166 H   0  0  0  0  0  0  0  0  0  0  0  0
  -18.8282   21.9625  -21.2641 H   0  0  0  0  0  0  0  0  0  0  0  0
  -20.0032   20.2197  -23.8908 C   0  0  0  0  0  0  0  0  0  0  0  0
  -21.4422   19.9960  -24.1663 C   0  0  0  0  0  0  0  0  0  0  0  0
  -21.9889   18.7328  -24.1758 C   0  0  0  0  0  0  0  0  0  0  0  0
  -23.3455   18.5355  -24.4365 C   0  0  0  0  0  0  0  0  0  0  0  0
  -24.1845   19.6054  -24.6942 C   0  0  0  0  0  0  0  0  0  0  0  0
  -23.6277   20.8650  -24.6827 C   0  0  0  0  0  0  0  0  0  0  0  0
  -22.2845   21.0560  -24.4242 C   0  0  0  0  0  0  0  0  0  0  0  0
  -16.7185   17.3139  -21.9721 C   0  0  0  0  0  0  0  0  0  0  0  0
  -15.9701   16.3797  -22.8982 C   0  0  0  0  0  0  0  0  0  0  0  0
  -16.3474   16.6411  -24.3195 C   0  0  0  0  0  0  0  0  0  0  0  0
  -15.1636   16.9512  -25.0885 N   0  0  0  0  0  0  0  0  0  0  0  0
  -14.7070   17.8756  -25.0034 H   0  0  0  0  0  0  0  0  0  0  0  0
  -15.2047   15.7878  -27.2643 N   0  0  0  0  0  0  0  0  0  0  0  0
  -14.6521   15.9379  -25.9637 C   0  0  0  0  0  0  0  0  0  0  0  0
  -13.7009   15.1965  -25.5295 N   0  0  0  0  0  0  0  0  0  0  0  0
  -14.5779   15.8459  -28.0820 H   0  0  0  0  0  0  0  0  0  0  0  0
  -16.2200   15.6249  -27.3598 H   0  0  0  0  0  0  0  0  0  0  0  0
  -13.3250   14.4625  -26.1541 H   0  0  0  0  0  0  0  0  0  0  0  0
  -20.6476   16.5514  -19.0098 C   0  0  0  0  0  0  0  0  0  0  0  0
  -20.7251   15.1057  -18.7843 C   0  0  0  0  0  0  0  0  0  0  0  0
  -21.5219   14.4149  -19.4903 O   0  0  0  0  0  0  0  0  0  0  0  0
  -19.9530   14.4500  -17.8235 N   0  0  0  0  0  0  0  0  0  0  0  0
  -19.2683   14.9256  -17.2023 H   0  0  0  0  0  0  0  0  0  0  0  0
  -20.0326   12.9928  -17.6022 C   0  0  0  0  0  0  0  0  0  0  0  0
  -20.9333   12.6958  -16.4842 C   0  0  0  0  0  0  0  0  0  0  0  0
  -21.2694   13.6487  -15.5014 N   0  0  0  0  0  0  0  0  0  0  0  0
  -21.4582   11.5149  -16.3697 N   0  0  0  0  0  0  0  0  0  0  0  0
  -21.2019   13.3020  -14.4966 H   0  0  0  0  0  0  0  0  0  0  0  0
  -21.5640   14.6204  -15.6444 H   0  0  0  0  0  0  0  0  0  0  0  0
  -22.1056   11.2497  -15.5933 H   0  0  0  0  0  0  0  0  0  0  0  0
  -18.6563   12.3996  -17.4725 C   0  0  0  0  0  0  0  0  0  0  0  0
  -18.0569   11.9231  -18.7338 C   0  0  0  0  0  0  0  0  0  0  0  0
  -17.0871   10.9445  -18.7253 C   0  0  0  0  0  0  0  0  0  0  0  0
  -16.5254   10.5331  -19.9071 C   0  0  0  0  0  0  0  0  0  0  0  0
  -16.8814   11.0512  -21.1254 C   0  0  0  0  0  0  0  0  0  0  0  0
  -17.8597   12.0394  -21.1398 C   0  0  0  0  0  0  0  0  0  0  0  0
  -18.4201   12.4490  -19.9551 C   0  0  0  0  0  0  0  0  0  0  0  0
  -21.9808   17.2625  -19.0068 C   0  0  0  0  0  0  0  0  0  0  0  0
  -22.4868   17.6588  -20.3200 C   0  0  0  0  0  0  0  0  0  0  0  0
  -23.0291   16.7346  -21.1941 O   0  0  0  0  0  0  0  0  0  0  0  0
  -22.4450   18.8660  -20.7042 O   0  0  0  0  0  0  0  0  0  0  0  0
  -23.5603   15.9304  -20.9460 H   0  0  0  0  0  0  0  0  0  0  0  0
 26 27  1  0  0  0
 27 28  2  0  0  0
 27 24  1  0  0  0
 24 23  1  0  0  0
 23 22  1  0  0  0
 22 21  1  0  0  0
 21  5  1  0  0  0
  5  6  1  0  0  0
  6  7  1  0  0  0
  7  8  2  0  0  0
  7 10  1  0  0  0
 10 11  1  0  0  0
 10 14  1  0  0  0
 14 15  1  0  0  0
 15 16  2  0  0  0
 16 17  1  0  0  0
 17 18  2  0  0  0
 18 19  1  0  0  0
 19 20  2  0  0  0
  5  1  1  0  0  0
  1  2  2  0  0  0
  1  3  1  0  0  0
  3 32  1  0  0  0
 32 51  1  0  0  0
 51 52  1  0  0  0
 52 53  1  0  0  0
 52 54  2  0  0  0
 32 33  1  0  0  0
 33 34  2  0  0  0
 33 35  1  0  0  0
 35 37  1  0  0  0
 37 44  1  0  0  0
 44 45  1  0  0  0
 45 46  2  0  0  0
 46 47  1  0  0  0
 47 48  2  0  0  0
 48 49  1  0  0  0
 49 50  2  0  0  0
 37 38  1  0  0  0
 38 39  1  0  0  0
 38 40  2  0  0  0
 20 15  1  0  0  0
 50 45  1  0  0  0
 26 29  1  0  0  0
 26 30  1  0  0  0
 28 31  1  0  0  0
 24 25  1  0  0  0
  6  9  1  0  0  0
 11 12  1  0  0  0
 11 13  1  0  0  0
  3  4  1  0  0  0
 53 55  1  0  0  0
 35 36  1  0  0  0
 39 41  1  0  0  0
 39 42  1  0  0  0
 40 43  1  0  0  0
M  END
> <minimizedAffinity>
-7.62465

> <CNNscore>
0.1822778881

> <CNNaffinity>
6.0973091125

> <CNN_VS>
1.1114046574

> <CNNaffinity_variance>
0.7967187762

$$$$
[H]N=C(N([H])[H])N([H])C([H])([H])C([H])([H])C([H])([H])[C@@]([H])(C(=O)N([H])[C@]([H])(C(=O)N([H])[C@]([H])(C(=N[H])N([H])[H])C([H])([H])c1c([H])c([H])c([H])c([H])c1[H])C([H])([H])C(=O)O[H])N([H])C(=O)[C@@]([H])(N([H])[H])C([H])([H])c1c([H])c([H])c([H])c([H])c1[H]


 55 56  0  0  0  0  0  0  0  0999 V2000
  -19.2854   13.6211  -19.0368 C   0  0  0  0  0  0  0  0  0  0  0  0
  -20.5483   13.5557  -19.0557 O   0  0  0  0  0  0  0  0  0  0  0  0
  -18.6803   14.8826  -19.0415 N   0  0  0  0  0  0  0  0  0  0  0  0
  -17.6576   14.9825  -19.0289 H   0  0  0  0  0  0  0  0  0  0  0  0
  -18.4497   12.3982  -19.0094 C   0  0  0  0  0  0  0  0  0  0  0  0
  -19.0659   11.4442  -18.1373 N   0  0  0  0  0  0  0  0  0  0  0  0
  -18.4206   10.2443  -17.7834 C   0  0  0  0  0  0  0  0  0  0  0  0
  -17.2804    9.9856  -18.2329 O   0  0  0  0  0  0  0  0  0  0  0  0
  -20.0198   11.6398  -17.7522 H   0  0  0  0  0  0  0  0  0  0  0  0
  -19.0488    9.2375  -16.8716 C   0  0  0  0  0  0  0  0  0  0  0  0
  -18.0507    8.3505  -16.3099 N   0  0  0  0  0  0  0  0  0  0  0  0
  -17.3082    8.8926  -15.8035 H   0  0  0  0  0  0  0  0  0  0  0  0
  -17.5509    7.8052  -17.0397 H   0  0  0  0  0  0  0  0  0  0  0  0
  -19.7561   10.0104  -15.7780 C   0  0  0  0  0  0  0  0  0  0  0  0
  -21.1459    9.5341  -15.5824 C   0  0  0  0  0  0  0  0  0  0  0  0
  -22.2229   10.3857  -15.6807 C   0  0  0  0  0  0  0  0  0  0  0  0
  -23.5267    9.9248  -15.4944 C   0  0  0  0  0  0  0  0  0  0  0  0
  -23.7778    8.5952  -15.2044 C   0  0  0  0  0  0  0  0  0  0  0  0
  -22.6936    7.7515  -15.1079 C   0  0  0  0  0  0  0  0  0  0  0  0
  -21.4046    8.2116  -15.2930 C   0  0  0  0  0  0  0  0  0  0  0  0
  -18.2770   11.8091  -20.4002 C   0  0  0  0  0  0  0  0  0  0  0  0
  -17.0362   12.3731  -21.0582 C   0  0  0  0  0  0  0  0  0  0  0  0
  -17.4054   13.1974  -22.2478 C   0  0  0  0  0  0  0  0  0  0  0  0
  -16.6746   12.7355  -23.4061 N   0  0  0  0  0  0  0  0  0  0  0  0
  -17.1748   12.4537  -24.2669 H   0  0  0  0  0  0  0  0  0  0  0  0
  -14.5977   11.4373  -23.1059 N   0  0  0  0  0  0  0  0  0  0  0  0
  -15.2451   12.6847  -23.3166 C   0  0  0  0  0  0  0  0  0  0  0  0
  -14.5987   13.7855  -23.4325 N   0  0  0  0  0  0  0  0  0  0  0  0
  -13.8828   11.1262  -23.7818 H   0  0  0  0  0  0  0  0  0  0  0  0
  -14.8588   10.8720  -22.2819 H   0  0  0  0  0  0  0  0  0  0  0  0
  -13.5665   13.7587  -23.3695 H   0  0  0  0  0  0  0  0  0  0  0  0
  -19.4624   16.1417  -19.0646 C   0  0  0  0  0  0  0  0  0  0  0  0
  -19.3409   16.7838  -20.3760 C   0  0  0  0  0  0  0  0  0  0  0  0
  -20.3819   17.2521  -20.9304 O   0  0  0  0  0  0  0  0  0  0  0  0
  -18.1216   16.9075  -21.0449 N   0  0  0  0  0  0  0  0  0  0  0  0
  -17.2145   16.5631  -20.6715 H   0  0  0  0  0  0  0  0  0  0  0  0
  -18.0040   17.5580  -22.3646 C   0  0  0  0  0  0  0  0  0  0  0  0
  -18.6986   18.8491  -22.3598 C   0  0  0  0  0  0  0  0  0  0  0  0
  -19.7789   19.1376  -23.2181 N   0  0  0  0  0  0  0  0  0  0  0  0
  -18.3252   19.7839  -21.5411 N   0  0  0  0  0  0  0  0  0  0  0  0
  -19.7175   20.0752  -23.7194 H   0  0  0  0  0  0  0  0  0  0  0  0
  -20.6001   18.5546  -23.4107 H   0  0  0  0  0  0  0  0  0  0  0  0
  -18.7847   20.7215  -21.4960 H   0  0  0  0  0  0  0  0  0  0  0  0
  -18.4337   16.6197  -23.4592 C   0  0  0  0  0  0  0  0  0  0  0  0
  -17.3815   16.2660  -24.4313 C   0  0  0  0  0  0  0  0  0  0  0  0
  -16.1925   16.9615  -24.4640 C   0  0  0  0  0  0  0  0  0  0  0  0
  -15.2374   16.6325  -25.3918 C   0  0  0  0  0  0  0  0  0  0  0  0
  -15.4005   15.6281  -26.3103 C   0  0  0  0  0  0  0  0  0  0  0  0
  -16.5988   14.9230  -26.2820 C   0  0  0  0  0  0  0  0  0  0  0  0
  -17.5529   15.2546  -25.3520 C   0  0  0  0  0  0  0  0  0  0  0  0
  -18.9158   16.9522  -17.9124 C   0  0  0  0  0  0  0  0  0  0  0  0
  -19.3773   16.5510  -16.5845 C   0  0  0  0  0  0  0  0  0  0  0  0
  -20.0920   15.3831  -16.3906 O   0  0  0  0  0  0  0  0  0  0  0  0
  -19.1385   17.2618  -15.5625 O   0  0  0  0  0  0  0  0  0  0  0  0
  -19.9739   14.5305  -16.8900 H   0  0  0  0  0  0  0  0  0  0  0  0
 26 27  1  0  0  0
 27 28  2  0  0  0
 27 24  1  0  0  0
 24 23  1  0  0  0
 23 22  1  0  0  0
 22 21  1  0  0  0
 21  5  1  0  0  0
  5  6  1  0  0  0
  6  7  1  0  0  0
  7  8  2  0  0  0
  7 10  1  0  0  0
 10 11  1  0  0  0
 10 14  1  0  0  0
 14 15  1  0  0  0
 15 16  2  0  0  0
 16 17  1  0  0  0
 17 18  2  0  0  0
 18 19  1  0  0  0
 19 20  2  0  0  0
  5  1  1  0  0  0
  1  2  2  0  0  0
  1  3  1  0  0  0
  3 32  1  0  0  0
 32 51  1  0  0  0
 51 52  1  0  0  0
 52 53  1  0  0  0
 52 54  2  0  0  0
 32 33  1  0  0  0
 33 34  2  0  0  0
 33 35  1  0  0  0
 35 37  1  0  0  0
 37 44  1  0  0  0
 44 45  1  0  0  0
 45 46  2  0  0  0
 46 47  1  0  0  0
 47 48  2  0  0  0
 48 49  1  0  0  0
 49 50  2  0  0  0
 37 38  1  0  0  0
 38 39  1  0  0  0
 38 40  2  0  0  0
 20 15  1  0  0  0
 50 45  1  0  0  0
 26 29  1  0  0  0
 26 30  1  0  0  0
 28 31  1  0  0  0
 24 25  1  0  0  0
  6  9  1  0  0  0
 11 12  1  0  0  0
 11 13  1  0  0  0
  3  4  1  0  0  0
 53 55  1  0  0  0
 35 36  1  0  0  0
 39 41  1  0  0  0
 39 42  1  0  0  0
 40 43  1  0  0  0
M  END
> <minimizedAffinity>
-7.47977

> <CNNscore>
0.1618961543

> <CNNaffinity>
6.7256178856

> <CNN_VS>
1.0888516903

> <CNNaffinity_variance>
0.1155180335

$$$$
[H]N=C(N([H])[H])N([H])C([H])([H])C([H])([H])C([H])([H])[C@@]([H])(C(=O)N([H])[C@]([H])(C(=O)N([H])[C@]([H])(C(=N[H])N([H])[H])C([H])([H])c1c([H])c([H])c([H])c([H])c1[H])C([H])([H])C(=O)O[H])N([H])C(=O)[C@@]([H])(N([H])[H])C([H])([H])c1c([H])c([H])c([H])c([H])c1[H]


 55 56  0  0  0  0  0  0  0  0999 V2000
  -19.1859   13.0949  -17.8378 C   0  0  0  0  0  0  0  0  0  0  0  0
  -18.2569   13.6606  -17.1923 O   0  0  0  0  0  0  0  0  0  0  0  0
  -18.9287   12.6674  -19.1449 N   0  0  0  0  0  0  0  0  0  0  0  0
  -19.6547   12.2053  -19.7065 H   0  0  0  0  0  0  0  0  0  0  0  0
  -20.5232   12.8809  -17.2375 C   0  0  0  0  0  0  0  0  0  0  0  0
  -20.3516   12.4585  -15.8800 N   0  0  0  0  0  0  0  0  0  0  0  0
  -20.9863   11.3056  -15.3808 C   0  0  0  0  0  0  0  0  0  0  0  0
  -21.7242   10.6199  -16.1253 O   0  0  0  0  0  0  0  0  0  0  0  0
  -19.7408   13.0187  -15.2402 H   0  0  0  0  0  0  0  0  0  0  0  0
  -20.8162   10.8486  -13.9659 C   0  0  0  0  0  0  0  0  0  0  0  0
  -21.9665   10.0876  -13.5233 N   0  0  0  0  0  0  0  0  0  0  0  0
  -22.1417    9.2686  -14.1559 H   0  0  0  0  0  0  0  0  0  0  0  0
  -22.8417   10.6477  -13.5413 H   0  0  0  0  0  0  0  0  0  0  0  0
  -19.5624   10.0001  -13.9220 C   0  0  0  0  0  0  0  0  0  0  0  0
  -19.1616    9.6878  -12.5297 C   0  0  0  0  0  0  0  0  0  0  0  0
  -19.2220   10.6326  -11.5304 C   0  0  0  0  0  0  0  0  0  0  0  0
  -18.8417   10.3259  -10.2233 C   0  0  0  0  0  0  0  0  0  0  0  0
  -18.3913    9.0605   -9.8907 C   0  0  0  0  0  0  0  0  0  0  0  0
  -18.3343    8.1225  -10.8976 C   0  0  0  0  0  0  0  0  0  0  0  0
  -18.7116    8.4301  -12.1900 C   0  0  0  0  0  0  0  0  0  0  0  0
  -21.3696   14.1424  -17.2960 C   0  0  0  0  0  0  0  0  0  0  0  0
  -21.4578   14.7787  -15.9256 C   0  0  0  0  0  0  0  0  0  0  0  0
  -21.0568   16.2160  -15.9909 C   0  0  0  0  0  0  0  0  0  0  0  0
  -20.1309   16.4142  -17.0829 N   0  0  0  0  0  0  0  0  0  0  0  0
  -20.3813   16.1271  -18.0448 H   0  0  0  0  0  0  0  0  0  0  0  0
  -18.7831   18.0103  -15.7695 N   0  0  0  0  0  0  0  0  0  0  0  0
  -18.8662   17.0186  -16.7840 C   0  0  0  0  0  0  0  0  0  0  0  0
  -17.8449   16.6328  -17.4556 N   0  0  0  0  0  0  0  0  0  0  0  0
  -18.1276   17.8677  -14.9855 H   0  0  0  0  0  0  0  0  0  0  0  0
  -19.3812   18.8492  -15.8410 H   0  0  0  0  0  0  0  0  0  0  0  0
  -16.9277   17.0632  -17.2468 H   0  0  0  0  0  0  0  0  0  0  0  0
  -17.6106   12.8498  -19.7983 C   0  0  0  0  0  0  0  0  0  0  0  0
  -17.6245   14.0577  -20.6277 C   0  0  0  0  0  0  0  0  0  0  0  0
  -17.1898   13.9915  -21.8180 O   0  0  0  0  0  0  0  0  0  0  0  0
  -18.1019   15.2851  -20.1641 N   0  0  0  0  0  0  0  0  0  0  0  0
  -18.4839   15.4389  -19.2095 H   0  0  0  0  0  0  0  0  0  0  0  0
  -18.1166   16.4983  -21.0046 C   0  0  0  0  0  0  0  0  0  0  0  0
  -16.7749   17.0851  -21.0755 C   0  0  0  0  0  0  0  0  0  0  0  0
  -16.1519   17.7003  -19.9708 N   0  0  0  0  0  0  0  0  0  0  0  0
  -16.1094   17.0507  -22.1887 N   0  0  0  0  0  0  0  0  0  0  0  0
  -15.7078   18.6468  -20.1739 H   0  0  0  0  0  0  0  0  0  0  0  0
  -16.0822   17.3446  -19.0116 H   0  0  0  0  0  0  0  0  0  0  0  0
  -15.1508   17.4534  -22.2945 H   0  0  0  0  0  0  0  0  0  0  0  0
  -19.1918   17.4467  -20.5491 C   0  0  0  0  0  0  0  0  0  0  0  0
  -20.2874   17.6630  -21.5136 C   0  0  0  0  0  0  0  0  0  0  0  0
  -21.6030   17.5903  -21.1105 C   0  0  0  0  0  0  0  0  0  0  0  0
  -22.6065   17.7704  -22.0280 C   0  0  0  0  0  0  0  0  0  0  0  0
  -22.3713   18.0247  -23.3544 C   0  0  0  0  0  0  0  0  0  0  0  0
  -21.0452   18.0989  -23.7668 C   0  0  0  0  0  0  0  0  0  0  0  0
  -20.0430   17.9183  -22.8459 C   0  0  0  0  0  0  0  0  0  0  0  0
  -17.3804   11.5649  -20.5593 C   0  0  0  0  0  0  0  0  0  0  0  0
  -16.5501   10.5708  -19.8813 C   0  0  0  0  0  0  0  0  0  0  0  0
  -16.4823   10.5062  -18.5016 O   0  0  0  0  0  0  0  0  0  0  0  0
  -15.8611    9.7321  -20.5361 O   0  0  0  0  0  0  0  0  0  0  0  0
  -17.2234   10.6987  -17.8659 H   0  0  0  0  0  0  0  0  0  0  0  0
 26 27  1  0  0  0
 27 28  2  0  0  0
 27 24  1  0  0  0
 24 23  1  0  0  0
 23 22  1  0  0  0
 22 21  1  0  0  0
 21  5  1  0  0  0
  5  6  1  0  0  0
  6  7  1  0  0  0
  7  8  2  0  0  0
  7 10  1  0  0  0
 10 11  1  0  0  0
 10 14  1  0  0  0
 14 15  1  0  0  0
 15 16  2  0  0  0
 16 17  1  0  0  0
 17 18  2  0  0  0
 18 19  1  0  0  0
 19 20  2  0  0  0
  5  1  1  0  0  0
  1  2  2  0  0  0
  1  3  1  0  0  0
  3 32  1  0  0  0
 32 51  1  0  0  0
 51 52  1  0  0  0
 52 53  1  0  0  0
 52 54  2  0  0  0
 32 33  1  0  0  0
 33 34  2  0  0  0
 33 35  1  0  0  0
 35 37  1  0  0  0
 37 44  1  0  0  0
 44 45  1  0  0  0
 45 46  2  0  0  0
 46 47  1  0  0  0
 47 48  2  0  0  0
 48 49  1  0  0  0
 49 50  2  0  0  0
 37 38  1  0  0  0
 38 39  1  0  0  0
 38 40  2  0  0  0
 20 15  1  0  0  0
 50 45  1  0  0  0
 26 29  1  0  0  0
 26 30  1  0  0  0
 28 31  1  0  0  0
 24 25  1  0  0  0
  6  9  1  0  0  0
 11 12  1  0  0  0
 11 13  1  0  0  0
  3  4  1  0  0  0
 53 55  1  0  0  0
 35 36  1  0  0  0
 39 41  1  0  0  0
 39 42  1  0  0  0
 40 43  1  0  0  0
M  END
> <minimizedAffinity>
-6.92490

> <CNNscore>
0.1539968997

> <CNNaffinity>
5.8662571907

> <CNN_VS>
0.9033854008

> <CNNaffinity_variance>
0.2918965816

$$$$
[H]N=C(N([H])[H])N([H])C([H])([H])C([H])([H])C([H])([H])[C@@]([H])(C(=O)N([H])[C@]([H])(C(=O)N([H])[C@]([H])(C(=N[H])N([H])[H])C([H])([H])c1c([H])c([H])c([H])c([H])c1[H])C([H])([H])C(=O)O[H])N([H])C(=O)[C@@]([H])(N([H])[H])C([H])([H])c1c([H])c([H])c([H])c([H])c1[H]


 55 56  0  0  0  0  0  0  0  0999 V2000
  -18.4770   18.2920  -19.5534 C   0  0  0  0  0  0  0  0  0  0  0  0
  -18.7293   19.0107  -18.5437 O   0  0  0  0  0  0  0  0  0  0  0  0
  -18.9019   18.7325  -20.8115 N   0  0  0  0  0  0  0  0  0  0  0  0
  -18.7204   18.1794  -21.6584 H   0  0  0  0  0  0  0  0  0  0  0  0
  -17.7478   17.0089  -19.4245 C   0  0  0  0  0  0  0  0  0  0  0  0
  -18.6852   15.9355  -19.5642 N   0  0  0  0  0  0  0  0  0  0  0  0
  -19.0099   15.0949  -18.4828 C   0  0  0  0  0  0  0  0  0  0  0  0
  -18.4757   15.2726  -17.3638 O   0  0  0  0  0  0  0  0  0  0  0  0
  -19.1415   15.7681  -20.4916 H   0  0  0  0  0  0  0  0  0  0  0  0
  -19.9888   13.9701  -18.6104 C   0  0  0  0  0  0  0  0  0  0  0  0
  -21.3502   14.4488  -18.4848 N   0  0  0  0  0  0  0  0  0  0  0  0
  -21.5533   15.1954  -19.1940 H   0  0  0  0  0  0  0  0  0  0  0  0
  -21.5321   14.8847  -17.5592 H   0  0  0  0  0  0  0  0  0  0  0  0
  -19.7650   13.3397  -19.9692 C   0  0  0  0  0  0  0  0  0  0  0  0
  -18.6592   12.3533  -19.9393 C   0  0  0  0  0  0  0  0  0  0  0  0
  -17.8697   12.1182  -21.0421 C   0  0  0  0  0  0  0  0  0  0  0  0
  -16.8315   11.1868  -21.0011 C   0  0  0  0  0  0  0  0  0  0  0  0
  -16.5631   10.4693  -19.8487 C   0  0  0  0  0  0  0  0  0  0  0  0
  -17.3588   10.7116  -18.7510 C   0  0  0  0  0  0  0  0  0  0  0  0
  -18.3854   11.6344  -18.7957 C   0  0  0  0  0  0  0  0  0  0  0  0
  -16.6451   16.8868  -20.4639 C   0  0  0  0  0  0  0  0  0  0  0  0
  -16.8102   15.6077  -21.2559 C   0  0  0  0  0  0  0  0  0  0  0  0
  -17.0031   15.9127  -22.7052 C   0  0  0  0  0  0  0  0  0  0  0  0
  -16.0196   16.8810  -23.1343 N   0  0  0  0  0  0  0  0  0  0  0  0
  -15.3876   17.3294  -22.4488 H   0  0  0  0  0  0  0  0  0  0  0  0
  -14.9286   16.6196  -25.3321 N   0  0  0  0  0  0  0  0  0  0  0  0
  -15.9543   17.1914  -24.5320 C   0  0  0  0  0  0  0  0  0  0  0  0
  -16.8393   17.9856  -25.0106 N   0  0  0  0  0  0  0  0  0  0  0  0
  -15.1934   16.0716  -26.1653 H   0  0  0  0  0  0  0  0  0  0  0  0
  -13.9430   16.7655  -25.0600 H   0  0  0  0  0  0  0  0  0  0  0  0
  -16.8005   18.2153  -26.0185 H   0  0  0  0  0  0  0  0  0  0  0  0
  -19.6319   20.0081  -21.0047 C   0  0  0  0  0  0  0  0  0  0  0  0
  -21.0763   19.7623  -21.0198 C   0  0  0  0  0  0  0  0  0  0  0  0
  -21.8683   20.7399  -20.8539 O   0  0  0  0  0  0  0  0  0  0  0  0
  -21.6231   18.4924  -21.2140 N   0  0  0  0  0  0  0  0  0  0  0  0
  -21.0593   17.6321  -21.3652 H   0  0  0  0  0  0  0  0  0  0  0  0
  -23.0790   18.2506  -21.2313 C   0  0  0  0  0  0  0  0  0  0  0  0
  -23.5384   17.8131  -19.9096 C   0  0  0  0  0  0  0  0  0  0  0  0
  -22.6981   17.1546  -18.9892 N   0  0  0  0  0  0  0  0  0  0  0  0
  -24.7647   18.0283  -19.5446 N   0  0  0  0  0  0  0  0  0  0  0  0
  -23.1164   16.2837  -18.5410 H   0  0  0  0  0  0  0  0  0  0  0  0
  -21.7464   17.4155  -18.7106 H   0  0  0  0  0  0  0  0  0  0  0  0
  -25.1441   17.7377  -18.6152 H   0  0  0  0  0  0  0  0  0  0  0  0
  -23.4506   17.3286  -22.3604 C   0  0  0  0  0  0  0  0  0  0  0  0
  -23.5162   17.9616  -23.6916 C   0  0  0  0  0  0  0  0  0  0  0  0
  -23.6775   19.3245  -23.8145 C   0  0  0  0  0  0  0  0  0  0  0  0
  -23.7606   19.8899  -25.0613 C   0  0  0  0  0  0  0  0  0  0  0  0
  -23.6907   19.1608  -26.2201 C   0  0  0  0  0  0  0  0  0  0  0  0
  -23.5281   17.7848  -26.1020 C   0  0  0  0  0  0  0  0  0  0  0  0
  -23.4451   17.2217  -24.8525 C   0  0  0  0  0  0  0  0  0  0  0  0
  -19.0754   20.5759  -22.2897 C   0  0  0  0  0  0  0  0  0  0  0  0
  -19.5377   19.9296  -23.5169 C   0  0  0  0  0  0  0  0  0  0  0  0
  -19.4328   18.5626  -23.6969 O   0  0  0  0  0  0  0  0  0  0  0  0
  -20.0513   20.6017  -24.4610 O   0  0  0  0  0  0  0  0  0  0  0  0
  -19.5220   17.8669  -22.9908 H   0  0  0  0  0  0  0  0  0  0  0  0
 26 27  1  0  0  0
 27 28  2  0  0  0
 27 24  1  0  0  0
 24 23  1  0  0  0
 23 22  1  0  0  0
 22 21  1  0  0  0
 21  5  1  0  0  0
  5  6  1  0  0  0
  6  7  1  0  0  0
  7  8  2  0  0  0
  7 10  1  0  0  0
 10 11  1  0  0  0
 10 14  1  0  0  0
 14 15  1  0  0  0
 15 16  2  0  0  0
 16 17  1  0  0  0
 17 18  2  0  0  0
 18 19  1  0  0  0
 19 20  2  0  0  0
  5  1  1  0  0  0
  1  2  2  0  0  0
  1  3  1  0  0  0
  3 32  1  0  0  0
 32 51  1  0  0  0
 51 52  1  0  0  0
 52 53  1  0  0  0
 52 54  2  0  0  0
 32 33  1  0  0  0
 33 34  2  0  0  0
 33 35  1  0  0  0
 35 37  1  0  0  0
 37 44  1  0  0  0
 44 45  1  0  0  0
 45 46  2  0  0  0
 46 47  1  0  0  0
 47 48  2  0  0  0
 48 49  1  0  0  0
 49 50  2  0  0  0
 37 38  1  0  0  0
 38 39  1  0  0  0
 38 40  2  0  0  0
 20 15  1  0  0  0
 50 45  1  0  0  0
 26 29  1  0  0  0
 26 30  1  0  0  0
 28 31  1  0  0  0
 24 25  1  0  0  0
  6  9  1  0  0  0
 11 12  1  0  0  0
 11 13  1  0  0  0
  3  4  1  0  0  0
 53 55  1  0  0  0
 35 36  1  0  0  0
 39 41  1  0  0  0
 39 42  1  0  0  0
 40 43  1  0  0  0
M  END
> <minimizedAffinity>
-8.26491

> <CNNscore>
0.1523730755

> <CNNaffinity>
5.8281960487

> <CNN_VS>
0.8880601525

> <CNNaffinity_variance>
0.9414895773

$$$$
[H]c1c([H])c(N([H])C(=O)c2c(C([H])([H])[H])c(C(=O)C(=O)N([H])C3(C([H])([H])[H])C([H])([H])OC3([H])[H])c3n2C([H])([H])C([H])([H])C3([H])[H])c([H])c(Cl)c1F


 32 35  0  0  0  0  0  0  0  0999 V2000
  -18.5329   15.9994  -19.9714 C   0  0  0  0  0  0  0  0  0  0  0  0
  -18.2693   14.5202  -19.8473 C   0  0  0  0  0  0  0  0  0  0  0  0
  -18.3994   13.7656  -18.7125 C   0  0  0  0  0  0  0  0  0  0  0  0
  -18.0618   12.4752  -19.0472 C   0  0  0  0  0  0  0  0  0  0  0  0
  -17.9441   11.1050  -18.4840 C   0  0  0  0  0  0  0  0  0  0  0  0
  -17.1056   10.3899  -19.4959 C   0  0  0  0  0  0  0  0  0  0  0  0
  -17.3473   11.1463  -20.7705 C   0  0  0  0  0  0  0  0  0  0  0  0
  -17.7417   12.4836  -20.3497 N   0  0  0  0  0  0  0  0  0  0  0  0
  -17.8527   13.7072  -20.8878 C   0  0  0  0  0  0  0  0  0  0  0  0
  -17.6034   14.1886  -22.2558 C   0  0  0  0  0  0  0  0  0  0  0  0
  -18.5936   14.7208  -22.8688 O   0  0  0  0  0  0  0  0  0  0  0  0
  -16.3425   14.0734  -22.8726 N   0  0  0  0  0  0  0  0  0  0  0  0
  -15.5608   13.6064  -22.3369 H   0  0  0  0  0  0  0  0  0  0  0  0
  -16.0186   14.5187  -24.1669 C   0  0  0  0  0  0  0  0  0  0  0  0
  -15.0710   15.5450  -24.3457 C   0  0  0  0  0  0  0  0  0  0  0  0
  -14.7280   16.0398  -25.5778 C   0  0  0  0  0  0  0  0  0  0  0  0
  -15.3062   15.5460  -26.7213 C   0  0  0  0  0  0  0  0  0  0  0  0
  -14.9902   16.0121  -27.9576 F   0  0  0  0  0  0  0  0  0  0  0  0
  -16.2337   14.5459  -26.5812 C   0  0  0  0  0  0  0  0  0  0  0  0
  -16.9784   13.9073  -28.0310 Cl  0  0  0  0  0  0  0  0  0  0  0  0
  -16.5831   14.0409  -25.3137 C   0  0  0  0  0  0  0  0  0  0  0  0
  -18.8102   14.2037  -17.3948 C   0  0  0  0  0  0  0  0  0  0  0  0
  -17.9192   14.5511  -16.5910 O   0  0  0  0  0  0  0  0  0  0  0  0
  -20.2166   14.2300  -17.0420 C   0  0  0  0  0  0  0  0  0  0  0  0
  -21.0616   13.6426  -17.7792 O   0  0  0  0  0  0  0  0  0  0  0  0
  -20.6518   14.9078  -15.8792 N   0  0  0  0  0  0  0  0  0  0  0  0
  -19.9510   15.3873  -15.2800 H   0  0  0  0  0  0  0  0  0  0  0  0
  -22.0377   14.9360  -15.5280 C   0  0  0  0  0  0  0  0  0  0  0  0
  -22.5712   13.7004  -14.8728 C   0  0  0  0  0  0  0  0  0  0  0  0
  -22.4313   16.2380  -14.8288 C   0  0  0  0  0  0  0  0  0  0  0  0
  -22.5321   16.8090  -16.1015 O   0  0  0  0  0  0  0  0  0  0  0  0
  -22.9541   15.5601  -16.5617 C   0  0  0  0  0  0  0  0  0  0  0  0
  1  2  1  0  0  0
  2  3  1  0  0  0
  3 22  1  0  0  0
 22 23  2  0  0  0
 22 24  1  0  0  0
 24 25  2  0  0  0
 24 26  1  0  0  0
 26 28  1  0  0  0
 28 29  1  0  0  0
 28 30  1  0  0  0
 30 31  1  0  0  0
 31 32  1  0  0  0
  3  4  2  0  0  0
  4  5  1  0  0  0
  5  6  1  0  0  0
  6  7  1  0  0  0
  7  8  1  0  0  0
  8  9  1  0  0  0
  9 10  1  0  0  0
 10 11  2  0  0  0
 10 12  1  0  0  0
 12 14  1  0  0  0
 14 15  2  0  0  0
 15 16  1  0  0  0
 16 17  2  0  0  0
 17 18  1  0  0  0
 17 19  1  0  0  0
 19 20  1  0  0  0
 19 21  2  0  0  0
  9  2  2  0  0  0
 21 14  1  0  0  0
 32 28  1  0  0  0
  8  4  1  0  0  0
 26 27  1  0  0  0
 12 13  1  0  0  0
M  END
> <minimizedAffinity>
-8.45679

> <CNNscore>
0.6783339381

> <CNNaffinity>
6.9299268723

> <CNN_VS>
4.7008047104

> <CNNaffinity_variance>
0.0872193724

$$$$
[H]c1c([H])c(N([H])C(=O)c2c(C([H])([H])[H])c(C(=O)C(=O)N([H])C3(C([H])([H])[H])C([H])([H])OC3([H])[H])c3n2C([H])([H])C([H])([H])C3([H])[H])c([H])c(Cl)c1F


 32 35  0  0  0  0  0  0  0  0999 V2000
  -18.4970   15.6008  -19.7899 C   0  0  0  0  0  0  0  0  0  0  0  0
  -18.1730   14.1292  -19.7424 C   0  0  0  0  0  0  0  0  0  0  0  0
  -18.2763   13.3107  -18.6499 C   0  0  0  0  0  0  0  0  0  0  0  0
  -17.8843   12.0549  -19.0502 C   0  0  0  0  0  0  0  0  0  0  0  0
  -17.7123   10.6628  -18.5595 C   0  0  0  0  0  0  0  0  0  0  0  0
  -16.8409   10.0374  -19.6025 C   0  0  0  0  0  0  0  0  0  0  0  0
  -17.1086   10.8498  -20.8368 C   0  0  0  0  0  0  0  0  0  0  0  0
  -17.5596   12.1455  -20.3485 N   0  0  0  0  0  0  0  0  0  0  0  0
  -17.7189   13.3903  -20.8218 C   0  0  0  0  0  0  0  0  0  0  0  0
  -17.4843   13.9535  -22.1609 C   0  0  0  0  0  0  0  0  0  0  0  0
  -18.4604   14.5819  -22.7009 O   0  0  0  0  0  0  0  0  0  0  0  0
  -16.2516   13.8129  -22.8274 N   0  0  0  0  0  0  0  0  0  0  0  0
  -15.4820   13.2663  -22.3528 H   0  0  0  0  0  0  0  0  0  0  0  0
  -15.9422   14.3306  -24.0981 C   0  0  0  0  0  0  0  0  0  0  0  0
  -14.9737   15.3441  -24.2328 C   0  0  0  0  0  0  0  0  0  0  0  0
  -14.6430   15.9069  -25.4388 C   0  0  0  0  0  0  0  0  0  0  0  0
  -15.2551   15.4990  -26.5982 C   0  0  0  0  0  0  0  0  0  0  0  0
  -14.9520   16.0340  -27.8096 F   0  0  0  0  0  0  0  0  0  0  0  0
  -16.2037   14.5136  -26.5011 C   0  0  0  0  0  0  0  0  0  0  0  0
  -16.9918   13.9842  -27.9717 Cl  0  0  0  0  0  0  0  0  0  0  0  0
  -16.5404   13.9385  -25.2603 C   0  0  0  0  0  0  0  0  0  0  0  0
  -18.7102   13.6611  -17.3135 C   0  0  0  0  0  0  0  0  0  0  0  0
  -18.0090   14.4658  -16.6644 O   0  0  0  0  0  0  0  0  0  0  0  0
  -19.9232   13.0839  -16.7672 C   0  0  0  0  0  0  0  0  0  0  0  0
  -21.0171   13.2101  -17.3916 O   0  0  0  0  0  0  0  0  0  0  0  0
  -19.8933   12.3801  -15.5404 N   0  0  0  0  0  0  0  0  0  0  0  0
  -18.9907   12.2816  -15.0347 H   0  0  0  0  0  0  0  0  0  0  0  0
  -21.0873   11.8096  -14.9984 C   0  0  0  0  0  0  0  0  0  0  0  0
  -22.1229   12.7836  -14.5301 C   0  0  0  0  0  0  0  0  0  0  0  0
  -21.6363   10.6793  -15.8702 C   0  0  0  0  0  0  0  0  0  0  0  0
  -20.7078    9.8407  -15.2451 O   0  0  0  0  0  0  0  0  0  0  0  0
  -20.8783   10.6116  -14.0934 C   0  0  0  0  0  0  0  0  0  0  0  0
  1  2  1  0  0  0
  2  3  1  0  0  0
  3 22  1  0  0  0
 22 23  2  0  0  0
 22 24  1  0  0  0
 24 25  2  0  0  0
 24 26  1  0  0  0
 26 28  1  0  0  0
 28 29  1  0  0  0
 28 30  1  0  0  0
 30 31  1  0  0  0
 31 32  1  0  0  0
  3  4  2  0  0  0
  4  5  1  0  0  0
  5  6  1  0  0  0
  6  7  1  0  0  0
  7  8  1  0  0  0
  8  9  1  0  0  0
  9 10  1  0  0  0
 10 11  2  0  0  0
 10 12  1  0  0  0
 12 14  1  0  0  0
 14 15  2  0  0  0
 15 16  1  0  0  0
 16 17  2  0  0  0
 17 18  1  0  0  0
 17 19  1  0  0  0
 19 20  1  0  0  0
 19 21  2  0  0  0
  9  2  2  0  0  0
 21 14  1  0  0  0
 32 28  1  0  0  0
  8  4  1  0  0  0
 26 27  1  0  0  0
 12 13  1  0  0  0
M  END
> <minimizedAffinity>
-9.23498

> <CNNscore>
0.6729819775

> <CNNaffinity>
6.8335242271

> <CNN_VS>
4.5988388062

> <CNNaffinity_variance>
0.0713565275

$$$$
[H]c1c([H])c(N([H])C(=O)c2c(C([H])([H])[H])c(C(=O)C(=O)N([H])C3(C([H])([H])[H])C([H])([H])OC3([H])[H])c3n2C([H])([H])C([H])([H])C3([H])[H])c([H])c(Cl)c1F


 32 35  0  0  0  0  0  0  0  0999 V2000
  -17.9408   11.4698  -21.2232 C   0  0  0  0  0  0  0  0  0  0  0  0
  -18.0500   12.6185  -20.2530 C   0  0  0  0  0  0  0  0  0  0  0  0
  -18.2866   12.5245  -18.9079 C   0  0  0  0  0  0  0  0  0  0  0  0
  -18.3056   13.8072  -18.4127 C   0  0  0  0  0  0  0  0  0  0  0  0
  -18.4680   14.5815  -17.1547 C   0  0  0  0  0  0  0  0  0  0  0  0
  -18.7466   15.9689  -17.6403 C   0  0  0  0  0  0  0  0  0  0  0  0
  -18.1166   16.0123  -19.0027 C   0  0  0  0  0  0  0  0  0  0  0  0
  -18.0855   14.6271  -19.4511 N   0  0  0  0  0  0  0  0  0  0  0  0
  -17.9212   13.9530  -20.5990 C   0  0  0  0  0  0  0  0  0  0  0  0
  -17.6682   14.4243  -21.9699 C   0  0  0  0  0  0  0  0  0  0  0  0
  -18.5987   15.1057  -22.5258 O   0  0  0  0  0  0  0  0  0  0  0  0
  -16.4665   14.1440  -22.6488 N   0  0  0  0  0  0  0  0  0  0  0  0
  -15.7362   13.5583  -22.1590 H   0  0  0  0  0  0  0  0  0  0  0  0
  -16.1416   14.5672  -23.9503 C   0  0  0  0  0  0  0  0  0  0  0  0
  -15.2629   15.6506  -24.1434 C   0  0  0  0  0  0  0  0  0  0  0  0
  -14.9240   16.1266  -25.3841 C   0  0  0  0  0  0  0  0  0  0  0  0
  -15.4378   15.5556  -26.5223 C   0  0  0  0  0  0  0  0  0  0  0  0
  -15.1236   16.0009  -27.7667 F   0  0  0  0  0  0  0  0  0  0  0  0
  -16.2972   14.4983  -26.3684 C   0  0  0  0  0  0  0  0  0  0  0  0
  -16.9593   13.7611  -27.8113 Cl  0  0  0  0  0  0  0  0  0  0  0  0
  -16.6427   14.0129  -25.0922 C   0  0  0  0  0  0  0  0  0  0  0  0
  -18.4843   11.3251  -18.1209 C   0  0  0  0  0  0  0  0  0  0  0  0
  -17.6938   10.3740  -18.2978 O   0  0  0  0  0  0  0  0  0  0  0  0
  -19.5717   11.2531  -17.1642 C   0  0  0  0  0  0  0  0  0  0  0  0
  -20.6071   11.9615  -17.3335 O   0  0  0  0  0  0  0  0  0  0  0  0
  -19.4842   10.3965  -16.0419 N   0  0  0  0  0  0  0  0  0  0  0  0
  -18.6303    9.8186  -15.9109 H   0  0  0  0  0  0  0  0  0  0  0  0
  -20.5543   10.3227  -15.0962 C   0  0  0  0  0  0  0  0  0  0  0  0
  -21.8061    9.6571  -15.5764 C   0  0  0  0  0  0  0  0  0  0  0  0
  -20.0800    9.8516  -13.7208 C   0  0  0  0  0  0  0  0  0  0  0  0
  -19.6873   11.1724  -13.4814 O   0  0  0  0  0  0  0  0  0  0  0  0
  -20.7708   11.5725  -14.2661 C   0  0  0  0  0  0  0  0  0  0  0  0
  1  2  1  0  0  0
  2  3  1  0  0  0
  3 22  1  0  0  0
 22 23  2  0  0  0
 22 24  1  0  0  0
 24 25  2  0  0  0
 24 26  1  0  0  0
 26 28  1  0  0  0
 28 29  1  0  0  0
 28 30  1  0  0  0
 30 31  1  0  0  0
 31 32  1  0  0  0
  3  4  2  0  0  0
  4  5  1  0  0  0
  5  6  1  0  0  0
  6  7  1  0  0  0
  7  8  1  0  0  0
  8  9  1  0  0  0
  9 10  1  0  0  0
 10 11  2  0  0  0
 10 12  1  0  0  0
 12 14  1  0  0  0
 14 15  2  0  0  0
 15 16  1  0  0  0
 16 17  2  0  0  0
 17 18  1  0  0  0
 17 19  1  0  0  0
 19 20  1  0  0  0
 19 21  2  0  0  0
  9  2  2  0  0  0
 21 14  1  0  0  0
 32 28  1  0  0  0
  8  4  1  0  0  0
 26 27  1  0  0  0
 12 13  1  0  0  0
M  END
> <minimizedAffinity>
-8.60536

> <CNNscore>
0.3953914344

> <CNNaffinity>
6.5200424194

> <CNN_VS>
2.5779688358

> <CNNaffinity_variance>
0.0840799361

$$$$
[H]c1c([H])c(N([H])C(=O)c2c(C([H])([H])[H])c(C(=O)C(=O)N([H])C3(C([H])([H])[H])C([H])([H])OC3([H])[H])c3n2C([H])([H])C([H])([H])C3([H])[H])c([H])c(Cl)c1F


 32 35  0  0  0  0  0  0  0  0999 V2000
  -16.6502   10.1542  -20.8576 C   0  0  0  0  0  0  0  0  0  0  0  0
  -17.0044   11.6178  -20.7846 C   0  0  0  0  0  0  0  0  0  0  0  0
  -16.7414   12.5646  -21.7378 C   0  0  0  0  0  0  0  0  0  0  0  0
  -17.2350   13.7580  -21.2655 C   0  0  0  0  0  0  0  0  0  0  0  0
  -17.3885   15.1924  -21.6223 C   0  0  0  0  0  0  0  0  0  0  0  0
  -17.6923   15.8412  -20.3089 C   0  0  0  0  0  0  0  0  0  0  0  0
  -18.2956   14.7381  -19.4878 C   0  0  0  0  0  0  0  0  0  0  0  0
  -17.7718   13.5067  -20.0623 N   0  0  0  0  0  0  0  0  0  0  0  0
  -17.6594   12.2146  -19.7207 C   0  0  0  0  0  0  0  0  0  0  0  0
  -18.0888   11.4926  -18.5124 C   0  0  0  0  0  0  0  0  0  0  0  0
  -17.2636   10.6439  -18.0246 O   0  0  0  0  0  0  0  0  0  0  0  0
  -19.3443   11.7138  -17.9138 N   0  0  0  0  0  0  0  0  0  0  0  0
  -20.0020   12.4069  -18.3646 H   0  0  0  0  0  0  0  0  0  0  0  0
  -19.8240   11.0777  -16.7546 C   0  0  0  0  0  0  0  0  0  0  0  0
  -20.0795   11.8275  -15.5903 C   0  0  0  0  0  0  0  0  0  0  0  0
  -20.5255   11.2654  -14.4217 C   0  0  0  0  0  0  0  0  0  0  0  0
  -20.7488    9.9136  -14.3303 C   0  0  0  0  0  0  0  0  0  0  0  0
  -21.1906    9.3233  -13.1893 F   0  0  0  0  0  0  0  0  0  0  0  0
  -20.5090    9.1549  -15.4470 C   0  0  0  0  0  0  0  0  0  0  0  0
  -20.7897    7.4302  -15.3442 Cl  0  0  0  0  0  0  0  0  0  0  0  0
  -20.0507    9.7365  -16.6451 C   0  0  0  0  0  0  0  0  0  0  0  0
  -16.0746   12.3845  -23.0105 C   0  0  0  0  0  0  0  0  0  0  0  0
  -15.1717   11.5238  -23.0798 O   0  0  0  0  0  0  0  0  0  0  0  0
  -16.4593   13.1889  -24.1542 C   0  0  0  0  0  0  0  0  0  0  0  0
  -17.6699   13.2205  -24.5229 O   0  0  0  0  0  0  0  0  0  0  0  0
  -15.4911   13.9391  -24.8618 N   0  0  0  0  0  0  0  0  0  0  0  0
  -14.4996   13.9070  -24.5519 H   0  0  0  0  0  0  0  0  0  0  0  0
  -15.8665   14.7335  -25.9900 C   0  0  0  0  0  0  0  0  0  0  0  0
  -16.6899   14.0418  -27.0313 C   0  0  0  0  0  0  0  0  0  0  0  0
  -16.3975   16.1077  -25.5796 C   0  0  0  0  0  0  0  0  0  0  0  0
  -15.0634   16.5152  -25.4785 O   0  0  0  0  0  0  0  0  0  0  0  0
  -14.7806   15.6423  -26.5310 C   0  0  0  0  0  0  0  0  0  0  0  0
  1  2  1  0  0  0
  2  3  1  0  0  0
  3 22  1  0  0  0
 22 23  2  0  0  0
 22 24  1  0  0  0
 24 25  2  0  0  0
 24 26  1  0  0  0
 26 28  1  0  0  0
 28 29  1  0  0  0
 28 30  1  0  0  0
 30 31  1  0  0  0
 31 32  1  0  0  0
  3  4  2  0  0  0
  4  5  1  0  0  0
  5  6  1  0  0  0
  6  7  1  0  0  0
  7  8  1  0  0  0
  8  9  1  0  0  0
  9 10  1  0  0  0
 10 11  2  0  0  0
 10 12  1  0  0  0
 12 14  1  0  0  0
 14 15  2  0  0  0
 15 16  1  0  0  0
 16 17  2  0  0  0
 17 18  1  0  0  0
 17 19  1  0  0  0
 19 20  1  0  0  0
 19 21  2  0  0  0
  9  2  2  0  0  0
 21 14  1  0  0  0
 32 28  1  0  0  0
  8  4  1  0  0  0
 26 27  1  0  0  0
 12 13  1  0  0  0
M  END
> <minimizedAffinity>
-8.88941

> <CNNscore>
0.3317887187

> <CNNaffinity>
6.6909446716

> <CNN_VS>
2.2199800014

> <CNNaffinity_variance>
0.0505449250

$$$$
[H]c1c([H])c(N([H])C(=O)c2c(C([H])([H])[H])c(C(=O)C(=O)N([H])C3(C([H])([H])[H])C([H])([H])OC3([H])[H])c3n2C([H])([H])C([H])([H])C3([H])[H])c([H])c(Cl)c1F


 32 35  0  0  0  0  0  0  0  0999 V2000
  -17.9921   10.3069  -18.0209 C   0  0  0  0  0  0  0  0  0  0  0  0
  -18.7959   11.5164  -18.4256 C   0  0  0  0  0  0  0  0  0  0  0  0
  -18.6321   12.2543  -19.5671 C   0  0  0  0  0  0  0  0  0  0  0  0
  -19.5712   13.2584  -19.5346 C   0  0  0  0  0  0  0  0  0  0  0  0
  -20.0819   14.4185  -20.3103 C   0  0  0  0  0  0  0  0  0  0  0  0
  -20.8687   15.1881  -19.2968 C   0  0  0  0  0  0  0  0  0  0  0  0
  -21.2662   14.1551  -18.2820 C   0  0  0  0  0  0  0  0  0  0  0  0
  -20.2638   13.1049  -18.3962 N   0  0  0  0  0  0  0  0  0  0  0  0
  -19.8322   12.0549  -17.6818 C   0  0  0  0  0  0  0  0  0  0  0  0
  -20.2787   11.5166  -16.3871 C   0  0  0  0  0  0  0  0  0  0  0  0
  -21.0582   10.5015  -16.4231 O   0  0  0  0  0  0  0  0  0  0  0  0
  -19.8772   12.0827  -15.1616 N   0  0  0  0  0  0  0  0  0  0  0  0
  -19.2517   12.9339  -15.1810 H   0  0  0  0  0  0  0  0  0  0  0  0
  -20.2465   11.6220  -13.8849 C   0  0  0  0  0  0  0  0  0  0  0  0
  -19.3927   10.7609  -13.1690 C   0  0  0  0  0  0  0  0  0  0  0  0
  -19.7038   10.2584  -11.9315 C   0  0  0  0  0  0  0  0  0  0  0  0
  -20.8901   10.5789  -11.3187 C   0  0  0  0  0  0  0  0  0  0  0  0
  -21.2304   10.0999  -10.0938 F   0  0  0  0  0  0  0  0  0  0  0  0
  -21.7443   11.4154  -11.9901 C   0  0  0  0  0  0  0  0  0  0  0  0
  -23.2600   11.8321  -11.2202 Cl  0  0  0  0  0  0  0  0  0  0  0  0
  -21.4208   11.9289  -13.2611 C   0  0  0  0  0  0  0  0  0  0  0  0
  -17.6681   12.0499  -20.6281 C   0  0  0  0  0  0  0  0  0  0  0  0
  -17.1513   10.9177  -20.7369 O   0  0  0  0  0  0  0  0  0  0  0  0
  -17.3290   13.1390  -21.5235 C   0  0  0  0  0  0  0  0  0  0  0  0
  -16.9243   14.2409  -21.0495 O   0  0  0  0  0  0  0  0  0  0  0  0
  -17.4473   12.9795  -22.9241 N   0  0  0  0  0  0  0  0  0  0  0  0
  -17.7804   12.0714  -23.3042 H   0  0  0  0  0  0  0  0  0  0  0  0
  -17.1140   14.0511  -23.8102 C   0  0  0  0  0  0  0  0  0  0  0  0
  -18.0445   15.2236  -23.7970 C   0  0  0  0  0  0  0  0  0  0  0  0
  -15.6326   14.4237  -23.7367 C   0  0  0  0  0  0  0  0  0  0  0  0
  -15.3930   13.3566  -24.6085 O   0  0  0  0  0  0  0  0  0  0  0  0
  -16.6355   13.6282  -25.1850 C   0  0  0  0  0  0  0  0  0  0  0  0
  1  2  1  0  0  0
  2  3  1  0  0  0
  3 22  1  0  0  0
 22 23  2  0  0  0
 22 24  1  0  0  0
 24 25  2  0  0  0
 24 26  1  0  0  0
 26 28  1  0  0  0
 28 29  1  0  0  0
 28 30  1  0  0  0
 30 31  1  0  0  0
 31 32  1  0  0  0
  3  4  2  0  0  0
  4  5  1  0  0  0
  5  6  1  0  0  0
  6  7  1  0  0  0
  7  8  1  0  0  0
  8  9  1  0  0  0
  9 10  1  0  0  0
 10 11  2  0  0  0
 10 12  1  0  0  0
 12 14  1  0  0  0
 14 15  2  0  0  0
 15 16  1  0  0  0
 16 17  2  0  0  0
 17 18  1  0  0  0
 17 19  1  0  0  0
 19 20  1  0  0  0
 19 21  2  0  0  0
  9  2  2  0  0  0
 21 14  1  0  0  0
 32 28  1  0  0  0
  8  4  1  0  0  0
 26 27  1  0  0  0
 12 13  1  0  0  0
M  END
> <minimizedAffinity>
-7.92123

> <CNNscore>
0.3145608008

> <CNNaffinity>
6.2178874016

> <CNN_VS>
1.9559036493

> <CNNaffinity_variance>
0.1611438990

$$$$
[H]c1c([H])c(N([H])C(=O)c2c(C([H])([H])[H])c(C(=O)C(=O)N([H])C3(C([H])([H])[H])C([H])([H])OC3([H])[H])c3n2C([H])([H])C([H])([H])C3([H])[H])c([H])c(Cl)c1F


 32 35  0  0  0  0  0  0  0  0999 V2000
  -19.6152   13.8149  -20.1262 C   0  0  0  0  0  0  0  0  0  0  0  0
  -19.3650   15.2330  -19.6800 C   0  0  0  0  0  0  0  0  0  0  0  0
  -19.5368   15.7277  -18.4151 C   0  0  0  0  0  0  0  0  0  0  0  0
  -19.1934   17.0587  -18.4541 C   0  0  0  0  0  0  0  0  0  0  0  0
  -19.0742   18.2695  -17.6008 C   0  0  0  0  0  0  0  0  0  0  0  0
  -19.0129   19.3849  -18.5960 C   0  0  0  0  0  0  0  0  0  0  0  0
  -18.4759   18.7358  -19.8391 C   0  0  0  0  0  0  0  0  0  0  0  0
  -18.8312   17.3289  -19.7170 N   0  0  0  0  0  0  0  0  0  0  0  0
  -18.9162   16.2485  -20.5074 C   0  0  0  0  0  0  0  0  0  0  0  0
  -18.6325   16.0739  -21.9407 C   0  0  0  0  0  0  0  0  0  0  0  0
  -19.4268   16.6542  -22.7602 O   0  0  0  0  0  0  0  0  0  0  0  0
  -17.5450   15.3066  -22.4013 N   0  0  0  0  0  0  0  0  0  0  0  0
  -16.9296   14.8269  -21.6889 H   0  0  0  0  0  0  0  0  0  0  0  0
  -17.1978   15.1017  -23.7488 C   0  0  0  0  0  0  0  0  0  0  0  0
  -16.5633   16.1247  -24.4796 C   0  0  0  0  0  0  0  0  0  0  0  0
  -16.2199   15.9972  -25.8011 C   0  0  0  0  0  0  0  0  0  0  0  0
  -16.4850   14.8389  -26.4894 C   0  0  0  0  0  0  0  0  0  0  0  0
  -16.1585   14.6780  -27.7983 F   0  0  0  0  0  0  0  0  0  0  0  0
  -17.1028   13.8232  -25.8062 C   0  0  0  0  0  0  0  0  0  0  0  0
  -17.4465   12.3411  -26.6718 Cl  0  0  0  0  0  0  0  0  0  0  0  0
  -17.4540   13.9587  -24.4490 C   0  0  0  0  0  0  0  0  0  0  0  0
  -19.9906   15.0190  -17.2366 C   0  0  0  0  0  0  0  0  0  0  0  0
  -19.2060   14.2031  -16.7080 O   0  0  0  0  0  0  0  0  0  0  0  0
  -21.3173   15.2648  -16.7052 C   0  0  0  0  0  0  0  0  0  0  0  0
  -22.3213   15.2248  -17.4752 O   0  0  0  0  0  0  0  0  0  0  0  0
  -21.4983   15.5494  -15.3313 N   0  0  0  0  0  0  0  0  0  0  0  0
  -20.6682   15.5802  -14.7067 H   0  0  0  0  0  0  0  0  0  0  0  0
  -22.8048   15.7924  -14.8035 C   0  0  0  0  0  0  0  0  0  0  0  0
  -23.6698   14.5849  -14.6182 C   0  0  0  0  0  0  0  0  0  0  0  0
  -22.7768   16.7360  -13.6003 C   0  0  0  0  0  0  0  0  0  0  0  0
  -22.7283   17.7908  -14.5174 O   0  0  0  0  0  0  0  0  0  0  0  0
  -23.5137   17.0083  -15.3664 C   0  0  0  0  0  0  0  0  0  0  0  0
  1  2  1  0  0  0
  2  3  1  0  0  0
  3 22  1  0  0  0
 22 23  2  0  0  0
 22 24  1  0  0  0
 24 25  2  0  0  0
 24 26  1  0  0  0
 26 28  1  0  0  0
 28 29  1  0  0  0
 28 30  1  0  0  0
 30 31  1  0  0  0
 31 32  1  0  0  0
  3  4  2  0  0  0
  4  5  1  0  0  0
  5  6  1  0  0  0
  6  7  1  0  0  0
  7  8  1  0  0  0
  8  9  1  0  0  0
  9 10  1  0  0  0
 10 11  2  0  0  0
 10 12  1  0  0  0
 12 14  1  0  0  0
 14 15  2  0  0  0
 15 16  1  0  0  0
 16 17  2  0  0  0
 17 18  1  0  0  0
 17 19  1  0  0  0
 19 20  1  0  0  0
 19 21  2  0  0  0
  9  2  2  0  0  0
 21 14  1  0  0  0
 32 28  1  0  0  0
  8  4  1  0  0  0
 26 27  1  0  0  0
 12 13  1  0  0  0
M  END
> <minimizedAffinity>
-7.11361

> <CNNscore>
0.3016930521

> <CNNaffinity>
6.0862746239

> <CNN_VS>
1.8361867666

> <CNNaffinity_variance>
0.1974181980

$$$$
[H]c1c([H])c(N([H])C(=O)c2c(C([H])([H])[H])c(C(=O)C(=O)N([H])C3(C([H])([H])[H])C([H])([H])OC3([H])[H])c3n2C([H])([H])C([H])([H])C3([H])[H])c([H])c(Cl)c1F


 32 35  0  0  0  0  0  0  0  0999 V2000
  -17.0470   10.6060  -19.2678 C   0  0  0  0  0  0  0  0  0  0  0  0
  -17.8091   11.8378  -19.6856 C   0  0  0  0  0  0  0  0  0  0  0  0
  -17.6464   12.5355  -20.8522 C   0  0  0  0  0  0  0  0  0  0  0  0
  -18.5401   13.5803  -20.8235 C   0  0  0  0  0  0  0  0  0  0  0  0
  -19.0223   14.7395  -21.6185 C   0  0  0  0  0  0  0  0  0  0  0  0
  -19.7460   15.5710  -20.6070 C   0  0  0  0  0  0  0  0  0  0  0  0
  -20.1583   14.5853  -19.5518 C   0  0  0  0  0  0  0  0  0  0  0  0
  -19.2058   13.4894  -19.6626 N   0  0  0  0  0  0  0  0  0  0  0  0
  -18.7996   12.4419  -18.9298 C   0  0  0  0  0  0  0  0  0  0  0  0
  -19.2317   11.9602  -17.6082 C   0  0  0  0  0  0  0  0  0  0  0  0
  -19.1254   12.7821  -16.6323 O   0  0  0  0  0  0  0  0  0  0  0  0
  -19.7371   10.6602  -17.4130 N   0  0  0  0  0  0  0  0  0  0  0  0
  -19.7851   10.0086  -18.2433 H   0  0  0  0  0  0  0  0  0  0  0  0
  -20.1827   10.1283  -16.1895 C   0  0  0  0  0  0  0  0  0  0  0  0
  -19.3034    9.3847  -15.3789 C   0  0  0  0  0  0  0  0  0  0  0  0
  -19.6812    8.8205  -14.1875 C   0  0  0  0  0  0  0  0  0  0  0  0
  -20.9645    8.9575  -13.7186 C   0  0  0  0  0  0  0  0  0  0  0  0
  -21.3730    8.4125  -12.5430 F   0  0  0  0  0  0  0  0  0  0  0  0
  -21.8458    9.6758  -14.4850 C   0  0  0  0  0  0  0  0  0  0  0  0
  -23.4851    9.8582  -13.8987 Cl  0  0  0  0  0  0  0  0  0  0  0  0
  -21.4535   10.2534  -15.7082 C   0  0  0  0  0  0  0  0  0  0  0  0
  -16.7228   12.2593  -21.9328 C   0  0  0  0  0  0  0  0  0  0  0  0
  -15.9863   11.2555  -21.8288 O   0  0  0  0  0  0  0  0  0  0  0  0
  -16.6720   13.1337  -23.0885 C   0  0  0  0  0  0  0  0  0  0  0  0
  -17.3625   12.8621  -24.1142 O   0  0  0  0  0  0  0  0  0  0  0  0
  -15.8559   14.2890  -23.0786 N   0  0  0  0  0  0  0  0  0  0  0  0
  -15.2924   14.5040  -22.2322 H   0  0  0  0  0  0  0  0  0  0  0  0
  -15.8031   15.1537  -24.2163 C   0  0  0  0  0  0  0  0  0  0  0  0
  -15.0033   14.6554  -25.3794 C   0  0  0  0  0  0  0  0  0  0  0  0
  -17.1804   15.7034  -24.5901 C   0  0  0  0  0  0  0  0  0  0  0  0
  -16.9891   16.6660  -23.5937 O   0  0  0  0  0  0  0  0  0  0  0  0
  -15.6277   16.6261  -23.9017 C   0  0  0  0  0  0  0  0  0  0  0  0
  1  2  1  0  0  0
  2  3  1  0  0  0
  3 22  1  0  0  0
 22 23  2  0  0  0
 22 24  1  0  0  0
 24 25  2  0  0  0
 24 26  1  0  0  0
 26 28  1  0  0  0
 28 29  1  0  0  0
 28 30  1  0  0  0
 30 31  1  0  0  0
 31 32  1  0  0  0
  3  4  2  0  0  0
  4  5  1  0  0  0
  5  6  1  0  0  0
  6  7  1  0  0  0
  7  8  1  0  0  0
  8  9  1  0  0  0
  9 10  1  0  0  0
 10 11  2  0  0  0
 10 12  1  0  0  0
 12 14  1  0  0  0
 14 15  2  0  0  0
 15 16  1  0  0  0
 16 17  2  0  0  0
 17 18  1  0  0  0
 17 19  1  0  0  0
 19 20  1  0  0  0
 19 21  2  0  0  0
  9  2  2  0  0  0
 21 14  1  0  0  0
 32 28  1  0  0  0
  8  4  1  0  0  0
 26 27  1  0  0  0
 12 13  1  0  0  0
M  END
> <minimizedAffinity>
-7.88133

> <CNNscore>
0.2701954842

> <CNNaffinity>
6.5533342361

> <CNN_VS>
1.7706812620

> <CNNaffinity_variance>
0.1135837063

$$$$
[H]c1c([H])c(N([H])C(=O)c2c(C([H])([H])[H])c(C(=O)C(=O)N([H])C3(C([H])([H])[H])C([H])([H])OC3([H])[H])c3n2C([H])([H])C([H])([H])C3([H])[H])c([H])c(Cl)c1F


 32 35  0  0  0  0  0  0  0  0999 V2000
  -17.9877   16.3116  -19.8382 C   0  0  0  0  0  0  0  0  0  0  0  0
  -17.9441   14.8110  -19.6993 C   0  0  0  0  0  0  0  0  0  0  0  0
  -18.3367   14.0859  -18.6064 C   0  0  0  0  0  0  0  0  0  0  0  0
  -18.1289   12.7604  -18.9080 C   0  0  0  0  0  0  0  0  0  0  0  0
  -18.2776   11.3894  -18.3541 C   0  0  0  0  0  0  0  0  0  0  0  0
  -17.4038   10.5638  -19.2448 C   0  0  0  0  0  0  0  0  0  0  0  0
  -17.3551   11.3398  -20.5295 C   0  0  0  0  0  0  0  0  0  0  0  0
  -17.6249   12.7197  -20.1503 N   0  0  0  0  0  0  0  0  0  0  0  0
  -17.4928   13.9447  -20.6806 C   0  0  0  0  0  0  0  0  0  0  0  0
  -16.9858   14.3821  -21.9910 C   0  0  0  0  0  0  0  0  0  0  0  0
  -16.1733   15.3715  -21.9934 O   0  0  0  0  0  0  0  0  0  0  0  0
  -17.3698   13.7528  -23.1910 N   0  0  0  0  0  0  0  0  0  0  0  0
  -18.0606   12.9549  -23.1425 H   0  0  0  0  0  0  0  0  0  0  0  0
  -16.9224   14.0993  -24.4787 C   0  0  0  0  0  0  0  0  0  0  0  0
  -17.5642   13.5729  -25.6163 C   0  0  0  0  0  0  0  0  0  0  0  0
  -17.1632   13.8524  -26.8976 C   0  0  0  0  0  0  0  0  0  0  0  0
  -16.0922   14.6779  -27.1365 C   0  0  0  0  0  0  0  0  0  0  0  0
  -15.6680   14.9765  -28.3921 F   0  0  0  0  0  0  0  0  0  0  0  0
  -15.4450   15.2066  -26.0494 C   0  0  0  0  0  0  0  0  0  0  0  0
  -14.0779   16.2606  -26.3399 Cl  0  0  0  0  0  0  0  0  0  0  0  0
  -15.8601   14.9166  -24.7352 C   0  0  0  0  0  0  0  0  0  0  0  0
  -18.8725   14.5812  -17.3556 C   0  0  0  0  0  0  0  0  0  0  0  0
  -18.4162   14.1034  -16.2953 O   0  0  0  0  0  0  0  0  0  0  0  0
  -19.9051   15.5993  -17.3583 C   0  0  0  0  0  0  0  0  0  0  0  0
  -19.8804   16.5233  -16.4933 O   0  0  0  0  0  0  0  0  0  0  0  0
  -20.9411   15.5678  -18.3210 N   0  0  0  0  0  0  0  0  0  0  0  0
  -20.9533   14.8054  -19.0273 H   0  0  0  0  0  0  0  0  0  0  0  0
  -21.9611   16.5699  -18.3269 C   0  0  0  0  0  0  0  0  0  0  0  0
  -22.9799   16.4719  -17.2346 C   0  0  0  0  0  0  0  0  0  0  0  0
  -21.3916   17.9745  -18.5309 C   0  0  0  0  0  0  0  0  0  0  0  0
  -21.3750   17.6928  -19.9007 O   0  0  0  0  0  0  0  0  0  0  0  0
  -22.5179   16.9178  -19.6932 C   0  0  0  0  0  0  0  0  0  0  0  0
  1  2  1  0  0  0
  2  3  1  0  0  0
  3 22  1  0  0  0
 22 23  2  0  0  0
 22 24  1  0  0  0
 24 25  2  0  0  0
 24 26  1  0  0  0
 26 28  1  0  0  0
 28 29  1  0  0  0
 28 30  1  0  0  0
 30 31  1  0  0  0
 31 32  1  0  0  0
  3  4  2  0  0  0
  4  5  1  0  0  0
  5  6  1  0  0  0
  6  7  1  0  0  0
  7  8  1  0  0  0
  8  9  1  0  0  0
  9 10  1  0  0  0
 10 11  2  0  0  0
 10 12  1  0  0  0
 12 14  1  0  0  0
 14 15  2  0  0  0
 15 16  1  0  0  0
 16 17  2  0  0  0
 17 18  1  0  0  0
 17 19  1  0  0  0
 19 20  1  0  0  0
 19 21  2  0  0  0
  9  2  2  0  0  0
 21 14  1  0  0  0
 32 28  1  0  0  0
  8  4  1  0  0  0
 26 27  1  0  0  0
 12 13  1  0  0  0
M  END
> <minimizedAffinity>
-8.01948

> <CNNscore>
0.2276641726

> <CNNaffinity>
6.6255006790

> <CNN_VS>
1.5083891153

> <CNNaffinity_variance>
0.1566788852

$$$$
[H]c1c([H])c(N([H])C(=O)c2c(C([H])([H])[H])c(C(=O)C(=O)N([H])C3(C([H])([H])[H])C([H])([H])OC3([H])[H])c3n2C([H])([H])C([H])([H])C3([H])[H])c([H])c(Cl)c1F


 32 35  0  0  0  0  0  0  0  0999 V2000
  -19.0758    8.8418  -16.4535 C   0  0  0  0  0  0  0  0  0  0  0  0
  -19.8398   10.0256  -15.9172 C   0  0  0  0  0  0  0  0  0  0  0  0
  -20.5506   10.0702  -14.7481 C   0  0  0  0  0  0  0  0  0  0  0  0
  -21.0830   11.3343  -14.6495 C   0  0  0  0  0  0  0  0  0  0  0  0
  -21.9123   12.1973  -13.7687 C   0  0  0  0  0  0  0  0  0  0  0  0
  -22.3183   13.3186  -14.6722 C   0  0  0  0  0  0  0  0  0  0  0  0
  -21.2395   13.3552  -15.7161 C   0  0  0  0  0  0  0  0  0  0  0  0
  -20.6888   12.0072  -15.7408 N   0  0  0  0  0  0  0  0  0  0  0  0
  -19.9260   11.2552  -16.5480 C   0  0  0  0  0  0  0  0  0  0  0  0
  -19.2854   11.5628  -17.8366 C   0  0  0  0  0  0  0  0  0  0  0  0
  -19.7826   12.5312  -18.5106 O   0  0  0  0  0  0  0  0  0  0  0  0
  -18.1805   10.8336  -18.3171 N   0  0  0  0  0  0  0  0  0  0  0  0
  -17.8184   10.0278  -17.7376 H   0  0  0  0  0  0  0  0  0  0  0  0
  -17.5042   11.0712  -19.5273 C   0  0  0  0  0  0  0  0  0  0  0  0
  -16.4227   10.2527  -19.9062 C   0  0  0  0  0  0  0  0  0  0  0  0
  -15.7077   10.4451  -21.0605 C   0  0  0  0  0  0  0  0  0  0  0  0
  -16.0202   11.4689  -21.9205 C   0  0  0  0  0  0  0  0  0  0  0  0
  -15.3338   11.6884  -23.0722 F   0  0  0  0  0  0  0  0  0  0  0  0
  -17.0683   12.2847  -21.5800 C   0  0  0  0  0  0  0  0  0  0  0  0
  -17.4773   13.5938  -22.6678 Cl  0  0  0  0  0  0  0  0  0  0  0  0
  -17.7998   12.0836  -20.3934 C   0  0  0  0  0  0  0  0  0  0  0  0
  -20.7313    9.0124  -13.7758 C   0  0  0  0  0  0  0  0  0  0  0  0
  -21.6450    8.1846  -13.9770 O   0  0  0  0  0  0  0  0  0  0  0  0
  -19.8674    8.9366  -12.6135 C   0  0  0  0  0  0  0  0  0  0  0  0
  -18.6797    8.5167  -12.7382 O   0  0  0  0  0  0  0  0  0  0  0  0
  -20.3424    9.3285  -11.3399 N   0  0  0  0  0  0  0  0  0  0  0  0
  -21.3189    9.6719  -11.2470 H   0  0  0  0  0  0  0  0  0  0  0  0
  -19.4936    9.2551  -10.1914 C   0  0  0  0  0  0  0  0  0  0  0  0
  -18.9324    7.9031   -9.8789 C   0  0  0  0  0  0  0  0  0  0  0  0
  -18.4642   10.3857  -10.1591 C   0  0  0  0  0  0  0  0  0  0  0  0
  -19.4704   11.1920   -9.6175 O   0  0  0  0  0  0  0  0  0  0  0  0
  -19.9643   10.0476   -8.9880 C   0  0  0  0  0  0  0  0  0  0  0  0
  1  2  1  0  0  0
  2  3  1  0  0  0
  3 22  1  0  0  0
 22 23  2  0  0  0
 22 24  1  0  0  0
 24 25  2  0  0  0
 24 26  1  0  0  0
 26 28  1  0  0  0
 28 29  1  0  0  0
 28 30  1  0  0  0
 30 31  1  0  0  0
 31 32  1  0  0  0
  3  4  2  0  0  0
  4  5  1  0  0  0
  5  6  1  0  0  0
  6  7  1  0  0  0
  7  8  1  0  0  0
  8  9  1  0  0  0
  9 10  1  0  0  0
 10 11  2  0  0  0
 10 12  1  0  0  0
 12 14  1  0  0  0
 14 15  2  0  0  0
 15 16  1  0  0  0
 16 17  2  0  0  0
 17 18  1  0  0  0
 17 19  1  0  0  0
 19 20  1  0  0  0
 19 21  2  0  0  0
  9  2  2  0  0  0
 21 14  1  0  0  0
 32 28  1  0  0  0
  8  4  1  0  0  0
 26 27  1  0  0  0
 12 13  1  0  0  0
M  END
> <minimizedAffinity>
-7.71148

> <CNNscore>
0.2264088988

> <CNNaffinity>
5.6777734756

> <CNN_VS>
1.2854984999

> <CNNaffinity_variance>
0.0778339952

$$$$
[H]c1c([H])c(-c2nc(-c3c([H])c(C([H])([H])[H])nc(C([H])([H])[H])c3[H])c3n2C([H])([H])[C@@]([H])(C([H])([H])[H])OC([H])([H])C3([H])[H])c([H])c(OC([H])([H])[H])c1F


 28 31  0  0  0  0  0  0  0  0999 V2000
  -18.1802   12.5829  -19.4285 C   0  0  0  0  0  0  0  0  0  0  0  0
  -17.6612   12.2925  -20.6712 N   0  0  0  0  0  0  0  0  0  0  0  0
  -17.4517   13.4070  -21.3789 C   0  0  0  0  0  0  0  0  0  0  0  0
  -17.8366   14.4528  -20.5948 C   0  0  0  0  0  0  0  0  0  0  0  0
  -17.7392   15.8973  -20.9376 C   0  0  0  0  0  0  0  0  0  0  0  0
  -19.1139   16.4774  -20.9461 C   0  0  0  0  0  0  0  0  0  0  0  0
  -19.9336   16.0497  -19.9643 O   0  0  0  0  0  0  0  0  0  0  0  0
  -19.4758   15.9760  -18.7018 C   0  0  0  0  0  0  0  0  0  0  0  0
  -18.6400   17.0759  -18.1622 C   0  0  0  0  0  0  0  0  0  0  0  0
  -18.8569   14.6271  -18.3108 C   0  0  0  0  0  0  0  0  0  0  0  0
  -18.2802   13.9107  -19.4125 N   0  0  0  0  0  0  0  0  0  0  0  0
  -16.8957   13.4689  -22.7471 C   0  0  0  0  0  0  0  0  0  0  0  0
  -17.5347   12.8918  -23.8132 C   0  0  0  0  0  0  0  0  0  0  0  0
  -17.0035   12.9606  -25.1072 C   0  0  0  0  0  0  0  0  0  0  0  0
  -17.7270   12.3198  -26.2492 C   0  0  0  0  0  0  0  0  0  0  0  0
  -15.8419   13.6123  -25.2764 N   0  0  0  0  0  0  0  0  0  0  0  0
  -15.1672   14.1984  -24.2728 C   0  0  0  0  0  0  0  0  0  0  0  0
  -13.8789   14.9188  -24.4716 C   0  0  0  0  0  0  0  0  0  0  0  0
  -15.7045   14.1236  -22.9917 C   0  0  0  0  0  0  0  0  0  0  0  0
  -20.1052   10.7718  -16.7599 C   0  0  0  0  0  0  0  0  0  0  0  0
  -19.6407   11.6999  -17.6477 C   0  0  0  0  0  0  0  0  0  0  0  0
  -18.5197   11.5168  -18.4787 C   0  0  0  0  0  0  0  0  0  0  0  0
  -17.8780   10.3227  -18.3674 C   0  0  0  0  0  0  0  0  0  0  0  0
  -18.3186    9.3365  -17.4670 C   0  0  0  0  0  0  0  0  0  0  0  0
  -19.4152    9.5826  -16.6889 C   0  0  0  0  0  0  0  0  0  0  0  0
  -19.8556    8.6457  -15.8153 F   0  0  0  0  0  0  0  0  0  0  0  0
  -21.3598   12.2974  -15.4020 C   0  0  0  0  0  0  0  0  0  0  0  0
  -21.2266   11.0017  -15.9535 O   0  0  0  0  0  0  0  0  0  0  0  0
 27 28  1  0  0  0
 28 20  1  0  0  0
 20 21  2  0  0  0
 21 22  1  0  0  0
 22 23  2  0  0  0
 23 24  1  0  0  0
 24 25  2  0  0  0
 25 26  1  0  0  0
 22  1  1  0  0  0
  1  2  2  0  0  0
  2  3  1  0  0  0
  3  4  2  0  0  0
  4  5  1  0  0  0
  5  6  1  0  0  0
  6  7  1  0  0  0
  7  8  1  0  0  0
  8  9  1  0  0  0
  8 10  1  0  0  0
 10 11  1  0  0  0
  3 12  1  0  0  0
 12 13  2  0  0  0
 13 14  1  0  0  0
 14 15  1  0  0  0
 14 16  2  0  0  0
 16 17  1  0  0  0
 17 18  1  0  0  0
 17 19  2  0  0  0
 25 20  1  0  0  0
 11  1  1  0  0  0
 19 12  1  0  0  0
 11  4  1  0  0  0
M  END
> <minimizedAffinity>
-9.39570

> <CNNscore>
0.5026983619

> <CNNaffinity>
6.9627356529

> <CNN_VS>
3.5001559258

> <CNNaffinity_variance>
0.1371719986

$$$$
[H]c1c([H])c(-c2nc(-c3c([H])c(C([H])([H])[H])nc(C([H])([H])[H])c3[H])c3n2C([H])([H])[C@@]([H])(C([H])([H])[H])OC([H])([H])C3([H])[H])c([H])c(OC([H])([H])[H])c1F


 28 31  0  0  0  0  0  0  0  0999 V2000
  -18.1819   12.5941  -19.3947 C   0  0  0  0  0  0  0  0  0  0  0  0
  -17.6539   12.3155  -20.6363 N   0  0  0  0  0  0  0  0  0  0  0  0
  -17.4451   13.4362  -21.3344 C   0  0  0  0  0  0  0  0  0  0  0  0
  -17.8396   14.4743  -20.5448 C   0  0  0  0  0  0  0  0  0  0  0  0
  -17.7466   15.9217  -20.8762 C   0  0  0  0  0  0  0  0  0  0  0  0
  -19.1239   16.4958  -20.8890 C   0  0  0  0  0  0  0  0  0  0  0  0
  -19.9477   16.0570  -19.9154 O   0  0  0  0  0  0  0  0  0  0  0  0
  -19.4974   15.9759  -18.6507 C   0  0  0  0  0  0  0  0  0  0  0  0
  -18.6700   17.0755  -18.0978 C   0  0  0  0  0  0  0  0  0  0  0  0
  -18.8748   14.6269  -18.2660 C   0  0  0  0  0  0  0  0  0  0  0  0
  -18.2880   13.9214  -19.3694 N   0  0  0  0  0  0  0  0  0  0  0  0
  -16.8810   13.5109  -22.6986 C   0  0  0  0  0  0  0  0  0  0  0  0
  -15.6994   14.1549  -22.9573 C   0  0  0  0  0  0  0  0  0  0  0  0
  -15.1692   14.2154  -24.2522 C   0  0  0  0  0  0  0  0  0  0  0  0
  -13.8765   14.9264  -24.5000 C   0  0  0  0  0  0  0  0  0  0  0  0
  -15.8556   13.6210  -25.2412 N   0  0  0  0  0  0  0  0  0  0  0  0
  -17.0186   12.9747  -25.0526 C   0  0  0  0  0  0  0  0  0  0  0  0
  -17.7721   12.3186  -26.1572 C   0  0  0  0  0  0  0  0  0  0  0  0
  -17.5355   12.9209  -23.7621 C   0  0  0  0  0  0  0  0  0  0  0  0
  -20.0987   10.7677  -16.7307 C   0  0  0  0  0  0  0  0  0  0  0  0
  -19.6339   11.7025  -17.6112 C   0  0  0  0  0  0  0  0  0  0  0  0
  -18.5224   11.5195  -18.4551 C   0  0  0  0  0  0  0  0  0  0  0  0
  -17.8909   10.3182  -18.3647 C   0  0  0  0  0  0  0  0  0  0  0  0
  -18.3322    9.3249  -17.4725 C   0  0  0  0  0  0  0  0  0  0  0  0
  -19.4192    9.5714  -16.6810 C   0  0  0  0  0  0  0  0  0  0  0  0
  -19.8600    8.6277  -15.8149 F   0  0  0  0  0  0  0  0  0  0  0  0
  -20.9936   11.7703  -14.7460 C   0  0  0  0  0  0  0  0  0  0  0  0
  -21.2103   10.9978  -15.9109 O   0  0  0  0  0  0  0  0  0  0  0  0
 27 28  1  0  0  0
 28 20  1  0  0  0
 20 21  2  0  0  0
 21 22  1  0  0  0
 22 23  2  0  0  0
 23 24  1  0  0  0
 24 25  2  0  0  0
 25 26  1  0  0  0
 22  1  1  0  0  0
  1  2  2  0  0  0
  2  3  1  0  0  0
  3  4  2  0  0  0
  4  5  1  0  0  0
  5  6  1  0  0  0
  6  7  1  0  0  0
  7  8  1  0  0  0
  8  9  1  0  0  0
  8 10  1  0  0  0
 10 11  1  0  0  0
  3 12  1  0  0  0
 12 13  2  0  0  0
 13 14  1  0  0  0
 14 15  1  0  0  0
 14 16  2  0  0  0
 16 17  1  0  0  0
 17 18  1  0  0  0
 17 19  2  0  0  0
 25 20  1  0  0  0
 11  1  1  0  0  0
 19 12  1  0  0  0
 11  4  1  0  0  0
M  END
> <minimizedAffinity>
-9.42266

> <CNNscore>
0.4789738357

> <CNNaffinity>
6.9487543106

> <CNN_VS>
3.3282713890

> <CNNaffinity_variance>
0.1405075788

$$$$
[H]c1c([H])c(-c2nc(-c3c([H])c(C([H])([H])[H])nc(C([H])([H])[H])c3[H])c3n2C([H])([H])[C@@]([H])(C([H])([H])[H])OC([H])([H])C3([H])[H])c([H])c(OC([H])([H])[H])c1F


 28 31  0  0  0  0  0  0  0  0999 V2000
  -18.3588   16.5572  -23.0642 C   0  0  0  0  0  0  0  0  0  0  0  0
  -18.6113   15.7304  -21.9915 N   0  0  0  0  0  0  0  0  0  0  0  0
  -17.7734   14.6890  -21.9774 C   0  0  0  0  0  0  0  0  0  0  0  0
  -16.9521   14.8264  -23.0559 C   0  0  0  0  0  0  0  0  0  0  0  0
  -15.8214   13.9327  -23.4252 C   0  0  0  0  0  0  0  0  0  0  0  0
  -16.1043   13.3367  -24.7636 C   0  0  0  0  0  0  0  0  0  0  0  0
  -16.6555   14.1708  -25.6688 O   0  0  0  0  0  0  0  0  0  0  0  0
  -16.1598   15.4123  -25.8163 C   0  0  0  0  0  0  0  0  0  0  0  0
  -14.6909   15.6155  -25.8322 C   0  0  0  0  0  0  0  0  0  0  0  0
  -16.8128   16.4838  -24.9324 C   0  0  0  0  0  0  0  0  0  0  0  0
  -17.3421   15.9766  -23.6987 N   0  0  0  0  0  0  0  0  0  0  0  0
  -17.7531   13.6111  -20.9661 C   0  0  0  0  0  0  0  0  0  0  0  0
  -18.3194   13.7711  -19.7285 C   0  0  0  0  0  0  0  0  0  0  0  0
  -18.3009   12.7421  -18.7787 C   0  0  0  0  0  0  0  0  0  0  0  0
  -18.9288   12.9499  -17.4367 C   0  0  0  0  0  0  0  0  0  0  0  0
  -17.7082   11.5855  -19.1159 N   0  0  0  0  0  0  0  0  0  0  0  0
  -17.1355   11.3666  -20.3116 C   0  0  0  0  0  0  0  0  0  0  0  0
  -16.4804   10.0793  -20.6754 C   0  0  0  0  0  0  0  0  0  0  0  0
  -17.1601   12.3959  -21.2473 C   0  0  0  0  0  0  0  0  0  0  0  0
  -21.4370   18.6212  -23.6738 C   0  0  0  0  0  0  0  0  0  0  0  0
  -20.5551   17.5938  -23.4952 C   0  0  0  0  0  0  0  0  0  0  0  0
  -19.1698   17.7560  -23.3071 C   0  0  0  0  0  0  0  0  0  0  0  0
  -18.7095   19.0359  -23.3064 C   0  0  0  0  0  0  0  0  0  0  0  0
  -19.5789   20.1262  -23.4872 C   0  0  0  0  0  0  0  0  0  0  0  0
  -20.9143   19.8949  -23.6657 C   0  0  0  0  0  0  0  0  0  0  0  0
  -21.7684   20.9314  -23.8416 F   0  0  0  0  0  0  0  0  0  0  0  0
  -23.2128   17.9125  -25.1193 C   0  0  0  0  0  0  0  0  0  0  0  0
  -22.8086   18.4081  -23.8577 O   0  0  0  0  0  0  0  0  0  0  0  0
 27 28  1  0  0  0
 28 20  1  0  0  0
 20 21  2  0  0  0
 21 22  1  0  0  0
 22 23  2  0  0  0
 23 24  1  0  0  0
 24 25  2  0  0  0
 25 26  1  0  0  0
 22  1  1  0  0  0
  1  2  2  0  0  0
  2  3  1  0  0  0
  3  4  2  0  0  0
  4  5  1  0  0  0
  5  6  1  0  0  0
  6  7  1  0  0  0
  7  8  1  0  0  0
  8  9  1  0  0  0
  8 10  1  0  0  0
 10 11  1  0  0  0
  3 12  1  0  0  0
 12 13  2  0  0  0
 13 14  1  0  0  0
 14 15  1  0  0  0
 14 16  2  0  0  0
 16 17  1  0  0  0
 17 18  1  0  0  0
 17 19  2  0  0  0
 25 20  1  0  0  0
 11  1  1  0  0  0
 19 12  1  0  0  0
 11  4  1  0  0  0
M  END
> <minimizedAffinity>
-8.93694

> <CNNscore>
0.3868211210

> <CNNaffinity>
6.9024901390

> <CNN_VS>
2.6700289249

> <CNNaffinity_variance>
0.0577018932

$$$$
[H]c1c([H])c(-c2nc(-c3c([H])c(C([H])([H])[H])nc(C([H])([H])[H])c3[H])c3n2C([H])([H])[C@@]([H])(C([H])([H])[H])OC([H])([H])C3([H])[H])c([H])c(OC([H])([H])[H])c1F


 28 31  0  0  0  0  0  0  0  0999 V2000
  -18.3488   16.6126  -23.0930 C   0  0  0  0  0  0  0  0  0  0  0  0
  -18.6096   15.7590  -22.0436 N   0  0  0  0  0  0  0  0  0  0  0  0
  -17.7786   14.7119  -22.0554 C   0  0  0  0  0  0  0  0  0  0  0  0
  -16.9535   14.8728  -23.1278 C   0  0  0  0  0  0  0  0  0  0  0  0
  -15.8278   13.9819  -23.5182 C   0  0  0  0  0  0  0  0  0  0  0  0
  -16.1111   13.4240  -24.8729 C   0  0  0  0  0  0  0  0  0  0  0  0
  -16.6543   14.2858  -25.7567 O   0  0  0  0  0  0  0  0  0  0  0  0
  -16.1500   15.5276  -25.8694 C   0  0  0  0  0  0  0  0  0  0  0  0
  -14.6797   15.7213  -25.8762 C   0  0  0  0  0  0  0  0  0  0  0  0
  -16.7982   16.5792  -24.9586 C   0  0  0  0  0  0  0  0  0  0  0  0
  -17.3342   16.0425  -23.7404 N   0  0  0  0  0  0  0  0  0  0  0  0
  -17.7682   13.6071  -21.0735 C   0  0  0  0  0  0  0  0  0  0  0  0
  -17.1547   12.4108  -21.3387 C   0  0  0  0  0  0  0  0  0  0  0  0
  -17.1447   11.3716  -20.3999 C   0  0  0  0  0  0  0  0  0  0  0  0
  -16.4654   10.0780  -20.7215 C   0  0  0  0  0  0  0  0  0  0  0  0
  -17.7575   11.5806  -19.2237 N   0  0  0  0  0  0  0  0  0  0  0  0
  -18.3763   12.7297  -18.9037 C   0  0  0  0  0  0  0  0  0  0  0  0
  -19.0533   12.9511  -17.5956 C   0  0  0  0  0  0  0  0  0  0  0  0
  -18.3797   13.7551  -19.8440 C   0  0  0  0  0  0  0  0  0  0  0  0
  -21.4092   18.7110  -23.6739 C   0  0  0  0  0  0  0  0  0  0  0  0
  -20.5343   17.6738  -23.5187 C   0  0  0  0  0  0  0  0  0  0  0  0
  -19.1511   17.8230  -23.3055 C   0  0  0  0  0  0  0  0  0  0  0  0
  -18.6856   19.0998  -23.2539 C   0  0  0  0  0  0  0  0  0  0  0  0
  -19.5477   20.1998  -23.4090 C   0  0  0  0  0  0  0  0  0  0  0  0
  -20.8814   19.9811  -23.6142 C   0  0  0  0  0  0  0  0  0  0  0  0
  -21.7285   21.0271  -23.7661 F   0  0  0  0  0  0  0  0  0  0  0  0
  -23.1447   17.7531  -25.0215 C   0  0  0  0  0  0  0  0  0  0  0  0
  -22.7790   18.5108  -23.8844 O   0  0  0  0  0  0  0  0  0  0  0  0
 27 28  1  0  0  0
 28 20  1  0  0  0
 20 21  2  0  0  0
 21 22  1  0  0  0
 22 23  2  0  0  0
 23 24  1  0  0  0
 24 25  2  0  0  0
 25 26  1  0  0  0
 22  1  1  0  0  0
  1  2  2  0  0  0
  2  3  1  0  0  0
  3  4  2  0  0  0
  4  5  1  0  0  0
  5  6  1  0  0  0
  6  7  1  0  0  0
  7  8  1  0  0  0
  8  9  1  0  0  0
  8 10  1  0  0  0
 10 11  1  0  0  0
  3 12  1  0  0  0
 12 13  2  0  0  0
 13 14  1  0  0  0
 14 15  1  0  0  0
 14 16  2  0  0  0
 16 17  1  0  0  0
 17 18  1  0  0  0
 17 19  2  0  0  0
 25 20  1  0  0  0
 11  1  1  0  0  0
 19 12  1  0  0  0
 11  4  1  0  0  0
M  END
> <minimizedAffinity>
-8.98780

> <CNNscore>
0.3786861002

> <CNNaffinity>
6.8864860535

> <CNN_VS>
2.6078164577

> <CNNaffinity_variance>
0.0552927852

$$$$
[H]c1c([H])c(-c2nc(-c3c([H])c(C([H])([H])[H])nc(C([H])([H])[H])c3[H])c3n2C([H])([H])[C@@]([H])(C([H])([H])[H])OC([H])([H])C3([H])[H])c([H])c(OC([H])([H])[H])c1F


 28 31  0  0  0  0  0  0  0  0999 V2000
  -18.0002   14.3928  -22.6935 C   0  0  0  0  0  0  0  0  0  0  0  0
  -18.3459   13.4025  -21.8003 N   0  0  0  0  0  0  0  0  0  0  0  0
  -18.5399   13.9032  -20.5761 C   0  0  0  0  0  0  0  0  0  0  0  0
  -18.3204   15.2455  -20.6575 C   0  0  0  0  0  0  0  0  0  0  0  0
  -18.4686   16.2336  -19.5552 C   0  0  0  0  0  0  0  0  0  0  0  0
  -17.1431   16.8730  -19.3087 C   0  0  0  0  0  0  0  0  0  0  0  0
  -16.4219   17.1637  -20.4106 O   0  0  0  0  0  0  0  0  0  0  0  0
  -17.0227   17.7470  -21.4631 C   0  0  0  0  0  0  0  0  0  0  0  0
  -17.9865   18.8509  -21.2348 C   0  0  0  0  0  0  0  0  0  0  0  0
  -17.5961   16.7776  -22.5057 C   0  0  0  0  0  0  0  0  0  0  0  0
  -17.9886   15.5075  -21.9650 N   0  0  0  0  0  0  0  0  0  0  0  0
  -18.9299   13.1290  -19.3788 C   0  0  0  0  0  0  0  0  0  0  0  0
  -19.8134   13.6233  -18.4553 C   0  0  0  0  0  0  0  0  0  0  0  0
  -20.1818   12.8802  -17.3268 C   0  0  0  0  0  0  0  0  0  0  0  0
  -21.1494   13.4496  -16.3379 C   0  0  0  0  0  0  0  0  0  0  0  0
  -19.6414   11.6608  -17.1728 N   0  0  0  0  0  0  0  0  0  0  0  0
  -18.7701   11.1205  -18.0416 C   0  0  0  0  0  0  0  0  0  0  0  0
  -18.1764    9.7666  -17.8610 C   0  0  0  0  0  0  0  0  0  0  0  0
  -18.4116   11.8678  -19.1589 C   0  0  0  0  0  0  0  0  0  0  0  0
  -16.5651   14.8268  -26.1372 C   0  0  0  0  0  0  0  0  0  0  0  0
  -16.9568   15.0097  -24.8417 C   0  0  0  0  0  0  0  0  0  0  0  0
  -17.7097   14.0818  -24.0980 C   0  0  0  0  0  0  0  0  0  0  0  0
  -18.0533   12.9338  -24.7414 C   0  0  0  0  0  0  0  0  0  0  0  0
  -17.6737   12.7009  -26.0752 C   0  0  0  0  0  0  0  0  0  0  0  0
  -16.9429   13.6471  -26.7380 C   0  0  0  0  0  0  0  0  0  0  0  0
  -16.5674   13.4419  -28.0233 F   0  0  0  0  0  0  0  0  0  0  0  0
  -14.4612   15.9300  -26.4561 C   0  0  0  0  0  0  0  0  0  0  0  0
  -15.8158   15.7815  -26.8355 O   0  0  0  0  0  0  0  0  0  0  0  0
 27 28  1  0  0  0
 28 20  1  0  0  0
 20 21  2  0  0  0
 21 22  1  0  0  0
 22 23  2  0  0  0
 23 24  1  0  0  0
 24 25  2  0  0  0
 25 26  1  0  0  0
 22  1  1  0  0  0
  1  2  2  0  0  0
  2  3  1  0  0  0
  3  4  2  0  0  0
  4  5  1  0  0  0
  5  6  1  0  0  0
  6  7  1  0  0  0
  7  8  1  0  0  0
  8  9  1  0  0  0
  8 10  1  0  0  0
 10 11  1  0  0  0
  3 12  1  0  0  0
 12 13  2  0  0  0
 13 14  1  0  0  0
 14 15  1  0  0  0
 14 16  2  0  0  0
 16 17  1  0  0  0
 17 18  1  0  0  0
 17 19  2  0  0  0
 25 20  1  0  0  0
 11  1  1  0  0  0
 19 12  1  0  0  0
 11  4  1  0  0  0
M  END
> <minimizedAffinity>
-8.56578

> <CNNscore>
0.3496957123

> <CNNaffinity>
6.8914322853

> <CNN_VS>
2.4099042416

> <CNNaffinity_variance>
0.1037994251

$$$$
[H]c1c([H])c(-c2nc(-c3c([H])c(C([H])([H])[H])nc(C([H])([H])[H])c3[H])c3n2C([H])([H])[C@@]([H])(C([H])([H])[H])OC([H])([H])C3([H])[H])c([H])c(OC([H])([H])[H])c1F


 28 31  0  0  0  0  0  0  0  0999 V2000
  -19.1396   15.8902  -17.4933 C   0  0  0  0  0  0  0  0  0  0  0  0
  -18.9655   14.5333  -17.3302 N   0  0  0  0  0  0  0  0  0  0  0  0
  -18.4603   13.9756  -18.4350 C   0  0  0  0  0  0  0  0  0  0  0  0
  -18.2959   14.9765  -19.3448 C   0  0  0  0  0  0  0  0  0  0  0  0
  -17.7123   14.8455  -20.7071 C   0  0  0  0  0  0  0  0  0  0  0  0
  -18.7488   15.2345  -21.7075 C   0  0  0  0  0  0  0  0  0  0  0  0
  -19.5091   16.2981  -21.3763 O   0  0  0  0  0  0  0  0  0  0  0  0
  -18.9263   17.3991  -20.8693 C   0  0  0  0  0  0  0  0  0  0  0  0
  -17.6645   17.8990  -21.4671 C   0  0  0  0  0  0  0  0  0  0  0  0
  -18.8125   17.4303  -19.3391 C   0  0  0  0  0  0  0  0  0  0  0  0
  -18.7255   16.1311  -18.7358 N   0  0  0  0  0  0  0  0  0  0  0  0
  -18.1382   12.5435  -18.6091 C   0  0  0  0  0  0  0  0  0  0  0  0
  -17.2665   12.1113  -19.5740 C   0  0  0  0  0  0  0  0  0  0  0  0
  -16.9626   10.7528  -19.7278 C   0  0  0  0  0  0  0  0  0  0  0  0
  -16.0061   10.3148  -20.7915 C   0  0  0  0  0  0  0  0  0  0  0  0
  -17.5533    9.8783  -18.8978 N   0  0  0  0  0  0  0  0  0  0  0  0
  -18.4163   10.2385  -17.9327 C   0  0  0  0  0  0  0  0  0  0  0  0
  -19.0663    9.2599  -17.0172 C   0  0  0  0  0  0  0  0  0  0  0  0
  -18.7106   11.5907  -17.7893 C   0  0  0  0  0  0  0  0  0  0  0  0
  -21.6073   17.0242  -14.8988 C   0  0  0  0  0  0  0  0  0  0  0  0
  -20.9817   16.3800  -15.9279 C   0  0  0  0  0  0  0  0  0  0  0  0
  -19.7081   16.7175  -16.4227 C   0  0  0  0  0  0  0  0  0  0  0  0
  -19.0831   17.7597  -15.8117 C   0  0  0  0  0  0  0  0  0  0  0  0
  -19.6875   18.4539  -14.7487 C   0  0  0  0  0  0  0  0  0  0  0  0
  -20.9281   18.0723  -14.3197 C   0  0  0  0  0  0  0  0  0  0  0  0
  -21.5276   18.7282  -13.2973 F   0  0  0  0  0  0  0  0  0  0  0  0
  -22.9883   15.3738  -13.8432 C   0  0  0  0  0  0  0  0  0  0  0  0
  -22.8772   16.6504  -14.4422 O   0  0  0  0  0  0  0  0  0  0  0  0
 27 28  1  0  0  0
 28 20  1  0  0  0
 20 21  2  0  0  0
 21 22  1  0  0  0
 22 23  2  0  0  0
 23 24  1  0  0  0
 24 25  2  0  0  0
 25 26  1  0  0  0
 22  1  1  0  0  0
  1  2  2  0  0  0
  2  3  1  0  0  0
  3  4  2  0  0  0
  4  5  1  0  0  0
  5  6  1  0  0  0
  6  7  1  0  0  0
  7  8  1  0  0  0
  8  9  1  0  0  0
  8 10  1  0  0  0
 10 11  1  0  0  0
  3 12  1  0  0  0
 12 13  2  0  0  0
 13 14  1  0  0  0
 14 15  1  0  0  0
 14 16  2  0  0  0
 16 17  1  0  0  0
 17 18  1  0  0  0
 17 19  2  0  0  0
 25 20  1  0  0  0
 11  1  1  0  0  0
 19 12  1  0  0  0
 11  4  1  0  0  0
M  END
> <minimizedAffinity>
-7.89250

> <CNNscore>
0.2655527294

> <CNNaffinity>
6.1340737343

> <CNN_VS>
1.6289200783

> <CNNaffinity_variance>
0.0604446754

$$$$
[H]c1c([H])c(-c2nc(-c3c([H])c(C([H])([H])[H])nc(C([H])([H])[H])c3[H])c3n2C([H])([H])[C@@]([H])(C([H])([H])[H])OC([H])([H])C3([H])[H])c([H])c(OC([H])([H])[H])c1F


 28 31  0  0  0  0  0  0  0  0999 V2000
  -17.4732   15.4933  -22.4722 C   0  0  0  0  0  0  0  0  0  0  0  0
  -17.6123   14.3545  -21.7094 N   0  0  0  0  0  0  0  0  0  0  0  0
  -18.3174   14.5997  -20.6005 C   0  0  0  0  0  0  0  0  0  0  0  0
  -18.6520   15.9203  -20.6275 C   0  0  0  0  0  0  0  0  0  0  0  0
  -19.4833   16.6420  -19.6266 C   0  0  0  0  0  0  0  0  0  0  0  0
  -18.6555   17.7194  -19.0096 C   0  0  0  0  0  0  0  0  0  0  0  0
  -17.8470   18.3903  -19.8552 O   0  0  0  0  0  0  0  0  0  0  0  0
  -18.3238   18.8031  -21.0431 C   0  0  0  0  0  0  0  0  0  0  0  0
  -19.6765   19.4066  -21.1177 C   0  0  0  0  0  0  0  0  0  0  0  0
  -18.1455   17.8082  -22.1982 C   0  0  0  0  0  0  0  0  0  0  0  0
  -18.1155   16.4347  -21.7833 N   0  0  0  0  0  0  0  0  0  0  0  0
  -18.6656   13.6072  -19.5620 C   0  0  0  0  0  0  0  0  0  0  0  0
  -19.6529   13.8416  -18.6410 C   0  0  0  0  0  0  0  0  0  0  0  0
  -19.9802   12.8928  -17.6642 C   0  0  0  0  0  0  0  0  0  0  0  0
  -21.0639   13.1805  -16.6737 C   0  0  0  0  0  0  0  0  0  0  0  0
  -19.2949   11.7383  -17.6542 N   0  0  0  0  0  0  0  0  0  0  0  0
  -18.3166   11.4489  -18.5288 C   0  0  0  0  0  0  0  0  0  0  0  0
  -17.5624   10.1647  -18.5087 C   0  0  0  0  0  0  0  0  0  0  0  0
  -18.0002   12.3988  -19.4948 C   0  0  0  0  0  0  0  0  0  0  0  0
  -16.5174   14.4793  -25.9600 C   0  0  0  0  0  0  0  0  0  0  0  0
  -17.0964   14.5649  -24.7261 C   0  0  0  0  0  0  0  0  0  0  0  0
  -16.7126   15.4791  -23.7272 C   0  0  0  0  0  0  0  0  0  0  0  0
  -15.6938   16.3226  -24.0443 C   0  0  0  0  0  0  0  0  0  0  0  0
  -15.0662   16.2717  -25.3016 C   0  0  0  0  0  0  0  0  0  0  0  0
  -15.4900   15.3568  -26.2246 C   0  0  0  0  0  0  0  0  0  0  0  0
  -14.8986   15.2916  -27.4415 F   0  0  0  0  0  0  0  0  0  0  0  0
  -17.5307   12.3610  -26.4409 C   0  0  0  0  0  0  0  0  0  0  0  0
  -16.9354   13.5508  -26.9212 O   0  0  0  0  0  0  0  0  0  0  0  0
 27 28  1  0  0  0
 28 20  1  0  0  0
 20 21  2  0  0  0
 21 22  1  0  0  0
 22 23  2  0  0  0
 23 24  1  0  0  0
 24 25  2  0  0  0
 25 26  1  0  0  0
 22  1  1  0  0  0
  1  2  2  0  0  0
  2  3  1  0  0  0
  3  4  2  0  0  0
  4  5  1  0  0  0
  5  6  1  0  0  0
  6  7  1  0  0  0
  7  8  1  0  0  0
  8  9  1  0  0  0
  8 10  1  0  0  0
 10 11  1  0  0  0
  3 12  1  0  0  0
 12 13  2  0  0  0
 13 14  1  0  0  0
 14 15  1  0  0  0
 14 16  2  0  0  0
 16 17  1  0  0  0
 17 18  1  0  0  0
 17 19  2  0  0  0
 25 20  1  0  0  0
 11  1  1  0  0  0
 19 12  1  0  0  0
 11  4  1  0  0  0
M  END
> <minimizedAffinity>
-8.56883

> <CNNscore>
0.2502753735

> <CNNaffinity>
6.7721734047

> <CNN_VS>
1.6949082613

> <CNNaffinity_variance>
0.1048065871

$$$$
[H]c1c([H])c(-c2nc(-c3c([H])c(C([H])([H])[H])nc(C([H])([H])[H])c3[H])c3n2C([H])([H])[C@@]([H])(C([H])([H])[H])OC([H])([H])C3([H])[H])c([H])c(OC([H])([H])[H])c1F


 28 31  0  0  0  0  0  0  0  0999 V2000
  -18.6197   14.3565  -18.6074 C   0  0  0  0  0  0  0  0  0  0  0  0
  -19.0914   15.2139  -17.6378 N   0  0  0  0  0  0  0  0  0  0  0  0
  -18.9737   16.4887  -18.0223 C   0  0  0  0  0  0  0  0  0  0  0  0
  -18.4163   16.4779  -19.2656 C   0  0  0  0  0  0  0  0  0  0  0  0
  -18.1412   17.6635  -20.1213 C   0  0  0  0  0  0  0  0  0  0  0  0
  -16.6721   17.7385  -20.3715 C   0  0  0  0  0  0  0  0  0  0  0  0
  -16.0584   16.5594  -20.5993 O   0  0  0  0  0  0  0  0  0  0  0  0
  -16.6202   15.6687  -21.4359 C   0  0  0  0  0  0  0  0  0  0  0  0
  -17.2124   16.1378  -22.7122 C   0  0  0  0  0  0  0  0  0  0  0  0
  -17.5701   14.6616  -20.7734 C   0  0  0  0  0  0  0  0  0  0  0  0
  -18.2098   15.1582  -19.5886 N   0  0  0  0  0  0  0  0  0  0  0  0
  -19.3878   17.6694  -17.2353 C   0  0  0  0  0  0  0  0  0  0  0  0
  -19.7870   18.8344  -17.8365 C   0  0  0  0  0  0  0  0  0  0  0  0
  -20.1835   19.9462  -17.0828 C   0  0  0  0  0  0  0  0  0  0  0  0
  -20.6140   21.2029  -17.7709 C   0  0  0  0  0  0  0  0  0  0  0  0
  -20.1614   19.8391  -15.7446 N   0  0  0  0  0  0  0  0  0  0  0  0
  -19.7804   18.7257  -15.0958 C   0  0  0  0  0  0  0  0  0  0  0  0
  -19.7596   18.6177  -13.6104 C   0  0  0  0  0  0  0  0  0  0  0  0
  -19.3888   17.6276  -15.8548 C   0  0  0  0  0  0  0  0  0  0  0  0
  -17.4204   10.8037  -18.8230 C   0  0  0  0  0  0  0  0  0  0  0  0
  -17.5783   12.1514  -18.9779 C   0  0  0  0  0  0  0  0  0  0  0  0
  -18.6195   12.9033  -18.4021 C   0  0  0  0  0  0  0  0  0  0  0  0
  -19.5118   12.2114  -17.6438 C   0  0  0  0  0  0  0  0  0  0  0  0
  -19.3910   10.8231  -17.4560 C   0  0  0  0  0  0  0  0  0  0  0  0
  -18.3545   10.1556  -18.0465 C   0  0  0  0  0  0  0  0  0  0  0  0
  -18.2204    8.8182  -17.8780 F   0  0  0  0  0  0  0  0  0  0  0  0
  -16.2977   10.1281  -20.8301 C   0  0  0  0  0  0  0  0  0  0  0  0
  -16.3663   10.0994  -19.4175 O   0  0  0  0  0  0  0  0  0  0  0  0
 27 28  1  0  0  0
 28 20  1  0  0  0
 20 21  2  0  0  0
 21 22  1  0  0  0
 22 23  2  0  0  0
 23 24  1  0  0  0
 24 25  2  0  0  0
 25 26  1  0  0  0
 22  1  1  0  0  0
  1  2  2  0  0  0
  2  3  1  0  0  0
  3  4  2  0  0  0
  4  5  1  0  0  0
  5  6  1  0  0  0
  6  7  1  0  0  0
  7  8  1  0  0  0
  8  9  1  0  0  0
  8 10  1  0  0  0
 10 11  1  0  0  0
  3 12  1  0  0  0
 12 13  2  0  0  0
 13 14  1  0  0  0
 14 15  1  0  0  0
 14 16  2  0  0  0
 16 17  1  0  0  0
 17 18  1  0  0  0
 17 19  2  0  0  0
 25 20  1  0  0  0
 11  1  1  0  0  0
 19 12  1  0  0  0
 11  4  1  0  0  0
M  END
> <minimizedAffinity>
-8.18255

> <CNNscore>
0.2402425259

> <CNNaffinity>
6.2991881371

> <CNN_VS>
1.5133328438

> <CNNaffinity_variance>
0.0519268215

$$$$
[H]c1c([H])c(-c2nc(-c3c([H])c(C([H])([H])[H])nc(C([H])([H])[H])c3[H])c3n2C([H])([H])[C@@]([H])(C([H])([H])[H])OC([H])([H])C3([H])[H])c([H])c(OC([H])([H])[H])c1F


 28 31  0  0  0  0  0  0  0  0999 V2000
  -18.5758   14.3194  -19.0453 C   0  0  0  0  0  0  0  0  0  0  0  0
  -18.2833   14.7065  -20.3347 N   0  0  0  0  0  0  0  0  0  0  0  0
  -18.3435   16.0355  -20.4649 C   0  0  0  0  0  0  0  0  0  0  0  0
  -18.6802   16.5385  -19.2441 C   0  0  0  0  0  0  0  0  0  0  0  0
  -18.8142   17.9766  -18.8873 C   0  0  0  0  0  0  0  0  0  0  0  0
  -20.2196   18.2298  -18.4542 C   0  0  0  0  0  0  0  0  0  0  0  0
  -20.7762   17.2688  -17.6890 O   0  0  0  0  0  0  0  0  0  0  0  0
  -20.0728   16.7382  -16.6728 C   0  0  0  0  0  0  0  0  0  0  0  0
  -19.2750   17.6272  -15.7938 C   0  0  0  0  0  0  0  0  0  0  0  0
  -19.2422   15.4988  -17.0326 C   0  0  0  0  0  0  0  0  0  0  0  0
  -18.8182   15.4606  -18.4031 N   0  0  0  0  0  0  0  0  0  0  0  0
  -18.0792   16.7941  -21.7057 C   0  0  0  0  0  0  0  0  0  0  0  0
  -18.8282   17.8861  -22.0581 C   0  0  0  0  0  0  0  0  0  0  0  0
  -18.5667   18.6025  -23.2327 C   0  0  0  0  0  0  0  0  0  0  0  0
  -19.4038   19.7905  -23.5878 C   0  0  0  0  0  0  0  0  0  0  0  0
  -17.5543   18.1870  -24.0106 N   0  0  0  0  0  0  0  0  0  0  0  0
  -16.7839   17.1248  -23.7208 C   0  0  0  0  0  0  0  0  0  0  0  0
  -15.6631   16.6723  -24.5910 C   0  0  0  0  0  0  0  0  0  0  0  0
  -17.0529   16.4209  -22.5513 C   0  0  0  0  0  0  0  0  0  0  0  0
  -17.5311   10.7127  -18.9586 C   0  0  0  0  0  0  0  0  0  0  0  0
  -17.6611   12.0387  -19.2589 C   0  0  0  0  0  0  0  0  0  0  0  0
  -18.5998   12.9024  -18.6641 C   0  0  0  0  0  0  0  0  0  0  0  0
  -19.4175   12.3485  -17.7290 C   0  0  0  0  0  0  0  0  0  0  0  0
  -19.3218   10.9879  -17.3870 C   0  0  0  0  0  0  0  0  0  0  0  0
  -18.3865   10.2065  -18.0060 C   0  0  0  0  0  0  0  0  0  0  0  0
  -18.2783    8.8935  -17.6908 F   0  0  0  0  0  0  0  0  0  0  0  0
  -15.9955   10.3853  -20.7696 C   0  0  0  0  0  0  0  0  0  0  0  0
  -16.5801    9.8935  -19.5792 O   0  0  0  0  0  0  0  0  0  0  0  0
 27 28  1  0  0  0
 28 20  1  0  0  0
 20 21  2  0  0  0
 21 22  1  0  0  0
 22 23  2  0  0  0
 23 24  1  0  0  0
 24 25  2  0  0  0
 25 26  1  0  0  0
 22  1  1  0  0  0
  1  2  2  0  0  0
  2  3  1  0  0  0
  3  4  2  0  0  0
  4  5  1  0  0  0
  5  6  1  0  0  0
  6  7  1  0  0  0
  7  8  1  0  0  0
  8  9  1  0  0  0
  8 10  1  0  0  0
 10 11  1  0  0  0
  3 12  1  0  0  0
 12 13  2  0  0  0
 13 14  1  0  0  0
 14 15  1  0  0  0
 14 16  2  0  0  0
 16 17  1  0  0  0
 17 18  1  0  0  0
 17 19  2  0  0  0
 25 20  1  0  0  0
 11  1  1  0  0  0
 19 12  1  0  0  0
 11  4  1  0  0  0
M  END
> <minimizedAffinity>
-8.41764

> <CNNscore>
0.2388601005

> <CNNaffinity>
6.4306020737

> <CNN_VS>
1.5360141993

> <CNNaffinity_variance>
0.0502319820

$$$$
[H]C([H])=C([H])C(=O)N1C([H])([H])C([H])([H])[C@@]([H])(n2nc(-c3c([H])c([H])c(Oc4c([H])c([H])c([H])c([H])c4[H])c([H])c3[H])c3c(N([H])[H])nc([H])nc32)C1([H])[H]


 34 38  0  0  0  0  0  0  0  0999 V2000
  -17.1953    9.5599  -18.3090 N   0  0  0  0  0  0  0  0  0  0  0  0
  -17.0096   10.4069  -19.4179 C   0  0  0  0  0  0  0  0  0  0  0  0
  -16.1435   10.0268  -20.3757 N   0  0  0  0  0  0  0  0  0  0  0  0
  -15.9306   10.7669  -21.4867 C   0  0  0  0  0  0  0  0  0  0  0  0
  -16.6000   11.9256  -21.6552 N   0  0  0  0  0  0  0  0  0  0  0  0
  -17.4576   12.3213  -20.7262 C   0  0  0  0  0  0  0  0  0  0  0  0
  -18.2427   13.4105  -20.6722 N   0  0  0  0  0  0  0  0  0  0  0  0
  -18.9430   13.3871  -19.5650 N   0  0  0  0  0  0  0  0  0  0  0  0
  -18.6431   12.2699  -18.8376 C   0  0  0  0  0  0  0  0  0  0  0  0
  -17.7061   11.5841  -19.5599 C   0  0  0  0  0  0  0  0  0  0  0  0
  -18.0392    8.9492  -18.2360 H   0  0  0  0  0  0  0  0  0  0  0  0
  -16.5127    9.5031  -17.5232 H   0  0  0  0  0  0  0  0  0  0  0  0
  -18.3304   14.4715  -21.6662 C   0  0  0  0  0  0  0  0  0  0  0  0
  -16.9936   15.2347  -21.6909 C   0  0  0  0  0  0  0  0  0  0  0  0
  -17.4060   16.5475  -22.3536 C   0  0  0  0  0  0  0  0  0  0  0  0
  -18.8161   16.6875  -22.1211 N   0  0  0  0  0  0  0  0  0  0  0  0
  -19.2500   15.5684  -21.2570 C   0  0  0  0  0  0  0  0  0  0  0  0
  -19.7144   17.6674  -22.5674 C   0  0  0  0  0  0  0  0  0  0  0  0
  -20.9574   17.4902  -22.1879 O   0  0  0  0  0  0  0  0  0  0  0  0
  -19.4252   18.8203  -23.3784 C   0  0  0  0  0  0  0  0  0  0  0  0
  -19.0836   20.0109  -22.9666 C   0  0  0  0  0  0  0  0  0  0  0  0
  -19.2293   11.8722  -17.5682 C   0  0  0  0  0  0  0  0  0  0  0  0
  -19.6253   10.5402  -17.3656 C   0  0  0  0  0  0  0  0  0  0  0  0
  -20.2276   10.1575  -16.2003 C   0  0  0  0  0  0  0  0  0  0  0  0
  -20.4878   11.0220  -15.1592 C   0  0  0  0  0  0  0  0  0  0  0  0
  -20.0988   12.3276  -15.3612 C   0  0  0  0  0  0  0  0  0  0  0  0
  -19.4888   12.7390  -16.5301 C   0  0  0  0  0  0  0  0  0  0  0  0
  -21.0966   10.5418  -14.0288 O   0  0  0  0  0  0  0  0  0  0  0  0
  -22.3890   10.1336  -13.9234 C   0  0  0  0  0  0  0  0  0  0  0  0
  -23.4125   10.8911  -14.4455 C   0  0  0  0  0  0  0  0  0  0  0  0
  -24.7265   10.4350  -14.3152 C   0  0  0  0  0  0  0  0  0  0  0  0
  -25.0329    9.2525  -13.6816 C   0  0  0  0  0  0  0  0  0  0  0  0
  -23.9857    8.5137  -13.1676 C   0  0  0  0  0  0  0  0  0  0  0  0
  -22.6759    8.9475  -13.2857 C   0  0  0  0  0  0  0  0  0  0  0  0
  1  2  1  0  0  0
  2  3  2  0  0  0
  3  4  1  0  0  0
  4  5  2  0  0  0
  5  6  1  0  0  0
  6  7  1  0  0  0
  7  8  1  0  0  0
  8  9  2  0  0  0
  9 22  1  0  0  0
 22 23  2  0  0  0
 23 24  1  0  0  0
 24 25  2  0  0  0
 25 28  1  0  0  0
 28 29  1  0  0  0
 29 30  2  0  0  0
 30 31  1  0  0  0
 31 32  2  0  0  0
 32 33  1  0  0  0
 33 34  2  0  0  0
 25 26  1  0  0  0
 26 27  2  0  0  0
  9 10  1  0  0  0
  7 13  1  0  0  0
 13 14  1  0  0  0
 14 15  1  0  0  0
 15 16  1  0  0  0
 16 17  1  0  0  0
 16 18  1  0  0  0
 18 19  2  0  0  0
 18 20  1  0  0  0
 20 21  2  0  0  0
 10  2  1  0  0  0
 17 13  1  0  0  0
 10  6  2  0  0  0
 27 22  1  0  0  0
 34 29  1  0  0  0
  1 11  1  0  0  0
  1 12  1  0  0  0
M  END
> <minimizedAffinity>
-7.50331

> <CNNscore>
0.7078050375

> <CNNaffinity>
7.0396718979

> <CNN_VS>
4.9827151299

> <CNNaffinity_variance>
0.2077703923

$$$$
[H]C([H])=C([H])C(=O)N1C([H])([H])C([H])([H])[C@@]([H])(n2nc(-c3c([H])c([H])c(Oc4c([H])c([H])c([H])c([H])c4[H])c([H])c3[H])c3c(N([H])[H])nc([H])nc32)C1([H])[H]


 34 38  0  0  0  0  0  0  0  0999 V2000
  -17.3995    9.5574  -18.0378 N   0  0  0  0  0  0  0  0  0  0  0  0
  -17.2056   10.3705  -19.1705 C   0  0  0  0  0  0  0  0  0  0  0  0
  -16.3393    9.9571  -20.1142 N   0  0  0  0  0  0  0  0  0  0  0  0
  -16.1188   10.6630  -21.2459 C   0  0  0  0  0  0  0  0  0  0  0  0
  -16.7806   11.8204  -21.4501 N   0  0  0  0  0  0  0  0  0  0  0  0
  -17.6383   12.2483  -20.5356 C   0  0  0  0  0  0  0  0  0  0  0  0
  -18.4168   13.3434  -20.5157 N   0  0  0  0  0  0  0  0  0  0  0  0
  -19.1202   13.3568  -19.4104 N   0  0  0  0  0  0  0  0  0  0  0  0
  -18.8291   12.2595  -18.6498 C   0  0  0  0  0  0  0  0  0  0  0  0
  -17.8945   11.5472  -19.3489 C   0  0  0  0  0  0  0  0  0  0  0  0
  -18.2474    8.9543  -17.9494 H   0  0  0  0  0  0  0  0  0  0  0  0
  -16.7194    9.5195  -17.2487 H   0  0  0  0  0  0  0  0  0  0  0  0
  -18.4952   14.3754  -21.5407 C   0  0  0  0  0  0  0  0  0  0  0  0
  -17.1334   15.0885  -21.6266 C   0  0  0  0  0  0  0  0  0  0  0  0
  -17.5179   16.3940  -22.3197 C   0  0  0  0  0  0  0  0  0  0  0  0
  -18.9150   16.5923  -22.0533 N   0  0  0  0  0  0  0  0  0  0  0  0
  -19.3633   15.5172  -21.1420 C   0  0  0  0  0  0  0  0  0  0  0  0
  -19.7904   17.5896  -22.5062 C   0  0  0  0  0  0  0  0  0  0  0  0
  -21.0276   17.4696  -22.0872 O   0  0  0  0  0  0  0  0  0  0  0  0
  -19.4838   18.7054  -23.3615 C   0  0  0  0  0  0  0  0  0  0  0  0
  -18.9901   19.8607  -23.0073 C   0  0  0  0  0  0  0  0  0  0  0  0
  -19.4213   11.9028  -17.3709 C   0  0  0  0  0  0  0  0  0  0  0  0
  -19.9545   10.6179  -17.1794 C   0  0  0  0  0  0  0  0  0  0  0  0
  -20.5637   10.2799  -16.0040 C   0  0  0  0  0  0  0  0  0  0  0  0
  -20.7004   11.1468  -14.9415 C   0  0  0  0  0  0  0  0  0  0  0  0
  -20.1769   12.4062  -15.1326 C   0  0  0  0  0  0  0  0  0  0  0  0
  -19.5570   12.7720  -16.3115 C   0  0  0  0  0  0  0  0  0  0  0  0
  -21.3276   10.7132  -13.8024 O   0  0  0  0  0  0  0  0  0  0  0  0
  -20.8496   10.8133  -12.5337 C   0  0  0  0  0  0  0  0  0  0  0  0
  -21.5257   11.5406  -11.5808 C   0  0  0  0  0  0  0  0  0  0  0  0
  -20.9996   11.6176  -10.2890 C   0  0  0  0  0  0  0  0  0  0  0  0
  -19.8267   10.9903   -9.9362 C   0  0  0  0  0  0  0  0  0  0  0  0
  -19.1703   10.2679  -10.9129 C   0  0  0  0  0  0  0  0  0  0  0  0
  -19.6743   10.1786  -12.1996 C   0  0  0  0  0  0  0  0  0  0  0  0
  1  2  1  0  0  0
  2  3  2  0  0  0
  3  4  1  0  0  0
  4  5  2  0  0  0
  5  6  1  0  0  0
  6  7  1  0  0  0
  7  8  1  0  0  0
  8  9  2  0  0  0
  9 22  1  0  0  0
 22 23  2  0  0  0
 23 24  1  0  0  0
 24 25  2  0  0  0
 25 28  1  0  0  0
 28 29  1  0  0  0
 29 30  2  0  0  0
 30 31  1  0  0  0
 31 32  2  0  0  0
 32 33  1  0  0  0
 33 34  2  0  0  0
 25 26  1  0  0  0
 26 27  2  0  0  0
  9 10  1  0  0  0
  7 13  1  0  0  0
 13 14  1  0  0  0
 14 15  1  0  0  0
 15 16  1  0  0  0
 16 17  1  0  0  0
 16 18  1  0  0  0
 18 19  2  0  0  0
 18 20  1  0  0  0
 20 21  2  0  0  0
 10  2  1  0  0  0
 17 13  1  0  0  0
 10  6  2  0  0  0
 27 22  1  0  0  0
 34 29  1  0  0  0
  1 11  1  0  0  0
  1 12  1  0  0  0
M  END
> <minimizedAffinity>
-7.98560

> <CNNscore>
0.6984608769

> <CNNaffinity>
6.9787011147

> <CNN_VS>
4.8743495941

> <CNNaffinity_variance>
0.1392562985

$$$$
[H]C([H])=C([H])C(=O)N1C([H])([H])C([H])([H])[C@@]([H])(n2nc(-c3c([H])c([H])c(Oc4c([H])c([H])c([H])c([H])c4[H])c([H])c3[H])c3c(N([H])[H])nc([H])nc32)C1([H])[H]


 34 38  0  0  0  0  0  0  0  0999 V2000
  -17.1324    9.7404  -18.7609 N   0  0  0  0  0  0  0  0  0  0  0  0
  -17.1028   10.7370  -19.7547 C   0  0  0  0  0  0  0  0  0  0  0  0
  -16.2677   10.5757  -20.7980 N   0  0  0  0  0  0  0  0  0  0  0  0
  -16.2007   11.4699  -21.8097 C   0  0  0  0  0  0  0  0  0  0  0  0
  -16.9897   12.5636  -21.7869 N   0  0  0  0  0  0  0  0  0  0  0  0
  -17.8198   12.7447  -20.7705 C   0  0  0  0  0  0  0  0  0  0  0  0
  -18.7024   13.7292  -20.5309 N   0  0  0  0  0  0  0  0  0  0  0  0
  -19.3237   13.4909  -19.4022 N   0  0  0  0  0  0  0  0  0  0  0  0
  -18.8694   12.3278  -18.8472 C   0  0  0  0  0  0  0  0  0  0  0  0
  -17.9188   11.8426  -19.7020 C   0  0  0  0  0  0  0  0  0  0  0  0
  -17.9060    9.0398  -18.7268 H   0  0  0  0  0  0  0  0  0  0  0  0
  -16.3979    9.6559  -18.0260 H   0  0  0  0  0  0  0  0  0  0  0  0
  -18.9576   14.8934  -21.3683 C   0  0  0  0  0  0  0  0  0  0  0  0
  -17.7638   15.8579  -21.2478 C   0  0  0  0  0  0  0  0  0  0  0  0
  -18.3823   17.1680  -21.7311 C   0  0  0  0  0  0  0  0  0  0  0  0
  -19.7976   17.0439  -21.5214 N   0  0  0  0  0  0  0  0  0  0  0  0
  -20.0466   15.7575  -20.8355 C   0  0  0  0  0  0  0  0  0  0  0  0
  -20.8420   17.9195  -21.8511 C   0  0  0  0  0  0  0  0  0  0  0  0
  -22.0410   17.4916  -21.5356 O   0  0  0  0  0  0  0  0  0  0  0  0
  -20.7414   19.2080  -22.4837 C   0  0  0  0  0  0  0  0  0  0  0  0
  -21.0393   19.5077  -23.7187 C   0  0  0  0  0  0  0  0  0  0  0  0
  -19.3303   11.7117  -17.6138 C   0  0  0  0  0  0  0  0  0  0  0  0
  -19.6708   12.5151  -16.5135 C   0  0  0  0  0  0  0  0  0  0  0  0
  -20.0544   11.9542  -15.3281 C   0  0  0  0  0  0  0  0  0  0  0  0
  -20.1364   10.5941  -15.1216 C   0  0  0  0  0  0  0  0  0  0  0  0
  -19.8014    9.8090  -16.2024 C   0  0  0  0  0  0  0  0  0  0  0  0
  -19.4102   10.3520  -17.4106 C   0  0  0  0  0  0  0  0  0  0  0  0
  -20.5325   10.1276  -13.8950 O   0  0  0  0  0  0  0  0  0  0  0  0
  -20.1131    8.9810  -13.2972 C   0  0  0  0  0  0  0  0  0  0  0  0
  -20.7780    7.7939  -13.5044 C   0  0  0  0  0  0  0  0  0  0  0  0
  -20.3136    6.6387  -12.8707 C   0  0  0  0  0  0  0  0  0  0  0  0
  -19.2127    6.6472  -12.0452 C   0  0  0  0  0  0  0  0  0  0  0  0
  -18.5659    7.8524  -11.8560 C   0  0  0  0  0  0  0  0  0  0  0  0
  -19.0095    9.0094  -12.4745 C   0  0  0  0  0  0  0  0  0  0  0  0
  1  2  1  0  0  0
  2  3  2  0  0  0
  3  4  1  0  0  0
  4  5  2  0  0  0
  5  6  1  0  0  0
  6  7  1  0  0  0
  7  8  1  0  0  0
  8  9  2  0  0  0
  9 22  1  0  0  0
 22 23  2  0  0  0
 23 24  1  0  0  0
 24 25  2  0  0  0
 25 28  1  0  0  0
 28 29  1  0  0  0
 29 30  2  0  0  0
 30 31  1  0  0  0
 31 32  2  0  0  0
 32 33  1  0  0  0
 33 34  2  0  0  0
 25 26  1  0  0  0
 26 27  2  0  0  0
  9 10  1  0  0  0
  7 13  1  0  0  0
 13 14  1  0  0  0
 14 15  1  0  0  0
 15 16  1  0  0  0
 16 17  1  0  0  0
 16 18  1  0  0  0
 18 19  2  0  0  0
 18 20  1  0  0  0
 20 21  2  0  0  0
 10  2  1  0  0  0
 17 13  1  0  0  0
 10  6  2  0  0  0
 27 22  1  0  0  0
 34 29  1  0  0  0
  1 11  1  0  0  0
  1 12  1  0  0  0
M  END
> <minimizedAffinity>
-7.74928

> <CNNscore>
0.6729107499

> <CNNaffinity>
7.0529875755

> <CNN_VS>
4.7460312843

> <CNNaffinity_variance>
0.2373771966

$$$$
[H]C([H])=C([H])C(=O)N1C([H])([H])C([H])([H])[C@@]([H])(n2nc(-c3c([H])c([H])c(Oc4c([H])c([H])c([H])c([H])c4[H])c([H])c3[H])c3c(N([H])[H])nc([H])nc32)C1([H])[H]


 34 38  0  0  0  0  0  0  0  0999 V2000
  -16.7272   10.2386  -18.4186 N   0  0  0  0  0  0  0  0  0  0  0  0
  -16.4683   10.7323  -19.7113 C   0  0  0  0  0  0  0  0  0  0  0  0
  -15.4939   10.1504  -20.4352 N   0  0  0  0  0  0  0  0  0  0  0  0
  -15.2029   10.5435  -21.6955 C   0  0  0  0  0  0  0  0  0  0  0  0
  -15.9026   11.5495  -22.2592 N   0  0  0  0  0  0  0  0  0  0  0  0
  -16.8663   12.1382  -21.5665 C   0  0  0  0  0  0  0  0  0  0  0  0
  -17.7003   13.1351  -21.9075 N   0  0  0  0  0  0  0  0  0  0  0  0
  -18.5071   13.3885  -20.9066 N   0  0  0  0  0  0  0  0  0  0  0  0
  -18.2329   12.5601  -19.8551 C   0  0  0  0  0  0  0  0  0  0  0  0
  -17.1984   11.7616  -20.2576 C   0  0  0  0  0  0  0  0  0  0  0  0
  -17.5463    9.6171  -18.2360 H   0  0  0  0  0  0  0  0  0  0  0  0
  -16.1256   10.4656  -17.5982 H   0  0  0  0  0  0  0  0  0  0  0  0
  -17.7341   13.8467  -23.1780 C   0  0  0  0  0  0  0  0  0  0  0  0
  -17.9183   12.8216  -24.3118 C   0  0  0  0  0  0  0  0  0  0  0  0
  -17.4345   13.6177  -25.5220 C   0  0  0  0  0  0  0  0  0  0  0  0
  -16.5582   14.6331  -25.0089 N   0  0  0  0  0  0  0  0  0  0  0  0
  -16.4109   14.4165  -23.5534 C   0  0  0  0  0  0  0  0  0  0  0  0
  -15.8973   15.6777  -25.6709 C   0  0  0  0  0  0  0  0  0  0  0  0
  -15.1773   16.4536  -24.8963 O   0  0  0  0  0  0  0  0  0  0  0  0
  -15.9234   15.9824  -27.0770 C   0  0  0  0  0  0  0  0  0  0  0  0
  -15.3025   15.3492  -28.0348 C   0  0  0  0  0  0  0  0  0  0  0  0
  -18.9262   12.5129  -18.5782 C   0  0  0  0  0  0  0  0  0  0  0  0
  -18.6572   13.4821  -17.5983 C   0  0  0  0  0  0  0  0  0  0  0  0
  -19.2575   13.4247  -16.3722 C   0  0  0  0  0  0  0  0  0  0  0  0
  -20.1499   12.4398  -16.0078 C   0  0  0  0  0  0  0  0  0  0  0  0
  -20.4111   11.4905  -16.9707 C   0  0  0  0  0  0  0  0  0  0  0  0
  -19.8168   11.5266  -18.2170 C   0  0  0  0  0  0  0  0  0  0  0  0
  -20.7003   12.4686  -14.7527 O   0  0  0  0  0  0  0  0  0  0  0  0
  -20.5341   11.5333  -13.7803 C   0  0  0  0  0  0  0  0  0  0  0  0
  -19.3983   10.7575  -13.7349 C   0  0  0  0  0  0  0  0  0  0  0  0
  -19.2676    9.8080  -12.7186 C   0  0  0  0  0  0  0  0  0  0  0  0
  -20.2371    9.6215  -11.7600 C   0  0  0  0  0  0  0  0  0  0  0  0
  -21.3656   10.4141  -11.8308 C   0  0  0  0  0  0  0  0  0  0  0  0
  -21.5154   11.3613  -12.8298 C   0  0  0  0  0  0  0  0  0  0  0  0
  1  2  1  0  0  0
  2  3  2  0  0  0
  3  4  1  0  0  0
  4  5  2  0  0  0
  5  6  1  0  0  0
  6  7  1  0  0  0
  7  8  1  0  0  0
  8  9  2  0  0  0
  9 22  1  0  0  0
 22 23  2  0  0  0
 23 24  1  0  0  0
 24 25  2  0  0  0
 25 28  1  0  0  0
 28 29  1  0  0  0
 29 30  2  0  0  0
 30 31  1  0  0  0
 31 32  2  0  0  0
 32 33  1  0  0  0
 33 34  2  0  0  0
 25 26  1  0  0  0
 26 27  2  0  0  0
  9 10  1  0  0  0
  7 13  1  0  0  0
 13 14  1  0  0  0
 14 15  1  0  0  0
 15 16  1  0  0  0
 16 17  1  0  0  0
 16 18  1  0  0  0
 18 19  2  0  0  0
 18 20  1  0  0  0
 20 21  2  0  0  0
 10  2  1  0  0  0
 17 13  1  0  0  0
 10  6  2  0  0  0
 27 22  1  0  0  0
 34 29  1  0  0  0
  1 11  1  0  0  0
  1 12  1  0  0  0
M  END
> <minimizedAffinity>
-8.17694

> <CNNscore>
0.6636244059

> <CNNaffinity>
7.2403793335

> <CNN_VS>
4.8048925400

> <CNNaffinity_variance>
0.2411739379

$$$$
[H]C([H])=C([H])C(=O)N1C([H])([H])C([H])([H])[C@@]([H])(n2nc(-c3c([H])c([H])c(Oc4c([H])c([H])c([H])c([H])c4[H])c([H])c3[H])c3c(N([H])[H])nc([H])nc32)C1([H])[H]


 34 38  0  0  0  0  0  0  0  0999 V2000
  -17.8149    9.3451  -17.5505 N   0  0  0  0  0  0  0  0  0  0  0  0
  -17.7862   10.2737  -18.6082 C   0  0  0  0  0  0  0  0  0  0  0  0
  -16.9619   10.0367  -19.6456 N   0  0  0  0  0  0  0  0  0  0  0  0
  -16.8968   10.8617  -20.7146 C   0  0  0  0  0  0  0  0  0  0  0  0
  -17.6767   11.9613  -20.7575 N   0  0  0  0  0  0  0  0  0  0  0  0
  -18.4960   12.2162  -19.7481 C   0  0  0  0  0  0  0  0  0  0  0  0
  -19.3684   13.2220  -19.5666 N   0  0  0  0  0  0  0  0  0  0  0  0
  -19.9814   13.0641  -18.4194 N   0  0  0  0  0  0  0  0  0  0  0  0
  -19.5315   11.9362  -17.7927 C   0  0  0  0  0  0  0  0  0  0  0  0
  -18.5927   11.3874  -18.6216 C   0  0  0  0  0  0  0  0  0  0  0  0
  -18.5939    8.6550  -17.4637 H   0  0  0  0  0  0  0  0  0  0  0  0
  -17.0745    9.3029  -16.8180 H   0  0  0  0  0  0  0  0  0  0  0  0
  -19.6218   14.3306  -20.4769 C   0  0  0  0  0  0  0  0  0  0  0  0
  -18.4782   15.3520  -20.3391 C   0  0  0  0  0  0  0  0  0  0  0  0
  -19.1209   16.6077  -20.9247 C   0  0  0  0  0  0  0  0  0  0  0  0
  -20.5397   16.4314  -20.7896 N   0  0  0  0  0  0  0  0  0  0  0  0
  -20.7752   15.1709  -20.0527 C   0  0  0  0  0  0  0  0  0  0  0  0
  -21.5982   17.2423  -21.2234 C   0  0  0  0  0  0  0  0  0  0  0  0
  -22.7950   16.7777  -20.9548 O   0  0  0  0  0  0  0  0  0  0  0  0
  -21.5139   18.5009  -21.9157 C   0  0  0  0  0  0  0  0  0  0  0  0
  -21.5913   18.7017  -23.2032 C   0  0  0  0  0  0  0  0  0  0  0  0
  -19.9863   11.4068  -16.5175 C   0  0  0  0  0  0  0  0  0  0  0  0
  -19.5439   11.9893  -15.3187 C   0  0  0  0  0  0  0  0  0  0  0  0
  -19.9162   11.4734  -14.1095 C   0  0  0  0  0  0  0  0  0  0  0  0
  -20.7326   10.3718  -13.9715 C   0  0  0  0  0  0  0  0  0  0  0  0
  -21.1645    9.8027  -15.1489 C   0  0  0  0  0  0  0  0  0  0  0  0
  -20.8016   10.3052  -16.3833 C   0  0  0  0  0  0  0  0  0  0  0  0
  -21.0505    9.9297  -12.7136 O   0  0  0  0  0  0  0  0  0  0  0  0
  -20.2519    9.9885  -11.6150 C   0  0  0  0  0  0  0  0  0  0  0  0
  -20.5155   10.8781  -10.5986 C   0  0  0  0  0  0  0  0  0  0  0  0
  -19.6694   10.9059   -9.4873 C   0  0  0  0  0  0  0  0  0  0  0  0
  -18.5799   10.0729   -9.3740 C   0  0  0  0  0  0  0  0  0  0  0  0
  -18.3403    9.1910  -10.4091 C   0  0  0  0  0  0  0  0  0  0  0  0
  -19.1663    9.1470  -11.5198 C   0  0  0  0  0  0  0  0  0  0  0  0
  1  2  1  0  0  0
  2  3  2  0  0  0
  3  4  1  0  0  0
  4  5  2  0  0  0
  5  6  1  0  0  0
  6  7  1  0  0  0
  7  8  1  0  0  0
  8  9  2  0  0  0
  9 22  1  0  0  0
 22 23  2  0  0  0
 23 24  1  0  0  0
 24 25  2  0  0  0
 25 28  1  0  0  0
 28 29  1  0  0  0
 29 30  2  0  0  0
 30 31  1  0  0  0
 31 32  2  0  0  0
 32 33  1  0  0  0
 33 34  2  0  0  0
 25 26  1  0  0  0
 26 27  2  0  0  0
  9 10  1  0  0  0
  7 13  1  0  0  0
 13 14  1  0  0  0
 14 15  1  0  0  0
 15 16  1  0  0  0
 16 17  1  0  0  0
 16 18  1  0  0  0
 18 19  2  0  0  0
 18 20  1  0  0  0
 20 21  2  0  0  0
 10  2  1  0  0  0
 17 13  1  0  0  0
 10  6  2  0  0  0
 27 22  1  0  0  0
 34 29  1  0  0  0
  1 11  1  0  0  0
  1 12  1  0  0  0
M  END
> <minimizedAffinity>
-7.59816

> <CNNscore>
0.6089000702

> <CNNaffinity>
6.8598251343

> <CNN_VS>
4.1769480705

> <CNNaffinity_variance>
0.2623603344

$$$$
[H]C([H])=C([H])C(=O)N1C([H])([H])C([H])([H])[C@@]([H])(n2nc(-c3c([H])c([H])c(Oc4c([H])c([H])c([H])c([H])c4[H])c([H])c3[H])c3c(N([H])[H])nc([H])nc32)C1([H])[H]


 34 38  0  0  0  0  0  0  0  0999 V2000
  -18.2919    9.2746  -17.6393 N   0  0  0  0  0  0  0  0  0  0  0  0
  -17.8537   10.2458  -18.5592 C   0  0  0  0  0  0  0  0  0  0  0  0
  -17.0311    9.8611  -19.5528 N   0  0  0  0  0  0  0  0  0  0  0  0
  -16.5895   10.7243  -20.4949 C   0  0  0  0  0  0  0  0  0  0  0  0
  -16.9771   12.0154  -20.4512 N   0  0  0  0  0  0  0  0  0  0  0  0
  -17.7862   12.4183  -19.4827 C   0  0  0  0  0  0  0  0  0  0  0  0
  -18.3161   13.6284  -19.2368 N   0  0  0  0  0  0  0  0  0  0  0  0
  -19.0753   13.5622  -18.1709 N   0  0  0  0  0  0  0  0  0  0  0  0
  -19.0748   12.2922  -17.6666 C   0  0  0  0  0  0  0  0  0  0  0  0
  -18.2653   11.5559  -18.4866 C   0  0  0  0  0  0  0  0  0  0  0  0
  -19.2518    8.8686  -17.7045 H   0  0  0  0  0  0  0  0  0  0  0  0
  -17.6910    8.9214  -16.8642 H   0  0  0  0  0  0  0  0  0  0  0  0
  -18.1047   14.8454  -20.0088 C   0  0  0  0  0  0  0  0  0  0  0  0
  -18.8014   16.0134  -19.2874 C   0  0  0  0  0  0  0  0  0  0  0  0
  -18.9271   17.0351  -20.4156 C   0  0  0  0  0  0  0  0  0  0  0  0
  -18.8907   16.2857  -21.6401 N   0  0  0  0  0  0  0  0  0  0  0  0
  -18.8545   14.8481  -21.2950 C   0  0  0  0  0  0  0  0  0  0  0  0
  -18.8971   16.7258  -22.9715 C   0  0  0  0  0  0  0  0  0  0  0  0
  -18.8343   15.7709  -23.8685 O   0  0  0  0  0  0  0  0  0  0  0  0
  -18.9639   18.0819  -23.4481 C   0  0  0  0  0  0  0  0  0  0  0  0
  -19.9941   18.8826  -23.4121 C   0  0  0  0  0  0  0  0  0  0  0  0
  -19.8153   11.8123  -16.5114 C   0  0  0  0  0  0  0  0  0  0  0  0
  -19.2287   11.8533  -15.2361 C   0  0  0  0  0  0  0  0  0  0  0  0
  -19.8863   11.3578  -14.1458 C   0  0  0  0  0  0  0  0  0  0  0  0
  -21.1423   10.7939  -14.2066 C   0  0  0  0  0  0  0  0  0  0  0  0
  -21.7147   10.7547  -15.4586 C   0  0  0  0  0  0  0  0  0  0  0  0
  -21.0701   11.2486  -16.5759 C   0  0  0  0  0  0  0  0  0  0  0  0
  -21.7200   10.3246  -13.0555 O   0  0  0  0  0  0  0  0  0  0  0  0
  -21.5334   10.8189  -11.8029 C   0  0  0  0  0  0  0  0  0  0  0  0
  -20.8494   10.0943  -10.8536 C   0  0  0  0  0  0  0  0  0  0  0  0
  -20.6801   10.6394   -9.5786 C   0  0  0  0  0  0  0  0  0  0  0  0
  -21.1746   11.8778   -9.2388 C   0  0  0  0  0  0  0  0  0  0  0  0
  -21.8565   12.5818  -10.2115 C   0  0  0  0  0  0  0  0  0  0  0  0
  -22.0357   12.0600  -11.4817 C   0  0  0  0  0  0  0  0  0  0  0  0
  1  2  1  0  0  0
  2  3  2  0  0  0
  3  4  1  0  0  0
  4  5  2  0  0  0
  5  6  1  0  0  0
  6  7  1  0  0  0
  7  8  1  0  0  0
  8  9  2  0  0  0
  9 22  1  0  0  0
 22 23  2  0  0  0
 23 24  1  0  0  0
 24 25  2  0  0  0
 25 28  1  0  0  0
 28 29  1  0  0  0
 29 30  2  0  0  0
 30 31  1  0  0  0
 31 32  2  0  0  0
 32 33  1  0  0  0
 33 34  2  0  0  0
 25 26  1  0  0  0
 26 27  2  0  0  0
  9 10  1  0  0  0
  7 13  1  0  0  0
 13 14  1  0  0  0
 14 15  1  0  0  0
 15 16  1  0  0  0
 16 17  1  0  0  0
 16 18  1  0  0  0
 18 19  2  0  0  0
 18 20  1  0  0  0
 20 21  2  0  0  0
 10  2  1  0  0  0
 17 13  1  0  0  0
 10  6  2  0  0  0
 27 22  1  0  0  0
 34 29  1  0  0  0
  1 11  1  0  0  0
  1 12  1  0  0  0
M  END
> <minimizedAffinity>
-7.02856

> <CNNscore>
0.4937401414

> <CNNaffinity>
6.8288850784

> <CNN_VS>
3.3716948032

> <CNNaffinity_variance>
0.5197709203

$$$$
[H]C([H])=C([H])C(=O)N1C([H])([H])C([H])([H])[C@@]([H])(n2nc(-c3c([H])c([H])c(Oc4c([H])c([H])c([H])c([H])c4[H])c([H])c3[H])c3c(N([H])[H])nc([H])nc32)C1([H])[H]


 34 38  0  0  0  0  0  0  0  0999 V2000
  -18.2594    9.2057  -17.4989 N   0  0  0  0  0  0  0  0  0  0  0  0
  -17.8690   10.2253  -18.3875 C   0  0  0  0  0  0  0  0  0  0  0  0
  -16.9864    9.9248  -19.3584 N   0  0  0  0  0  0  0  0  0  0  0  0
  -16.5834   10.8373  -20.2708 C   0  0  0  0  0  0  0  0  0  0  0  0
  -17.0728   12.0932  -20.2196 N   0  0  0  0  0  0  0  0  0  0  0  0
  -17.9426   12.4133  -19.2731 C   0  0  0  0  0  0  0  0  0  0  0  0
  -18.5740   13.5735  -19.0261 N   0  0  0  0  0  0  0  0  0  0  0  0
  -19.3603   13.4281  -17.9880 N   0  0  0  0  0  0  0  0  0  0  0  0
  -19.2763   12.1528  -17.5045 C   0  0  0  0  0  0  0  0  0  0  0  0
  -18.3848   11.4976  -18.3080 C   0  0  0  0  0  0  0  0  0  0  0  0
  -19.1816    8.7271  -17.6035 H   0  0  0  0  0  0  0  0  0  0  0  0
  -17.6583    8.8861  -16.7095 H   0  0  0  0  0  0  0  0  0  0  0  0
  -18.4339   14.8174  -19.7707 C   0  0  0  0  0  0  0  0  0  0  0  0
  -19.4317   15.8446  -19.2056 C   0  0  0  0  0  0  0  0  0  0  0  0
  -19.5229   16.8441  -20.3568 C   0  0  0  0  0  0  0  0  0  0  0  0
  -19.1458   16.1255  -21.5416 N   0  0  0  0  0  0  0  0  0  0  0  0
  -18.9333   14.7100  -21.1691 C   0  0  0  0  0  0  0  0  0  0  0  0
  -18.9887   16.5737  -22.8609 C   0  0  0  0  0  0  0  0  0  0  0  0
  -18.6100   15.6530  -23.7149 O   0  0  0  0  0  0  0  0  0  0  0  0
  -19.1940   17.9051  -23.3667 C   0  0  0  0  0  0  0  0  0  0  0  0
  -20.3229   18.5557  -23.4449 C   0  0  0  0  0  0  0  0  0  0  0  0
  -20.0143   11.5949  -16.3832 C   0  0  0  0  0  0  0  0  0  0  0  0
  -19.5570   11.7998  -15.0714 C   0  0  0  0  0  0  0  0  0  0  0  0
  -20.2054   11.2390  -14.0074 C   0  0  0  0  0  0  0  0  0  0  0  0
  -21.3283   10.4499  -14.1310 C   0  0  0  0  0  0  0  0  0  0  0  0
  -21.7741   10.2504  -15.4187 C   0  0  0  0  0  0  0  0  0  0  0  0
  -21.1358   10.8059  -16.5104 C   0  0  0  0  0  0  0  0  0  0  0  0
  -21.9084    9.9324  -13.0020 O   0  0  0  0  0  0  0  0  0  0  0  0
  -21.2612    9.3291  -11.9699 C   0  0  0  0  0  0  0  0  0  0  0  0
  -20.6374    8.1145  -12.1422 C   0  0  0  0  0  0  0  0  0  0  0  0
  -19.9836    7.5292  -11.0552 C   0  0  0  0  0  0  0  0  0  0  0  0
  -19.9421    8.1264   -9.8162 C   0  0  0  0  0  0  0  0  0  0  0  0
  -20.5766    9.3445   -9.6729 C   0  0  0  0  0  0  0  0  0  0  0  0
  -21.2304    9.9422  -10.7373 C   0  0  0  0  0  0  0  0  0  0  0  0
  1  2  1  0  0  0
  2  3  2  0  0  0
  3  4  1  0  0  0
  4  5  2  0  0  0
  5  6  1  0  0  0
  6  7  1  0  0  0
  7  8  1  0  0  0
  8  9  2  0  0  0
  9 22  1  0  0  0
 22 23  2  0  0  0
 23 24  1  0  0  0
 24 25  2  0  0  0
 25 28  1  0  0  0
 28 29  1  0  0  0
 29 30  2  0  0  0
 30 31  1  0  0  0
 31 32  2  0  0  0
 32 33  1  0  0  0
 33 34  2  0  0  0
 25 26  1  0  0  0
 26 27  2  0  0  0
  9 10  1  0  0  0
  7 13  1  0  0  0
 13 14  1  0  0  0
 14 15  1  0  0  0
 15 16  1  0  0  0
 16 17  1  0  0  0
 16 18  1  0  0  0
 18 19  2  0  0  0
 18 20  1  0  0  0
 20 21  2  0  0  0
 10  2  1  0  0  0
 17 13  1  0  0  0
 10  6  2  0  0  0
 27 22  1  0  0  0
 34 29  1  0  0  0
  1 11  1  0  0  0
  1 12  1  0  0  0
M  END
> <minimizedAffinity>
-6.96735

> <CNNscore>
0.4890987873

> <CNNaffinity>
6.7946686745

> <CNN_VS>
3.3232641220

> <CNNaffinity_variance>
0.4558149278

$$$$
[H]C([H])=C([H])C(=O)N1C([H])([H])C([H])([H])[C@@]([H])(n2nc(-c3c([H])c([H])c(Oc4c([H])c([H])c([H])c([H])c4[H])c([H])c3[H])c3c(N([H])[H])nc([H])nc32)C1([H])[H]


 34 38  0  0  0  0  0  0  0  0999 V2000
  -17.9139    9.2723  -17.4043 N   0  0  0  0  0  0  0  0  0  0  0  0
  -17.8573   10.1994  -18.4621 C   0  0  0  0  0  0  0  0  0  0  0  0
  -17.0355    9.9408  -19.4964 N   0  0  0  0  0  0  0  0  0  0  0  0
  -16.9452   10.7634  -20.5654 C   0  0  0  0  0  0  0  0  0  0  0  0
  -17.6964   11.8827  -20.6116 N   0  0  0  0  0  0  0  0  0  0  0  0
  -18.5127   12.1590  -19.6054 C   0  0  0  0  0  0  0  0  0  0  0  0
  -19.3596   13.1870  -19.4275 N   0  0  0  0  0  0  0  0  0  0  0  0
  -19.9808   13.0454  -18.2825 N   0  0  0  0  0  0  0  0  0  0  0  0
  -19.5624   11.9066  -17.6538 C   0  0  0  0  0  0  0  0  0  0  0  0
  -18.6349   11.3335  -18.4790 C   0  0  0  0  0  0  0  0  0  0  0  0
  -18.7106    8.6025  -17.3202 H   0  0  0  0  0  0  0  0  0  0  0  0
  -17.1776    9.2114  -16.6689 H   0  0  0  0  0  0  0  0  0  0  0  0
  -19.5810   14.3013  -20.3391 C   0  0  0  0  0  0  0  0  0  0  0  0
  -18.4390   15.3181  -20.1603 C   0  0  0  0  0  0  0  0  0  0  0  0
  -19.0591   16.5791  -20.7586 C   0  0  0  0  0  0  0  0  0  0  0  0
  -20.4819   16.4069  -20.6687 N   0  0  0  0  0  0  0  0  0  0  0  0
  -20.7443   15.1432  -19.9464 C   0  0  0  0  0  0  0  0  0  0  0  0
  -21.5238   17.2237  -21.1307 C   0  0  0  0  0  0  0  0  0  0  0  0
  -22.7299   16.7617  -20.9020 O   0  0  0  0  0  0  0  0  0  0  0  0
  -21.4140   18.4857  -21.8132 C   0  0  0  0  0  0  0  0  0  0  0  0
  -21.4032   18.6889  -23.1025 C   0  0  0  0  0  0  0  0  0  0  0  0
  -20.0354   11.3896  -16.3801 C   0  0  0  0  0  0  0  0  0  0  0  0
  -21.1834   10.5820  -16.3341 C   0  0  0  0  0  0  0  0  0  0  0  0
  -21.6755   10.1306  -15.1421 C   0  0  0  0  0  0  0  0  0  0  0  0
  -21.1023   10.4222  -13.9233 C   0  0  0  0  0  0  0  0  0  0  0  0
  -19.9770   11.2148  -13.9717 C   0  0  0  0  0  0  0  0  0  0  0  0
  -19.4606   11.6838  -15.1638 C   0  0  0  0  0  0  0  0  0  0  0  0
  -21.6708    9.9212  -12.7810 O   0  0  0  0  0  0  0  0  0  0  0  0
  -22.8464   10.3196  -12.2266 C   0  0  0  0  0  0  0  0  0  0  0  0
  -23.9840    9.5569  -12.3619 C   0  0  0  0  0  0  0  0  0  0  0  0
  -25.1713   10.0030  -11.7764 C   0  0  0  0  0  0  0  0  0  0  0  0
  -25.2425   11.1807  -11.0681 C   0  0  0  0  0  0  0  0  0  0  0  0
  -24.0855   11.9249  -10.9489 C   0  0  0  0  0  0  0  0  0  0  0  0
  -22.8979   11.5011  -11.5215 C   0  0  0  0  0  0  0  0  0  0  0  0
  1  2  1  0  0  0
  2  3  2  0  0  0
  3  4  1  0  0  0
  4  5  2  0  0  0
  5  6  1  0  0  0
  6  7  1  0  0  0
  7  8  1  0  0  0
  8  9  2  0  0  0
  9 22  1  0  0  0
 22 23  2  0  0  0
 23 24  1  0  0  0
 24 25  2  0  0  0
 25 28  1  0  0  0
 28 29  1  0  0  0
 29 30  2  0  0  0
 30 31  1  0  0  0
 31 32  2  0  0  0
 32 33  1  0  0  0
 33 34  2  0  0  0
 25 26  1  0  0  0
 26 27  2  0  0  0
  9 10  1  0  0  0
  7 13  1  0  0  0
 13 14  1  0  0  0
 14 15  1  0  0  0
 15 16  1  0  0  0
 16 17  1  0  0  0
 16 18  1  0  0  0
 18 19  2  0  0  0
 18 20  1  0  0  0
 20 21  2  0  0  0
 10  2  1  0  0  0
 17 13  1  0  0  0
 10  6  2  0  0  0
 27 22  1  0  0  0
 34 29  1  0  0  0
  1 11  1  0  0  0
  1 12  1  0  0  0
M  END
> <minimizedAffinity>
-6.55567

> <CNNscore>
0.4488655329

> <CNNaffinity>
6.6777620316

> <CNN_VS>
2.9974172115

> <CNNaffinity_variance>
0.4188011289

$$$$
[H]C([H])=C([H])C(=O)N1C([H])([H])C([H])([H])[C@@]([H])(n2nc(-c3c([H])c([H])c(Oc4c([H])c([H])c([H])c([H])c4[H])c([H])c3[H])c3c(N([H])[H])nc([H])nc32)C1([H])[H]


 34 38  0  0  0  0  0  0  0  0999 V2000
  -18.3738   11.0774  -17.9461 N   0  0  0  0  0  0  0  0  0  0  0  0
  -17.6782   11.1461  -19.1679 C   0  0  0  0  0  0  0  0  0  0  0  0
  -16.9929   10.0618  -19.5760 N   0  0  0  0  0  0  0  0  0  0  0  0
  -16.3242   10.0345  -20.7506 C   0  0  0  0  0  0  0  0  0  0  0  0
  -16.3349   11.1208  -21.5501 N   0  0  0  0  0  0  0  0  0  0  0  0
  -17.0021   12.2004  -21.1700 C   0  0  0  0  0  0  0  0  0  0  0  0
  -17.1728   13.3816  -21.7875 N   0  0  0  0  0  0  0  0  0  0  0  0
  -17.9237   14.1563  -21.0440 N   0  0  0  0  0  0  0  0  0  0  0  0
  -18.2804   13.5093  -19.8945 C   0  0  0  0  0  0  0  0  0  0  0  0
  -17.7068   12.2698  -19.9601 C   0  0  0  0  0  0  0  0  0  0  0  0
  -19.4088   10.9398  -17.9252 H   0  0  0  0  0  0  0  0  0  0  0  0
  -17.8984   11.1590  -17.0220 H   0  0  0  0  0  0  0  0  0  0  0  0
  -16.6266   13.7767  -23.0787 C   0  0  0  0  0  0  0  0  0  0  0  0
  -16.7854   15.3000  -23.2351 C   0  0  0  0  0  0  0  0  0  0  0  0
  -16.6588   15.4644  -24.7483 C   0  0  0  0  0  0  0  0  0  0  0  0
  -17.0183   14.1971  -25.3200 N   0  0  0  0  0  0  0  0  0  0  0  0
  -17.4572   13.3086  -24.2221 C   0  0  0  0  0  0  0  0  0  0  0  0
  -17.0079   13.7709  -26.6558 C   0  0  0  0  0  0  0  0  0  0  0  0
  -17.3813   12.5272  -26.8410 O   0  0  0  0  0  0  0  0  0  0  0  0
  -16.6402   14.5344  -27.8187 C   0  0  0  0  0  0  0  0  0  0  0  0
  -15.6765   15.4092  -27.9178 C   0  0  0  0  0  0  0  0  0  0  0  0
  -19.1295   14.0230  -18.8322 C   0  0  0  0  0  0  0  0  0  0  0  0
  -20.5257   13.9128  -18.9356 C   0  0  0  0  0  0  0  0  0  0  0  0
  -21.3433   14.4370  -17.9744 C   0  0  0  0  0  0  0  0  0  0  0  0
  -20.8782   15.0970  -16.8577 C   0  0  0  0  0  0  0  0  0  0  0  0
  -19.5086   15.2038  -16.7595 C   0  0  0  0  0  0  0  0  0  0  0  0
  -18.6614   14.6829  -17.7179 C   0  0  0  0  0  0  0  0  0  0  0  0
  -21.7791   15.5877  -15.9485 O   0  0  0  0  0  0  0  0  0  0  0  0
  -22.3036   14.9123  -14.8917 C   0  0  0  0  0  0  0  0  0  0  0  0
  -22.0839   13.5624  -14.7384 C   0  0  0  0  0  0  0  0  0  0  0  0
  -22.6414   12.9068  -13.6380 C   0  0  0  0  0  0  0  0  0  0  0  0
  -23.4039   13.5655  -12.7007 C   0  0  0  0  0  0  0  0  0  0  0  0
  -23.6074   14.9194  -12.8806 C   0  0  0  0  0  0  0  0  0  0  0  0
  -23.0640   15.5887  -13.9643 C   0  0  0  0  0  0  0  0  0  0  0  0
  1  2  1  0  0  0
  2  3  2  0  0  0
  3  4  1  0  0  0
  4  5  2  0  0  0
  5  6  1  0  0  0
  6  7  1  0  0  0
  7  8  1  0  0  0
  8  9  2  0  0  0
  9 22  1  0  0  0
 22 23  2  0  0  0
 23 24  1  0  0  0
 24 25  2  0  0  0
 25 28  1  0  0  0
 28 29  1  0  0  0
 29 30  2  0  0  0
 30 31  1  0  0  0
 31 32  2  0  0  0
 32 33  1  0  0  0
 33 34  2  0  0  0
 25 26  1  0  0  0
 26 27  2  0  0  0
  9 10  1  0  0  0
  7 13  1  0  0  0
 13 14  1  0  0  0
 14 15  1  0  0  0
 15 16  1  0  0  0
 16 17  1  0  0  0
 16 18  1  0  0  0
 18 19  2  0  0  0
 18 20  1  0  0  0
 20 21  2  0  0  0
 10  2  1  0  0  0
 17 13  1  0  0  0
 10  6  2  0  0  0
 27 22  1  0  0  0
 34 29  1  0  0  0
  1 11  1  0  0  0
  1 12  1  0  0  0
M  END
> <minimizedAffinity>
-8.58006

> <CNNscore>
0.3855096102

> <CNNaffinity>
6.9571013451

> <CNN_VS>
2.6820294857

> <CNNaffinity_variance>
0.1832377613

$$$$
[H]O[C@@]1([H])[C@]([H])(C([H])([H])OP(=O)(O[H])OP(=O)(O[H])O[H])O[C@@]([H])(n2c([H])nc3c(N([H])[H])nc([H])nc32)[C@]1([H])O[H]


 34 36  0  0  0  0  0  0  0  0999 V2000
  -19.2464   13.5875  -19.5629 C   0  0  0  0  0  0  0  0  0  0  0  0
  -19.1576   14.9912  -19.4896 O   0  0  0  0  0  0  0  0  0  0  0  0
  -19.7887   15.3612  -18.3292 C   0  0  0  0  0  0  0  0  0  0  0  0
  -19.5060   14.3051  -17.3146 C   0  0  0  0  0  0  0  0  0  0  0  0
  -18.4592   14.6968  -16.4762 O   0  0  0  0  0  0  0  0  0  0  0  0
  -19.1385   13.0924  -18.1511 C   0  0  0  0  0  0  0  0  0  0  0  0
  -20.0821   12.0911  -17.9565 O   0  0  0  0  0  0  0  0  0  0  0  0
  -18.2891   15.6701  -16.6310 H   0  0  0  0  0  0  0  0  0  0  0  0
  -20.5224   12.2665  -17.0880 H   0  0  0  0  0  0  0  0  0  0  0  0
  -14.8258   11.0324  -22.8052 N   0  0  0  0  0  0  0  0  0  0  0  0
  -15.7108   10.9872  -21.7003 C   0  0  0  0  0  0  0  0  0  0  0  0
  -15.7235    9.9414  -20.8293 N   0  0  0  0  0  0  0  0  0  0  0  0
  -16.5905    9.9707  -19.8069 C   0  0  0  0  0  0  0  0  0  0  0  0
  -17.4558   10.9752  -19.5847 N   0  0  0  0  0  0  0  0  0  0  0  0
  -17.4694   12.0176  -20.4208 C   0  0  0  0  0  0  0  0  0  0  0  0
  -18.2140   13.1372  -20.4388 N   0  0  0  0  0  0  0  0  0  0  0  0
  -17.8005   13.8370  -21.5106 C   0  0  0  0  0  0  0  0  0  0  0  0
  -16.8366   13.1740  -22.1311 N   0  0  0  0  0  0  0  0  0  0  0  0
  -16.5950   12.0230  -21.4806 C   0  0  0  0  0  0  0  0  0  0  0  0
  -15.2174   10.8133  -23.7544 H   0  0  0  0  0  0  0  0  0  0  0  0
  -13.8102   11.2702  -22.7316 H   0  0  0  0  0  0  0  0  0  0  0  0
  -21.2827   15.5736  -18.5249 C   0  0  0  0  0  0  0  0  0  0  0  0
  -21.5268   16.3573  -19.6531 O   0  0  0  0  0  0  0  0  0  0  0  0
  -22.6872   17.5344  -19.3412 P   0  0  0  0  0  0  0  0  0  0  0  0
  -21.9659   19.0429  -19.6883 O   0  0  0  0  0  0  0  0  0  0  0  0
  -23.0897   17.5591  -17.8826 O   0  0  0  0  0  0  0  0  0  0  0  0
  -21.4302   18.8936  -20.5121 H   0  0  0  0  0  0  0  0  0  0  0  0
  -24.0256   17.3618  -20.3570 O   0  0  0  0  0  0  0  0  0  0  0  0
  -23.6389   17.8222  -21.9153 P   0  0  0  0  0  0  0  0  0  0  0  0
  -21.9949   17.6382  -22.2514 O   0  0  0  0  0  0  0  0  0  0  0  0
  -24.5250   16.8836  -23.0256 O   0  0  0  0  0  0  0  0  0  0  0  0
  -23.9890   19.2805  -22.1824 O   0  0  0  0  0  0  0  0  0  0  0  0
  -21.7307   16.6912  -22.3362 H   0  0  0  0  0  0  0  0  0  0  0  0
  -24.4965   15.9236  -22.7316 H   0  0  0  0  0  0  0  0  0  0  0  0
 10 11  1  0  0  0
 11 12  2  0  0  0
 12 13  1  0  0  0
 13 14  2  0  0  0
 14 15  1  0  0  0
 15 16  1  0  0  0
 16 17  1  0  0  0
 17 18  2  0  0  0
 18 19  1  0  0  0
 16  1  1  0  0  0
  1  2  1  0  0  0
  2  3  1  0  0  0
  3 22  1  0  0  0
 22 23  1  0  0  0
 23 24  1  0  0  0
 24 25  1  0  0  0
 24 26  2  0  0  0
 24 28  1  0  0  0
 28 29  1  0  0  0
 29 30  1  0  0  0
 29 31  1  0  0  0
 29 32  2  0  0  0
  3  4  1  0  0  0
  4  5  1  0  0  0
  4  6  1  0  0  0
  6  7  1  0  0  0
 19 11  1  0  0  0
  6  1  1  0  0  0
 19 15  2  0  0  0
 10 20  1  0  0  0
 10 21  1  0  0  0
 25 27  1  0  0  0
 30 33  1  0  0  0
 31 34  1  0  0  0
  5  8  1  0  0  0
  7  9  1  0  0  0
M  END
> <minimizedAffinity>
-6.91666

> <CNNscore>
0.9283629060

> <CNNaffinity>
5.4883842468

> <CNN_VS>
5.0952124596

> <CNNaffinity_variance>
0.1091294661

$$$$
[H]O[C@@]1([H])[C@]([H])(C([H])([H])OP(=O)(O[H])OP(=O)(O[H])O[H])O[C@@]([H])(n2c([H])nc3c(N([H])[H])nc([H])nc32)[C@]1([H])O[H]


 34 36  0  0  0  0  0  0  0  0999 V2000
  -19.2595   13.2860  -19.3652 C   0  0  0  0  0  0  0  0  0  0  0  0
  -19.3576   14.6886  -19.2842 O   0  0  0  0  0  0  0  0  0  0  0  0
  -19.9283   14.9695  -18.0689 C   0  0  0  0  0  0  0  0  0  0  0  0
  -19.4152   13.9632  -17.0949 C   0  0  0  0  0  0  0  0  0  0  0  0
  -18.3619   14.4959  -16.3471 O   0  0  0  0  0  0  0  0  0  0  0  0
  -18.9605   12.8118  -17.9739 C   0  0  0  0  0  0  0  0  0  0  0  0
  -19.7371   11.6905  -17.7086 O   0  0  0  0  0  0  0  0  0  0  0  0
  -18.3411   15.4832  -16.5053 H   0  0  0  0  0  0  0  0  0  0  0  0
  -20.1189   11.8045  -16.8029 H   0  0  0  0  0  0  0  0  0  0  0  0
  -14.8798   11.3244  -23.0468 N   0  0  0  0  0  0  0  0  0  0  0  0
  -15.6806   11.1348  -21.8940 C   0  0  0  0  0  0  0  0  0  0  0  0
  -15.5493   10.0390  -21.0975 N   0  0  0  0  0  0  0  0  0  0  0  0
  -16.3438    9.9302  -20.0229 C   0  0  0  0  0  0  0  0  0  0  0  0
  -17.2699   10.8417  -19.6784 N   0  0  0  0  0  0  0  0  0  0  0  0
  -17.4247   11.9296  -20.4388 C   0  0  0  0  0  0  0  0  0  0  0  0
  -18.2565   12.9809  -20.3332 N   0  0  0  0  0  0  0  0  0  0  0  0
  -17.9751   13.7794  -21.3786 C   0  0  0  0  0  0  0  0  0  0  0  0
  -17.0058   13.2409  -22.1025 N   0  0  0  0  0  0  0  0  0  0  0  0
  -16.6282   12.0760  -21.5487 C   0  0  0  0  0  0  0  0  0  0  0  0
  -15.3166   11.1330  -23.9822 H   0  0  0  0  0  0  0  0  0  0  0  0
  -13.8840   11.6424  -23.0213 H   0  0  0  0  0  0  0  0  0  0  0  0
  -21.4488   14.9744  -18.1306 C   0  0  0  0  0  0  0  0  0  0  0  0
  -21.9027   15.9127  -19.0580 O   0  0  0  0  0  0  0  0  0  0  0  0
  -21.6943   17.4830  -18.4920 P   0  0  0  0  0  0  0  0  0  0  0  0
  -21.5961   17.3854  -16.7899 O   0  0  0  0  0  0  0  0  0  0  0  0
  -22.8805   18.3639  -18.8193 O   0  0  0  0  0  0  0  0  0  0  0  0
  -21.0510   16.5750  -16.6052 H   0  0  0  0  0  0  0  0  0  0  0  0
  -20.2464   18.1499  -19.0504 O   0  0  0  0  0  0  0  0  0  0  0  0
  -19.4969   19.0177  -17.8360 P   0  0  0  0  0  0  0  0  0  0  0  0
  -18.7901   18.0188  -16.6732 O   0  0  0  0  0  0  0  0  0  0  0  0
  -18.2845   20.0083  -18.5054 O   0  0  0  0  0  0  0  0  0  0  0  0
  -20.4705   19.9338  -17.1056 O   0  0  0  0  0  0  0  0  0  0  0  0
  -17.9835   17.5603  -17.0096 H   0  0  0  0  0  0  0  0  0  0  0  0
  -17.7635   19.4719  -19.1759 H   0  0  0  0  0  0  0  0  0  0  0  0
 10 11  1  0  0  0
 11 12  2  0  0  0
 12 13  1  0  0  0
 13 14  2  0  0  0
 14 15  1  0  0  0
 15 16  1  0  0  0
 16 17  1  0  0  0
 17 18  2  0  0  0
 18 19  1  0  0  0
 16  1  1  0  0  0
  1  2  1  0  0  0
  2  3  1  0  0  0
  3 22  1  0  0  0
 22 23  1  0  0  0
 23 24  1  0  0  0
 24 25  1  0  0  0
 24 26  2  0  0  0
 24 28  1  0  0  0
 28 29  1  0  0  0
 29 30  1  0  0  0
 29 31  1  0  0  0
 29 32  2  0  0  0
  3  4  1  0  0  0
  4  5  1  0  0  0
  4  6  1  0  0  0
  6  7  1  0  0  0
 19 11  1  0  0  0
  6  1  1  0  0  0
 19 15  2  0  0  0
 10 20  1  0  0  0
 10 21  1  0  0  0
 25 27  1  0  0  0
 30 33  1  0  0  0
 31 34  1  0  0  0
  5  8  1  0  0  0
  7  9  1  0  0  0
M  END
> <minimizedAffinity>
-6.89280

> <CNNscore>
0.8799924850

> <CNNaffinity>
5.4209465981

> <CNN_VS>
4.7703924179

> <CNNaffinity_variance>
0.1065815091

$$$$
[H]O[C@@]1([H])[C@]([H])(C([H])([H])OP(=O)(O[H])OP(=O)(O[H])O[H])O[C@@]([H])(n2c([H])nc3c(N([H])[H])nc([H])nc32)[C@]1([H])O[H]


 34 36  0  0  0  0  0  0  0  0999 V2000
  -19.3417   15.4014  -19.2226 C   0  0  0  0  0  0  0  0  0  0  0  0
  -20.5151   15.1637  -19.9643 O   0  0  0  0  0  0  0  0  0  0  0  0
  -20.8727   16.3644  -20.5228 C   0  0  0  0  0  0  0  0  0  0  0  0
  -19.6136   17.0799  -20.8797 C   0  0  0  0  0  0  0  0  0  0  0  0
  -19.3231   16.9161  -22.2366 O   0  0  0  0  0  0  0  0  0  0  0  0
  -18.5668   16.4288  -19.9935 C   0  0  0  0  0  0  0  0  0  0  0  0
  -18.0634   17.3686  -19.1023 O   0  0  0  0  0  0  0  0  0  0  0  0
  -20.1322   16.5299  -22.6798 H   0  0  0  0  0  0  0  0  0  0  0  0
  -18.2283   18.2625  -19.4931 H   0  0  0  0  0  0  0  0  0  0  0  0
  -16.4209   10.1056  -19.3039 N   0  0  0  0  0  0  0  0  0  0  0  0
  -16.9358   11.2258  -20.0013 C   0  0  0  0  0  0  0  0  0  0  0  0
  -16.8117   11.3541  -21.3506 N   0  0  0  0  0  0  0  0  0  0  0  0
  -17.3255   12.4436  -21.9396 C   0  0  0  0  0  0  0  0  0  0  0  0
  -17.9609   13.4261  -21.2775 N   0  0  0  0  0  0  0  0  0  0  0  0
  -18.1002   13.3312  -19.9518 C   0  0  0  0  0  0  0  0  0  0  0  0
  -18.6787   14.1491  -19.0548 N   0  0  0  0  0  0  0  0  0  0  0  0
  -18.5233   13.5528  -17.8591 C   0  0  0  0  0  0  0  0  0  0  0  0
  -17.8730   12.4094  -18.0124 N   0  0  0  0  0  0  0  0  0  0  0  0
  -17.5864   12.2287  -19.3129 C   0  0  0  0  0  0  0  0  0  0  0  0
  -15.5254   10.2314  -18.7704 H   0  0  0  0  0  0  0  0  0  0  0  0
  -16.8779    9.1653  -19.2891 H   0  0  0  0  0  0  0  0  0  0  0  0
  -21.7532   17.1933  -19.5991 C   0  0  0  0  0  0  0  0  0  0  0  0
  -21.8933   18.4935  -20.0853 O   0  0  0  0  0  0  0  0  0  0  0  0
  -23.5127   18.8973  -20.2955 P   0  0  0  0  0  0  0  0  0  0  0  0
  -23.8386   20.1973  -19.2372 O   0  0  0  0  0  0  0  0  0  0  0  0
  -24.4338   17.7626  -19.9029 O   0  0  0  0  0  0  0  0  0  0  0  0
  -23.0357   20.7814  -19.2848 H   0  0  0  0  0  0  0  0  0  0  0  0
  -23.8131   19.4315  -21.8694 O   0  0  0  0  0  0  0  0  0  0  0  0
  -23.6245   18.1781  -22.9572 P   0  0  0  0  0  0  0  0  0  0  0  0
  -24.2909   16.7326  -22.3952 O   0  0  0  0  0  0  0  0  0  0  0  0
  -24.3759   18.5818  -24.4308 O   0  0  0  0  0  0  0  0  0  0  0  0
  -22.1575   17.9046  -23.2631 O   0  0  0  0  0  0  0  0  0  0  0  0
  -25.2777   16.7463  -22.3966 H   0  0  0  0  0  0  0  0  0  0  0  0
  -25.2742   18.9860  -24.2348 H   0  0  0  0  0  0  0  0  0  0  0  0
 10 11  1  0  0  0
 11 12  2  0  0  0
 12 13  1  0  0  0
 13 14  2  0  0  0
 14 15  1  0  0  0
 15 16  1  0  0  0
 16 17  1  0  0  0
 17 18  2  0  0  0
 18 19  1  0  0  0
 16  1  1  0  0  0
  1  2  1  0  0  0
  2  3  1  0  0  0
  3 22  1  0  0  0
 22 23  1  0  0  0
 23 24  1  0  0  0
 24 25  1  0  0  0
 24 26  2  0  0  0
 24 28  1  0  0  0
 28 29  1  0  0  0
 29 30  1  0  0  0
 29 31  1  0  0  0
 29 32  2  0  0  0
  3  4  1  0  0  0
  4  5  1  0  0  0
  4  6  1  0  0  0
  6  7  1  0  0  0
 19 11  1  0  0  0
  6  1  1  0  0  0
 19 15  2  0  0  0
 10 20  1  0  0  0
 10 21  1  0  0  0
 25 27  1  0  0  0
 30 33  1  0  0  0
 31 34  1  0  0  0
  5  8  1  0  0  0
  7  9  1  0  0  0
M  END
> <minimizedAffinity>
-6.65362

> <CNNscore>
0.4093248546

> <CNNaffinity>
4.8245763779

> <CNN_VS>
1.9748190641

> <CNNaffinity_variance>
0.2758239210

$$$$
[H]O[C@@]1([H])[C@]([H])(C([H])([H])OP(=O)(O[H])OP(=O)(O[H])O[H])O[C@@]([H])(n2c([H])nc3c(N([H])[H])nc([H])nc32)[C@]1([H])O[H]


 34 36  0  0  0  0  0  0  0  0999 V2000
  -17.6919   14.5817  -21.5874 C   0  0  0  0  0  0  0  0  0  0  0  0
  -17.9980   14.0658  -22.8617 O   0  0  0  0  0  0  0  0  0  0  0  0
  -17.4273   14.9167  -23.7737 C   0  0  0  0  0  0  0  0  0  0  0  0
  -16.1397   15.3930  -23.1905 C   0  0  0  0  0  0  0  0  0  0  0  0
  -15.0668   14.6602  -23.7042 O   0  0  0  0  0  0  0  0  0  0  0  0
  -16.3163   15.1693  -21.6991 C   0  0  0  0  0  0  0  0  0  0  0  0
  -16.2995   16.3930  -21.0410 O   0  0  0  0  0  0  0  0  0  0  0  0
  -15.4008   14.1328  -24.4856 H   0  0  0  0  0  0  0  0  0  0  0  0
  -15.8280   17.0358  -21.6270 H   0  0  0  0  0  0  0  0  0  0  0  0
  -17.6939    9.6547  -18.0791 N   0  0  0  0  0  0  0  0  0  0  0  0
  -17.2275   10.3305  -19.2331 C   0  0  0  0  0  0  0  0  0  0  0  0
  -16.3459    9.7571  -20.0971 N   0  0  0  0  0  0  0  0  0  0  0  0
  -15.9505   10.4601  -21.1682 C   0  0  0  0  0  0  0  0  0  0  0  0
  -16.3724   11.7059  -21.4462 N   0  0  0  0  0  0  0  0  0  0  0  0
  -17.2383   12.2982  -20.6185 C   0  0  0  0  0  0  0  0  0  0  0  0
  -17.8150   13.5125  -20.6504 N   0  0  0  0  0  0  0  0  0  0  0  0
  -18.6010   13.5755  -19.5606 C   0  0  0  0  0  0  0  0  0  0  0  0
  -18.5128   12.4422  -18.8813 N   0  0  0  0  0  0  0  0  0  0  0  0
  -17.6664   11.6087  -19.5099 C   0  0  0  0  0  0  0  0  0  0  0  0
  -17.2812    9.9272  -17.1529 H   0  0  0  0  0  0  0  0  0  0  0  0
  -18.4218    8.9041  -18.0950 H   0  0  0  0  0  0  0  0  0  0  0  0
  -18.3457   16.0734  -24.1399 C   0  0  0  0  0  0  0  0  0  0  0  0
  -17.7067   17.2963  -23.9332 O   0  0  0  0  0  0  0  0  0  0  0  0
  -18.6323   18.3148  -22.9660 P   0  0  0  0  0  0  0  0  0  0  0  0
  -19.9583   17.3947  -22.4076 O   0  0  0  0  0  0  0  0  0  0  0  0
  -19.1977   19.4792  -23.7499 O   0  0  0  0  0  0  0  0  0  0  0  0
  -19.5845   16.4984  -22.1960 H   0  0  0  0  0  0  0  0  0  0  0  0
  -17.7640   18.8335  -21.6133 O   0  0  0  0  0  0  0  0  0  0  0  0
  -18.7380   18.8266  -20.2565 P   0  0  0  0  0  0  0  0  0  0  0  0
  -18.0678   19.7026  -18.9787 O   0  0  0  0  0  0  0  0  0  0  0  0
  -20.2539   19.5021  -20.6373 O   0  0  0  0  0  0  0  0  0  0  0  0
  -18.9931   17.4146  -19.7449 O   0  0  0  0  0  0  0  0  0  0  0  0
  -18.0881   20.6765  -19.1370 H   0  0  0  0  0  0  0  0  0  0  0  0
  -20.1091   20.3317  -21.1845 H   0  0  0  0  0  0  0  0  0  0  0  0
 10 11  1  0  0  0
 11 12  2  0  0  0
 12 13  1  0  0  0
 13 14  2  0  0  0
 14 15  1  0  0  0
 15 16  1  0  0  0
 16 17  1  0  0  0
 17 18  2  0  0  0
 18 19  1  0  0  0
 16  1  1  0  0  0
  1  2  1  0  0  0
  2  3  1  0  0  0
  3 22  1  0  0  0
 22 23  1  0  0  0
 23 24  1  0  0  0
 24 25  1  0  0  0
 24 26  2  0  0  0
 24 28  1  0  0  0
 28 29  1  0  0  0
 29 30  1  0  0  0
 29 31  1  0  0  0
 29 32  2  0  0  0
  3  4  1  0  0  0
  4  5  1  0  0  0
  4  6  1  0  0  0
  6  7  1  0  0  0
 19 11  1  0  0  0
  6  1  1  0  0  0
 19 15  2  0  0  0
 10 20  1  0  0  0
 10 21  1  0  0  0
 25 27  1  0  0  0
 30 33  1  0  0  0
 31 34  1  0  0  0
  5  8  1  0  0  0
  7  9  1  0  0  0
M  END
> <minimizedAffinity>
-7.10508

> <CNNscore>
0.3953700960

> <CNNaffinity>
5.0967307091

> <CNN_VS>
2.0150949955

> <CNNaffinity_variance>
0.1696488857

$$$$
[H]O[C@@]1([H])[C@]([H])(C([H])([H])OP(=O)(O[H])OP(=O)(O[H])O[H])O[C@@]([H])(n2c([H])nc3c(N([H])[H])nc([H])nc32)[C@]1([H])O[H]


 34 36  0  0  0  0  0  0  0  0999 V2000
  -17.3916   15.6078  -22.5767 C   0  0  0  0  0  0  0  0  0  0  0  0
  -18.4779   15.6389  -23.4726 O   0  0  0  0  0  0  0  0  0  0  0  0
  -18.4725   16.8840  -24.0481 C   0  0  0  0  0  0  0  0  0  0  0  0
  -17.0467   17.2873  -24.2192 C   0  0  0  0  0  0  0  0  0  0  0  0
  -16.6220   17.0475  -25.5285 O   0  0  0  0  0  0  0  0  0  0  0  0
  -16.3057   16.4218  -23.2157 C   0  0  0  0  0  0  0  0  0  0  0  0
  -15.7246   17.2295  -22.2457 O   0  0  0  0  0  0  0  0  0  0  0  0
  -17.4311   16.8533  -26.0834 H   0  0  0  0  0  0  0  0  0  0  0  0
  -15.6263   18.1334  -22.6359 H   0  0  0  0  0  0  0  0  0  0  0  0
  -16.3821    9.8805  -20.9149 N   0  0  0  0  0  0  0  0  0  0  0  0
  -16.9407   11.1516  -20.6352 C   0  0  0  0  0  0  0  0  0  0  0  0
  -17.6181   11.4031  -19.4818 N   0  0  0  0  0  0  0  0  0  0  0  0
  -18.1183   12.6321  -19.2885 C   0  0  0  0  0  0  0  0  0  0  0  0
  -17.9928   13.6408  -20.1683 N   0  0  0  0  0  0  0  0  0  0  0  0
  -17.3333   13.4277  -21.3109 C   0  0  0  0  0  0  0  0  0  0  0  0
  -17.0620   14.2383  -22.3489 N   0  0  0  0  0  0  0  0  0  0  0  0
  -16.3663   13.4928  -23.2262 C   0  0  0  0  0  0  0  0  0  0  0  0
  -16.2141   12.2675  -22.7475 N   0  0  0  0  0  0  0  0  0  0  0  0
  -16.8065   12.1804  -21.5443 C   0  0  0  0  0  0  0  0  0  0  0  0
  -16.8914    9.2612  -21.5928 H   0  0  0  0  0  0  0  0  0  0  0  0
  -15.4964    9.5242  -20.4883 H   0  0  0  0  0  0  0  0  0  0  0  0
  -19.2554   17.9023  -23.2322 C   0  0  0  0  0  0  0  0  0  0  0  0
  -18.4372   18.9674  -22.8547 O   0  0  0  0  0  0  0  0  0  0  0  0
  -18.5272   19.2516  -21.1992 P   0  0  0  0  0  0  0  0  0  0  0  0
  -18.3553   20.9362  -20.9775 O   0  0  0  0  0  0  0  0  0  0  0  0
  -17.3938   18.5864  -20.4489 O   0  0  0  0  0  0  0  0  0  0  0  0
  -18.8774   21.3518  -21.7141 H   0  0  0  0  0  0  0  0  0  0  0  0
  -20.0343   18.8056  -20.5806 O   0  0  0  0  0  0  0  0  0  0  0  0
  -21.1214   20.0651  -20.7271 P   0  0  0  0  0  0  0  0  0  0  0  0
  -20.9623   21.1999  -19.4876 O   0  0  0  0  0  0  0  0  0  0  0  0
  -20.8835   20.8557  -22.2163 O   0  0  0  0  0  0  0  0  0  0  0  0
  -22.5646   19.5782  -20.7045 O   0  0  0  0  0  0  0  0  0  0  0  0
  -20.1403   21.7393  -19.5729 H   0  0  0  0  0  0  0  0  0  0  0  0
  -19.8977   20.9838  -22.3596 H   0  0  0  0  0  0  0  0  0  0  0  0
 10 11  1  0  0  0
 11 12  2  0  0  0
 12 13  1  0  0  0
 13 14  2  0  0  0
 14 15  1  0  0  0
 15 16  1  0  0  0
 16 17  1  0  0  0
 17 18  2  0  0  0
 18 19  1  0  0  0
 16  1  1  0  0  0
  1  2  1  0  0  0
  2  3  1  0  0  0
  3 22  1  0  0  0
 22 23  1  0  0  0
 23 24  1  0  0  0
 24 25  1  0  0  0
 24 26  2  0  0  0
 24 28  1  0  0  0
 28 29  1  0  0  0
 29 30  1  0  0  0
 29 31  1  0  0  0
 29 32  2  0  0  0
  3  4  1  0  0  0
  4  5  1  0  0  0
  4  6  1  0  0  0
  6  7  1  0  0  0
 19 11  1  0  0  0
  6  1  1  0  0  0
 19 15  2  0  0  0
 10 20  1  0  0  0
 10 21  1  0  0  0
 25 27  1  0  0  0
 30 33  1  0  0  0
 31 34  1  0  0  0
  5  8  1  0  0  0
  7  9  1  0  0  0
M  END
> <minimizedAffinity>
-6.49366

> <CNNscore>
0.3871344924

> <CNNaffinity>
5.0607714653

> <CNN_VS>
1.9591991901

> <CNNaffinity_variance>
0.3310833275

$$$$
[H]O[C@@]1([H])[C@]([H])(C([H])([H])OP(=O)(O[H])OP(=O)(O[H])O[H])O[C@@]([H])(n2c([H])nc3c(N([H])[H])nc([H])nc32)[C@]1([H])O[H]


 34 36  0  0  0  0  0  0  0  0999 V2000
  -18.9158   15.0225  -18.7291 C   0  0  0  0  0  0  0  0  0  0  0  0
  -20.0684   15.1610  -19.5265 O   0  0  0  0  0  0  0  0  0  0  0  0
  -20.3258   16.5059  -19.6087 C   0  0  0  0  0  0  0  0  0  0  0  0
  -19.0101   17.2071  -19.6543 C   0  0  0  0  0  0  0  0  0  0  0  0
  -18.6716   17.5314  -20.9706 O   0  0  0  0  0  0  0  0  0  0  0  0
  -18.0456   16.2007  -19.0528 C   0  0  0  0  0  0  0  0  0  0  0  0
  -17.5238   16.7079  -17.8690 O   0  0  0  0  0  0  0  0  0  0  0  0
  -19.4832   17.3958  -21.5391 H   0  0  0  0  0  0  0  0  0  0  0  0
  -17.6154   17.6925  -17.9052 H   0  0  0  0  0  0  0  0  0  0  0  0
  -16.3431    9.9204  -20.7122 N   0  0  0  0  0  0  0  0  0  0  0  0
  -16.7652   11.2498  -20.9588 C   0  0  0  0  0  0  0  0  0  0  0  0
  -16.5961   11.8466  -22.1703 N   0  0  0  0  0  0  0  0  0  0  0  0
  -17.0220   13.1084  -22.3270 C   0  0  0  0  0  0  0  0  0  0  0  0
  -17.6103   13.8283  -21.3560 N   0  0  0  0  0  0  0  0  0  0  0  0
  -17.7916   13.2723  -20.1544 C   0  0  0  0  0  0  0  0  0  0  0  0
  -18.3402   13.7505  -19.0237 N   0  0  0  0  0  0  0  0  0  0  0  0
  -18.2566   12.7541  -18.1239 C   0  0  0  0  0  0  0  0  0  0  0  0
  -17.6777   11.7001  -18.6785 N   0  0  0  0  0  0  0  0  0  0  0  0
  -17.3680   11.9805  -19.9560 C   0  0  0  0  0  0  0  0  0  0  0  0
  -15.4563    9.7822  -20.1674 H   0  0  0  0  0  0  0  0  0  0  0  0
  -16.8604    9.0725  -21.0391 H   0  0  0  0  0  0  0  0  0  0  0  0
  -21.1922   17.0009  -18.4598 C   0  0  0  0  0  0  0  0  0  0  0  0
  -20.6377   18.1415  -17.8786 O   0  0  0  0  0  0  0  0  0  0  0  0
  -20.3504   17.9139  -16.2369 P   0  0  0  0  0  0  0  0  0  0  0  0
  -18.7075   18.2932  -15.9660 O   0  0  0  0  0  0  0  0  0  0  0  0
  -20.5480   16.4718  -15.8230 O   0  0  0  0  0  0  0  0  0  0  0  0
  -18.5269   19.0921  -16.5290 H   0  0  0  0  0  0  0  0  0  0  0  0
  -21.2797   18.9673  -15.2990 O   0  0  0  0  0  0  0  0  0  0  0  0
  -21.1031   18.6141  -13.6761 P   0  0  0  0  0  0  0  0  0  0  0  0
  -19.6504   17.8210  -13.3445 O   0  0  0  0  0  0  0  0  0  0  0  0
  -21.1510   20.0542  -12.7688 O   0  0  0  0  0  0  0  0  0  0  0  0
  -22.2263   17.7232  -13.1611 O   0  0  0  0  0  0  0  0  0  0  0  0
  -18.8681   18.4173  -13.4242 H   0  0  0  0  0  0  0  0  0  0  0  0
  -20.5838   20.7440  -13.2284 H   0  0  0  0  0  0  0  0  0  0  0  0
 10 11  1  0  0  0
 11 12  2  0  0  0
 12 13  1  0  0  0
 13 14  2  0  0  0
 14 15  1  0  0  0
 15 16  1  0  0  0
 16 17  1  0  0  0
 17 18  2  0  0  0
 18 19  1  0  0  0
 16  1  1  0  0  0
  1  2  1  0  0  0
  2  3  1  0  0  0
  3 22  1  0  0  0
 22 23  1  0  0  0
 23 24  1  0  0  0
 24 25  1  0  0  0
 24 26  2  0  0  0
 24 28  1  0  0  0
 28 29  1  0  0  0
 29 30  1  0  0  0
 29 31  1  0  0  0
 29 32  2  0  0  0
  3  4  1  0  0  0
  4  5  1  0  0  0
  4  6  1  0  0  0
  6  7  1  0  0  0
 19 11  1  0  0  0
  6  1  1  0  0  0
 19 15  2  0  0  0
 10 20  1  0  0  0
 10 21  1  0  0  0
 25 27  1  0  0  0
 30 33  1  0  0  0
 31 34  1  0  0  0
  5  8  1  0  0  0
  7  9  1  0  0  0
M  END
> <minimizedAffinity>
-6.35259

> <CNNscore>
0.3561064005

> <CNNaffinity>
4.9431381226

> <CNN_VS>
1.7602831125

> <CNNaffinity_variance>
0.3053684235

$$$$
[H]O[C@@]1([H])[C@]([H])(C([H])([H])OP(=O)(O[H])OP(=O)(O[H])O[H])O[C@@]([H])(n2c([H])nc3c(N([H])[H])nc([H])nc32)[C@]1([H])O[H]


 34 36  0  0  0  0  0  0  0  0999 V2000
  -18.4230   12.4327  -17.9967 C   0  0  0  0  0  0  0  0  0  0  0  0
  -19.4663   11.4955  -17.8679 O   0  0  0  0  0  0  0  0  0  0  0  0
  -20.2820   11.9561  -16.8658 C   0  0  0  0  0  0  0  0  0  0  0  0
  -20.3052   13.4444  -16.9618 C   0  0  0  0  0  0  0  0  0  0  0  0
  -21.4507   13.8754  -17.6359 O   0  0  0  0  0  0  0  0  0  0  0  0
  -19.0378   13.7747  -17.7298 C   0  0  0  0  0  0  0  0  0  0  0  0
  -18.1793   14.5046  -16.9168 O   0  0  0  0  0  0  0  0  0  0  0  0
  -22.0738   13.0968  -17.7122 H   0  0  0  0  0  0  0  0  0  0  0  0
  -18.7297   14.9255  -16.2105 H   0  0  0  0  0  0  0  0  0  0  0  0
  -16.4157   12.4576  -23.7023 N   0  0  0  0  0  0  0  0  0  0  0  0
  -17.1668   13.0719  -22.6705 C   0  0  0  0  0  0  0  0  0  0  0  0
  -17.8326   14.2432  -22.8633 N   0  0  0  0  0  0  0  0  0  0  0  0
  -18.5225   14.7633  -21.8378 C   0  0  0  0  0  0  0  0  0  0  0  0
  -18.5995   14.1974  -20.6208 N   0  0  0  0  0  0  0  0  0  0  0  0
  -17.9576   13.0468  -20.3978 C   0  0  0  0  0  0  0  0  0  0  0  0
  -17.8635   12.2760  -19.3000 N   0  0  0  0  0  0  0  0  0  0  0  0
  -17.0869   11.2339  -19.6473 C   0  0  0  0  0  0  0  0  0  0  0  0
  -16.7154   11.3571  -20.9124 N   0  0  0  0  0  0  0  0  0  0  0  0
  -17.2399   12.4834  -21.4250 C   0  0  0  0  0  0  0  0  0  0  0  0
  -15.3706   12.5514  -23.6683 H   0  0  0  0  0  0  0  0  0  0  0  0
  -16.8388   11.9184  -24.4921 H   0  0  0  0  0  0  0  0  0  0  0  0
  -19.8328   11.4839  -15.4907 C   0  0  0  0  0  0  0  0  0  0  0  0
  -20.6912   10.4986  -15.0019 O   0  0  0  0  0  0  0  0  0  0  0  0
  -20.1301    9.8642  -13.5485 P   0  0  0  0  0  0  0  0  0  0  0  0
  -21.5056    9.5162  -12.5981 O   0  0  0  0  0  0  0  0  0  0  0  0
  -19.2988   10.8665  -12.7775 O   0  0  0  0  0  0  0  0  0  0  0  0
  -22.1724    9.1384  -13.2309 H   0  0  0  0  0  0  0  0  0  0  0  0
  -19.2968    8.4153  -13.7919 O   0  0  0  0  0  0  0  0  0  0  0  0
  -20.0106    7.5299  -15.0151 P   0  0  0  0  0  0  0  0  0  0  0  0
  -21.6911    7.6893  -15.0286 O   0  0  0  0  0  0  0  0  0  0  0  0
  -19.4074    8.0458  -16.5215 O   0  0  0  0  0  0  0  0  0  0  0  0
  -19.7039    6.0425  -14.8959 O   0  0  0  0  0  0  0  0  0  0  0  0
  -21.9832    8.5798  -15.3378 H   0  0  0  0  0  0  0  0  0  0  0  0
  -19.3862    9.0498  -16.5337 H   0  0  0  0  0  0  0  0  0  0  0  0
 10 11  1  0  0  0
 11 12  2  0  0  0
 12 13  1  0  0  0
 13 14  2  0  0  0
 14 15  1  0  0  0
 15 16  1  0  0  0
 16 17  1  0  0  0
 17 18  2  0  0  0
 18 19  1  0  0  0
 16  1  1  0  0  0
  1  2  1  0  0  0
  2  3  1  0  0  0
  3 22  1  0  0  0
 22 23  1  0  0  0
 23 24  1  0  0  0
 24 25  1  0  0  0
 24 26  2  0  0  0
 24 28  1  0  0  0
 28 29  1  0  0  0
 29 30  1  0  0  0
 29 31  1  0  0  0
 29 32  2  0  0  0
  3  4  1  0  0  0
  4  5  1  0  0  0
  4  6  1  0  0  0
  6  7  1  0  0  0
 19 11  1  0  0  0
  6  1  1  0  0  0
 19 15  2  0  0  0
 10 20  1  0  0  0
 10 21  1  0  0  0
 25 27  1  0  0  0
 30 33  1  0  0  0
 31 34  1  0  0  0
  5  8  1  0  0  0
  7  9  1  0  0  0
M  END
> <minimizedAffinity>
-6.77933

> <CNNscore>
0.2837780118

> <CNNaffinity>
4.6323099136

> <CNN_VS>
1.3145476580

> <CNNaffinity_variance>
0.1492120922

$$$$
[H]O[C@@]1([H])[C@]([H])(C([H])([H])OP(=O)(O[H])OP(=O)(O[H])O[H])O[C@@]([H])(n2c([H])nc3c(N([H])[H])nc([H])nc32)[C@]1([H])O[H]


 34 36  0  0  0  0  0  0  0  0999 V2000
  -17.6867   15.8175  -22.3588 C   0  0  0  0  0  0  0  0  0  0  0  0
  -18.7098   15.8760  -23.3250 O   0  0  0  0  0  0  0  0  0  0  0  0
  -18.6758   17.1421  -23.8519 C   0  0  0  0  0  0  0  0  0  0  0  0
  -17.2451   17.5599  -23.9100 C   0  0  0  0  0  0  0  0  0  0  0  0
  -16.7304   17.3723  -25.1953 O   0  0  0  0  0  0  0  0  0  0  0  0
  -16.5668   16.6614  -22.8913 C   0  0  0  0  0  0  0  0  0  0  0  0
  -16.0599   17.4353  -21.8545 O   0  0  0  0  0  0  0  0  0  0  0  0
  -17.4982   17.1945  -25.8111 H   0  0  0  0  0  0  0  0  0  0  0  0
  -15.9429   18.3539  -22.2030 H   0  0  0  0  0  0  0  0  0  0  0  0
  -16.6510   10.0666  -20.7976 N   0  0  0  0  0  0  0  0  0  0  0  0
  -17.1736   11.3430  -20.4756 C   0  0  0  0  0  0  0  0  0  0  0  0
  -17.7730   11.5957  -19.2800 N   0  0  0  0  0  0  0  0  0  0  0  0
  -18.2433   12.8299  -19.0482 C   0  0  0  0  0  0  0  0  0  0  0  0
  -18.1603   13.8426  -19.9284 N   0  0  0  0  0  0  0  0  0  0  0  0
  -17.5776   13.6285  -21.1118 C   0  0  0  0  0  0  0  0  0  0  0  0
  -17.3618   14.4423  -22.1602 N   0  0  0  0  0  0  0  0  0  0  0  0
  -16.7333   13.6935  -23.0843 C   0  0  0  0  0  0  0  0  0  0  0  0
  -16.5675   12.4632  -22.6233 N   0  0  0  0  0  0  0  0  0  0  0  0
  -17.0835   12.3760  -21.3854 C   0  0  0  0  0  0  0  0  0  0  0  0
  -17.2106    9.4585  -21.4453 H   0  0  0  0  0  0  0  0  0  0  0  0
  -15.7449    9.6959  -20.4302 H   0  0  0  0  0  0  0  0  0  0  0  0
  -19.5210   18.1242  -23.0539 C   0  0  0  0  0  0  0  0  0  0  0  0
  -20.8365   17.6718  -22.9483 O   0  0  0  0  0  0  0  0  0  0  0  0
  -21.8427   18.8593  -22.3101 P   0  0  0  0  0  0  0  0  0  0  0  0
  -20.8286   20.0424  -21.6113 O   0  0  0  0  0  0  0  0  0  0  0  0
  -22.7237   18.3195  -21.2045 O   0  0  0  0  0  0  0  0  0  0  0  0
  -20.0662   20.1392  -22.2417 H   0  0  0  0  0  0  0  0  0  0  0  0
  -22.7483   19.6125  -23.5208 O   0  0  0  0  0  0  0  0  0  0  0  0
  -23.6104   18.4800  -24.3947 P   0  0  0  0  0  0  0  0  0  0  0  0
  -22.6093   17.4736  -25.3081 O   0  0  0  0  0  0  0  0  0  0  0  0
  -24.5241   17.5123  -23.3326 O   0  0  0  0  0  0  0  0  0  0  0  0
  -24.5907   19.1317  -25.3616 O   0  0  0  0  0  0  0  0  0  0  0  0
  -22.1041   16.8360  -24.7494 H   0  0  0  0  0  0  0  0  0  0  0  0
  -23.9461   17.2554  -22.5524 H   0  0  0  0  0  0  0  0  0  0  0  0
 10 11  1  0  0  0
 11 12  2  0  0  0
 12 13  1  0  0  0
 13 14  2  0  0  0
 14 15  1  0  0  0
 15 16  1  0  0  0
 16 17  1  0  0  0
 17 18  2  0  0  0
 18 19  1  0  0  0
 16  1  1  0  0  0
  1  2  1  0  0  0
  2  3  1  0  0  0
  3 22  1  0  0  0
 22 23  1  0  0  0
 23 24  1  0  0  0
 24 25  1  0  0  0
 24 26  2  0  0  0
 24 28  1  0  0  0
 28 29  1  0  0  0
 29 30  1  0  0  0
 29 31  1  0  0  0
 29 32  2  0  0  0
  3  4  1  0  0  0
  4  5  1  0  0  0
  4  6  1  0  0  0
  6  7  1  0  0  0
 19 11  1  0  0  0
  6  1  1  0  0  0
 19 15  2  0  0  0
 10 20  1  0  0  0
 10 21  1  0  0  0
 25 27  1  0  0  0
 30 33  1  0  0  0
 31 34  1  0  0  0
  5  8  1  0  0  0
  7  9  1  0  0  0
M  END
> <minimizedAffinity>
-7.13648

> <CNNscore>
0.2564221323

> <CNNaffinity>
4.8677949905

> <CNN_VS>
1.2482104301

> <CNNaffinity_variance>
0.4971440732

$$$$
[H]O[C@@]1([H])[C@]([H])(C([H])([H])OP(=O)(O[H])OP(=O)(O[H])O[H])O[C@@]([H])(n2c([H])nc3c(N([H])[H])nc([H])nc32)[C@]1([H])O[H]


 34 36  0  0  0  0  0  0  0  0999 V2000
  -17.7321   15.9132  -21.2569 C   0  0  0  0  0  0  0  0  0  0  0  0
  -18.9304   15.2792  -21.6383 O   0  0  0  0  0  0  0  0  0  0  0  0
  -19.8056   15.4403  -20.5944 C   0  0  0  0  0  0  0  0  0  0  0  0
  -19.5514   16.7874  -20.0066 C   0  0  0  0  0  0  0  0  0  0  0  0
  -20.4773   17.7163  -20.4882 O   0  0  0  0  0  0  0  0  0  0  0  0
  -18.1372   17.1132  -20.4531 C   0  0  0  0  0  0  0  0  0  0  0  0
  -17.3089   17.2053  -19.3413 O   0  0  0  0  0  0  0  0  0  0  0  0
  -21.2063   17.2120  -20.9514 H   0  0  0  0  0  0  0  0  0  0  0  0
  -17.8852   17.3974  -18.5602 H   0  0  0  0  0  0  0  0  0  0  0  0
  -14.3512   16.4082  -26.2477 N   0  0  0  0  0  0  0  0  0  0  0  0
  -14.7965   15.6355  -25.1474 C   0  0  0  0  0  0  0  0  0  0  0  0
  -14.3682   14.3599  -24.9422 N   0  0  0  0  0  0  0  0  0  0  0  0
  -14.8350   13.6918  -23.8774 C   0  0  0  0  0  0  0  0  0  0  0  0
  -15.7063   14.2051  -22.9917 N   0  0  0  0  0  0  0  0  0  0  0  0
  -16.1468   15.4549  -23.1637 C   0  0  0  0  0  0  0  0  0  0  0  0
  -17.0029   16.2055  -22.4481 N   0  0  0  0  0  0  0  0  0  0  0  0
  -17.0773   17.3878  -23.0855 C   0  0  0  0  0  0  0  0  0  0  0  0
  -16.2962   17.3676  -24.1546 N   0  0  0  0  0  0  0  0  0  0  0  0
  -15.6907   16.1711  -24.2438 C   0  0  0  0  0  0  0  0  0  0  0  0
  -15.0050   16.5224  -27.0612 H   0  0  0  0  0  0  0  0  0  0  0  0
  -13.4142   16.8697  -26.2973 H   0  0  0  0  0  0  0  0  0  0  0  0
  -19.6777   14.3355  -19.5558 C   0  0  0  0  0  0  0  0  0  0  0  0
  -20.2782   14.7144  -18.3549 O   0  0  0  0  0  0  0  0  0  0  0  0
  -19.7756   13.7344  -17.0833 P   0  0  0  0  0  0  0  0  0  0  0  0
  -20.7795   14.1007  -15.7512 O   0  0  0  0  0  0  0  0  0  0  0  0
  -18.3531   14.0369  -16.6646 O   0  0  0  0  0  0  0  0  0  0  0  0
  -21.6901   14.2141  -16.1330 H   0  0  0  0  0  0  0  0  0  0  0  0
  -19.9864   12.0988  -17.4481 O   0  0  0  0  0  0  0  0  0  0  0  0
  -20.4580   11.2533  -16.0871 P   0  0  0  0  0  0  0  0  0  0  0  0
  -19.7199   11.8305  -14.6830 O   0  0  0  0  0  0  0  0  0  0  0  0
  -22.1460   11.3710  -15.8970 O   0  0  0  0  0  0  0  0  0  0  0  0
  -20.1218    9.7712  -16.1917 O   0  0  0  0  0  0  0  0  0  0  0  0
  -20.0711   12.7103  -14.4064 H   0  0  0  0  0  0  0  0  0  0  0  0
  -22.4226   12.3236  -16.0544 H   0  0  0  0  0  0  0  0  0  0  0  0
 10 11  1  0  0  0
 11 12  2  0  0  0
 12 13  1  0  0  0
 13 14  2  0  0  0
 14 15  1  0  0  0
 15 16  1  0  0  0
 16 17  1  0  0  0
 17 18  2  0  0  0
 18 19  1  0  0  0
 16  1  1  0  0  0
  1  2  1  0  0  0
  2  3  1  0  0  0
  3 22  1  0  0  0
 22 23  1  0  0  0
 23 24  1  0  0  0
 24 25  1  0  0  0
 24 26  2  0  0  0
 24 28  1  0  0  0
 28 29  1  0  0  0
 29 30  1  0  0  0
 29 31  1  0  0  0
 29 32  2  0  0  0
  3  4  1  0  0  0
  4  5  1  0  0  0
  4  6  1  0  0  0
  6  7  1  0  0  0
 19 11  1  0  0  0
  6  1  1  0  0  0
 19 15  2  0  0  0
 10 20  1  0  0  0
 10 21  1  0  0  0
 25 27  1  0  0  0
 30 33  1  0  0  0
 31 34  1  0  0  0
  5  8  1  0  0  0
  7  9  1  0  0  0
M  END
> <minimizedAffinity>
-7.15779

> <CNNscore>
0.2485872954

> <CNNaffinity>
4.7689113617

> <CNN_VS>
1.1854907274

> <CNNaffinity_variance>
0.2127856314

$$$$
[H]c1nc(Oc2c([H])c([H])c(C(F)(F)F)c([H])c2C(=O)N([H])c2c([H])c([H])n([H])c(=O)c2[H])c([H])c([H])c1F


 30 32  0  0  0  0  0  0  0  0999 V2000
  -18.0235   16.6226  -22.6863 C   0  0  0  0  0  0  0  0  0  0  0  0
  -18.5851   17.8777  -23.0115 C   0  0  0  0  0  0  0  0  0  0  0  0
  -19.7727   18.2826  -22.4393 C   0  0  0  0  0  0  0  0  0  0  0  0
  -20.4467   17.4901  -21.5404 C   0  0  0  0  0  0  0  0  0  0  0  0
  -19.8998   16.2755  -21.2189 C   0  0  0  0  0  0  0  0  0  0  0  0
  -18.6591   15.8482  -21.8081 C   0  0  0  0  0  0  0  0  0  0  0  0
  -18.0744   14.6839  -21.1100 C   0  0  0  0  0  0  0  0  0  0  0  0
  -17.1468   14.8670  -20.3127 O   0  0  0  0  0  0  0  0  0  0  0  0
  -18.5294   13.3617  -21.3015 N   0  0  0  0  0  0  0  0  0  0  0  0
  -19.2604   13.0552  -21.9632 H   0  0  0  0  0  0  0  0  0  0  0  0
  -17.9496   12.2633  -20.5483 C   0  0  0  0  0  0  0  0  0  0  0  0
  -18.3852   12.0304  -19.2612 C   0  0  0  0  0  0  0  0  0  0  0  0
  -17.7850   11.0201  -18.5318 C   0  0  0  0  0  0  0  0  0  0  0  0
  -16.7955   10.2450  -19.0031 N   0  0  0  0  0  0  0  0  0  0  0  0
  -16.3846   10.4862  -20.2596 C   0  0  0  0  0  0  0  0  0  0  0  0
  -15.4503    9.7713  -20.7383 O   0  0  0  0  0  0  0  0  0  0  0  0
  -16.9378   11.4760  -21.0397 C   0  0  0  0  0  0  0  0  0  0  0  0
  -16.3522    9.4907  -18.4384 H   0  0  0  0  0  0  0  0  0  0  0  0
  -21.7517   17.9481  -20.9463 C   0  0  0  0  0  0  0  0  0  0  0  0
  -22.2293   16.9587  -20.0778 F   0  0  0  0  0  0  0  0  0  0  0  0
  -22.6695   18.0208  -21.9632 F   0  0  0  0  0  0  0  0  0  0  0  0
  -21.6148   19.0832  -20.2107 F   0  0  0  0  0  0  0  0  0  0  0  0
  -16.8315   16.2879  -23.3266 O   0  0  0  0  0  0  0  0  0  0  0  0
  -16.6712   13.6921  -28.1911 F   0  0  0  0  0  0  0  0  0  0  0  0
  -16.7138   14.3147  -27.0037 C   0  0  0  0  0  0  0  0  0  0  0  0
  -17.3212   13.6807  -25.9522 C   0  0  0  0  0  0  0  0  0  0  0  0
  -17.3441   14.3698  -24.7281 C   0  0  0  0  0  0  0  0  0  0  0  0
  -16.8181   15.5858  -24.5289 C   0  0  0  0  0  0  0  0  0  0  0  0
  -16.2217   16.1793  -25.6145 N   0  0  0  0  0  0  0  0  0  0  0  0
  -16.1758   15.5655  -26.7940 C   0  0  0  0  0  0  0  0  0  0  0  0
 24 25  1  0  0  0
 25 26  2  0  0  0
 26 27  1  0  0  0
 27 28  2  0  0  0
 28 23  1  0  0  0
 23  1  1  0  0  0
  1  2  2  0  0  0
  2  3  1  0  0  0
  3  4  2  0  0  0
  4  5  1  0  0  0
  5  6  2  0  0  0
  6  7  1  0  0  0
  7  8  2  0  0  0
  7  9  1  0  0  0
  9 11  1  0  0  0
 11 12  1  0  0  0
 12 13  2  0  0  0
 13 14  1  0  0  0
 14 15  1  0  0  0
 15 16  2  0  0  0
 15 17  1  0  0  0
  4 19  1  0  0  0
 19 20  1  0  0  0
 19 21  1  0  0  0
 19 22  1  0  0  0
 28 29  1  0  0  0
 29 30  2  0  0  0
 30 25  1  0  0  0
  6  1  1  0  0  0
 17 11  2  0  0  0
  9 10  1  0  0  0
 14 18  1  0  0  0
M  END
> <minimizedAffinity>
-8.30727

> <CNNscore>
0.6959957480

> <CNNaffinity>
6.9646048546

> <CNN_VS>
4.8473353386

> <CNNaffinity_variance>
0.1788549572

$$$$
[H]c1nc(Oc2c([H])c([H])c(C(F)(F)F)c([H])c2C(=O)N([H])c2c([H])c([H])n([H])c(=O)c2[H])c([H])c([H])c1F


 30 32  0  0  0  0  0  0  0  0999 V2000
  -19.6768   16.5491  -18.9043 C   0  0  0  0  0  0  0  0  0  0  0  0
  -19.9341   17.9293  -18.7453 C   0  0  0  0  0  0  0  0  0  0  0  0
  -19.9905   18.4905  -17.4869 C   0  0  0  0  0  0  0  0  0  0  0  0
  -19.7995   17.7373  -16.3527 C   0  0  0  0  0  0  0  0  0  0  0  0
  -19.5431   16.3998  -16.5056 C   0  0  0  0  0  0  0  0  0  0  0  0
  -19.4782   15.8082  -17.8150 C   0  0  0  0  0  0  0  0  0  0  0  0
  -18.8821   14.4558  -17.7942 C   0  0  0  0  0  0  0  0  0  0  0  0
  -18.0859   14.1657  -16.8934 O   0  0  0  0  0  0  0  0  0  0  0  0
  -19.1831   13.4656  -18.7537 N   0  0  0  0  0  0  0  0  0  0  0  0
  -19.7911   13.5785  -19.5806 H   0  0  0  0  0  0  0  0  0  0  0  0
  -18.6051   12.1368  -18.6522 C   0  0  0  0  0  0  0  0  0  0  0  0
  -19.1548   11.2332  -17.7680 C   0  0  0  0  0  0  0  0  0  0  0  0
  -18.5606    9.9913  -17.6356 C   0  0  0  0  0  0  0  0  0  0  0  0
  -17.4718    9.6073  -18.3205 N   0  0  0  0  0  0  0  0  0  0  0  0
  -16.9505   10.5009  -19.1780 C   0  0  0  0  0  0  0  0  0  0  0  0
  -15.9202   10.1710  -19.8435 O   0  0  0  0  0  0  0  0  0  0  0  0
  -17.4912   11.7538  -19.3576 C   0  0  0  0  0  0  0  0  0  0  0  0
  -17.0350    8.6689  -18.2056 H   0  0  0  0  0  0  0  0  0  0  0  0
  -19.8867   18.3716  -14.9904 C   0  0  0  0  0  0  0  0  0  0  0  0
  -18.5911   18.5812  -14.5015 F   0  0  0  0  0  0  0  0  0  0  0  0
  -20.4582   17.4583  -14.1414 F   0  0  0  0  0  0  0  0  0  0  0  0
  -20.4948   19.5871  -15.0241 F   0  0  0  0  0  0  0  0  0  0  0  0
  -19.6569   16.0648  -20.2112 O   0  0  0  0  0  0  0  0  0  0  0  0
  -15.4510   16.9119  -23.6781 F   0  0  0  0  0  0  0  0  0  0  0  0
  -16.4671   16.7028  -22.8278 C   0  0  0  0  0  0  0  0  0  0  0  0
  -16.2093   16.0688  -21.6411 C   0  0  0  0  0  0  0  0  0  0  0  0
  -17.3027   15.8694  -20.7818 C   0  0  0  0  0  0  0  0  0  0  0  0
  -18.5586   16.2541  -21.0458 C   0  0  0  0  0  0  0  0  0  0  0  0
  -18.7650   16.8843  -22.2486 N   0  0  0  0  0  0  0  0  0  0  0  0
  -17.7604   17.0951  -23.0949 C   0  0  0  0  0  0  0  0  0  0  0  0
 24 25  1  0  0  0
 25 26  2  0  0  0
 26 27  1  0  0  0
 27 28  2  0  0  0
 28 23  1  0  0  0
 23  1  1  0  0  0
  1  2  2  0  0  0
  2  3  1  0  0  0
  3  4  2  0  0  0
  4  5  1  0  0  0
  5  6  2  0  0  0
  6  7  1  0  0  0
  7  8  2  0  0  0
  7  9  1  0  0  0
  9 11  1  0  0  0
 11 12  1  0  0  0
 12 13  2  0  0  0
 13 14  1  0  0  0
 14 15  1  0  0  0
 15 16  2  0  0  0
 15 17  1  0  0  0
  4 19  1  0  0  0
 19 20  1  0  0  0
 19 21  1  0  0  0
 19 22  1  0  0  0
 28 29  1  0  0  0
 29 30  2  0  0  0
 30 25  1  0  0  0
  6  1  1  0  0  0
 17 11  2  0  0  0
  9 10  1  0  0  0
 14 18  1  0  0  0
M  END
> <minimizedAffinity>
-7.82512

> <CNNscore>
0.4306795001

> <CNNaffinity>
6.3984355927

> <CNN_VS>
2.7556750774

> <CNNaffinity_variance>
0.2116003782

$$$$
[H]c1nc(Oc2c([H])c([H])c(C(F)(F)F)c([H])c2C(=O)N([H])c2c([H])c([H])n([H])c(=O)c2[H])c([H])c([H])c1F


 30 32  0  0  0  0  0  0  0  0999 V2000
  -18.9266   16.9662  -18.7662 C   0  0  0  0  0  0  0  0  0  0  0  0
  -19.0907   18.3475  -18.5183 C   0  0  0  0  0  0  0  0  0  0  0  0
  -19.3753   18.8018  -17.2477 C   0  0  0  0  0  0  0  0  0  0  0  0
  -19.5076   17.9379  -16.1863 C   0  0  0  0  0  0  0  0  0  0  0  0
  -19.3420   16.5985  -16.4239 C   0  0  0  0  0  0  0  0  0  0  0  0
  -19.0405   16.1175  -17.7455 C   0  0  0  0  0  0  0  0  0  0  0  0
  -18.5849   14.7114  -17.7439 C   0  0  0  0  0  0  0  0  0  0  0  0
  -17.9841   14.2773  -16.7539 O   0  0  0  0  0  0  0  0  0  0  0  0
  -18.8090   13.8270  -18.8207 N   0  0  0  0  0  0  0  0  0  0  0  0
  -19.2542   14.0604  -19.7227 H   0  0  0  0  0  0  0  0  0  0  0  0
  -18.3827   12.4407  -18.7407 C   0  0  0  0  0  0  0  0  0  0  0  0
  -19.0807   11.5713  -17.9299 C   0  0  0  0  0  0  0  0  0  0  0  0
  -18.6311   10.2683  -17.8145 C   0  0  0  0  0  0  0  0  0  0  0  0
  -17.5475    9.7931  -18.4483 N   0  0  0  0  0  0  0  0  0  0  0  0
  -16.8804   10.6548  -19.2346 C   0  0  0  0  0  0  0  0  0  0  0  0
  -15.8502   10.2389  -19.8503 O   0  0  0  0  0  0  0  0  0  0  0  0
  -17.2727   11.9644  -19.3934 C   0  0  0  0  0  0  0  0  0  0  0  0
  -17.2208    8.8095  -18.3470 H   0  0  0  0  0  0  0  0  0  0  0  0
  -19.8387   18.4591  -14.8136 C   0  0  0  0  0  0  0  0  0  0  0  0
  -18.6472   18.7192  -14.1251 F   0  0  0  0  0  0  0  0  0  0  0  0
  -20.4519   17.4466  -14.1204 F   0  0  0  0  0  0  0  0  0  0  0  0
  -20.5299   19.6289  -14.8576 F   0  0  0  0  0  0  0  0  0  0  0  0
  -18.6599   16.5962  -20.0834 O   0  0  0  0  0  0  0  0  0  0  0  0
  -21.3481   18.9912  -24.2625 F   0  0  0  0  0  0  0  0  0  0  0  0
  -20.6855   18.4130  -23.2495 C   0  0  0  0  0  0  0  0  0  0  0  0
  -19.3167   18.4686  -23.2447 C   0  0  0  0  0  0  0  0  0  0  0  0
  -18.6641   17.8488  -22.1659 C   0  0  0  0  0  0  0  0  0  0  0  0
  -19.2857   17.2189  -21.1600 C   0  0  0  0  0  0  0  0  0  0  0  0
  -20.6580   17.1899  -21.2119 N   0  0  0  0  0  0  0  0  0  0  0  0
  -21.3198   17.7629  -22.2137 C   0  0  0  0  0  0  0  0  0  0  0  0
 24 25  1  0  0  0
 25 26  2  0  0  0
 26 27  1  0  0  0
 27 28  2  0  0  0
 28 23  1  0  0  0
 23  1  1  0  0  0
  1  2  2  0  0  0
  2  3  1  0  0  0
  3  4  2  0  0  0
  4  5  1  0  0  0
  5  6  2  0  0  0
  6  7  1  0  0  0
  7  8  2  0  0  0
  7  9  1  0  0  0
  9 11  1  0  0  0
 11 12  1  0  0  0
 12 13  2  0  0  0
 13 14  1  0  0  0
 14 15  1  0  0  0
 15 16  2  0  0  0
 15 17  1  0  0  0
  4 19  1  0  0  0
 19 20  1  0  0  0
 19 21  1  0  0  0
 19 22  1  0  0  0
 28 29  1  0  0  0
 29 30  2  0  0  0
 30 25  1  0  0  0
  6  1  1  0  0  0
 17 11  2  0  0  0
  9 10  1  0  0  0
 14 18  1  0  0  0
M  END
> <minimizedAffinity>
-7.65437

> <CNNscore>
0.4110381007

> <CNNaffinity>
6.2811350822

> <CNN_VS>
2.5817859173

> <CNNaffinity_variance>
0.2575874329

$$$$
[H]c1nc(Oc2c([H])c([H])c(C(F)(F)F)c([H])c2C(=O)N([H])c2c([H])c([H])n([H])c(=O)c2[H])c([H])c([H])c1F


 30 32  0  0  0  0  0  0  0  0999 V2000
  -17.9193   14.0818  -21.6611 C   0  0  0  0  0  0  0  0  0  0  0  0
  -17.5926   14.5336  -22.9594 C   0  0  0  0  0  0  0  0  0  0  0  0
  -18.4336   15.3939  -23.6335 C   0  0  0  0  0  0  0  0  0  0  0  0
  -19.6075   15.8402  -23.0738 C   0  0  0  0  0  0  0  0  0  0  0  0
  -19.9223   15.4083  -21.8120 C   0  0  0  0  0  0  0  0  0  0  0  0
  -19.0479   14.5147  -21.1008 C   0  0  0  0  0  0  0  0  0  0  0  0
  -19.3833   14.4216  -19.6642 C   0  0  0  0  0  0  0  0  0  0  0  0
  -19.9169   15.3897  -19.1096 O   0  0  0  0  0  0  0  0  0  0  0  0
  -19.1313   13.2712  -18.8865 N   0  0  0  0  0  0  0  0  0  0  0  0
  -18.6553   12.4109  -19.2017 H   0  0  0  0  0  0  0  0  0  0  0  0
  -19.5301   13.2197  -17.4907 C   0  0  0  0  0  0  0  0  0  0  0  0
  -20.6677   13.8898  -17.0942 C   0  0  0  0  0  0  0  0  0  0  0  0
  -21.0059   13.8840  -15.7530 C   0  0  0  0  0  0  0  0  0  0  0  0
  -20.2889   13.2610  -14.8045 N   0  0  0  0  0  0  0  0  0  0  0  0
  -19.1838   12.6127  -15.2099 C   0  0  0  0  0  0  0  0  0  0  0  0
  -18.4815   12.0113  -14.3391 O   0  0  0  0  0  0  0  0  0  0  0  0
  -18.7896   12.5793  -16.5282 C   0  0  0  0  0  0  0  0  0  0  0  0
  -20.5563   13.2700  -13.7981 H   0  0  0  0  0  0  0  0  0  0  0  0
  -20.5169   16.7630  -23.8400 C   0  0  0  0  0  0  0  0  0  0  0  0
  -21.8176   16.2443  -23.8162 F   0  0  0  0  0  0  0  0  0  0  0  0
  -20.1308   16.7303  -25.1559 F   0  0  0  0  0  0  0  0  0  0  0  0
  -20.5790   18.0037  -23.2878 F   0  0  0  0  0  0  0  0  0  0  0  0
  -17.0210   13.1995  -21.0632 O   0  0  0  0  0  0  0  0  0  0  0  0
  -12.2958   11.6508  -23.4508 F   0  0  0  0  0  0  0  0  0  0  0  0
  -13.4422   12.0374  -22.8714 C   0  0  0  0  0  0  0  0  0  0  0  0
  -13.6061   13.3615  -22.5608 C   0  0  0  0  0  0  0  0  0  0  0  0
  -14.8210   13.7214  -21.9540 C   0  0  0  0  0  0  0  0  0  0  0  0
  -15.8111   12.8660  -21.6660 C   0  0  0  0  0  0  0  0  0  0  0  0
  -15.5974   11.5499  -21.9960 N   0  0  0  0  0  0  0  0  0  0  0  0
  -14.4626   11.1617  -22.5719 C   0  0  0  0  0  0  0  0  0  0  0  0
 24 25  1  0  0  0
 25 26  2  0  0  0
 26 27  1  0  0  0
 27 28  2  0  0  0
 28 23  1  0  0  0
 23  1  1  0  0  0
  1  2  2  0  0  0
  2  3  1  0  0  0
  3  4  2  0  0  0
  4  5  1  0  0  0
  5  6  2  0  0  0
  6  7  1  0  0  0
  7  8  2  0  0  0
  7  9  1  0  0  0
  9 11  1  0  0  0
 11 12  1  0  0  0
 12 13  2  0  0  0
 13 14  1  0  0  0
 14 15  1  0  0  0
 15 16  2  0  0  0
 15 17  1  0  0  0
  4 19  1  0  0  0
 19 20  1  0  0  0
 19 21  1  0  0  0
 19 22  1  0  0  0
 28 29  1  0  0  0
 29 30  2  0  0  0
 30 25  1  0  0  0
  6  1  1  0  0  0
 17 11  2  0  0  0
  9 10  1  0  0  0
 14 18  1  0  0  0
M  END
> <minimizedAffinity>
11.90304

> <CNNscore>
0.4034302235

> <CNNaffinity>
6.1529607773

> <CNN_VS>
2.4822902679

> <CNNaffinity_variance>
2.6506142616

$$$$
[H]c1nc(Oc2c([H])c([H])c(C(F)(F)F)c([H])c2C(=O)N([H])c2c([H])c([H])n([H])c(=O)c2[H])c([H])c([H])c1F


 30 32  0  0  0  0  0  0  0  0999 V2000
  -17.9940   13.8140  -22.0873 C   0  0  0  0  0  0  0  0  0  0  0  0
  -17.0648   12.8050  -22.4265 C   0  0  0  0  0  0  0  0  0  0  0  0
  -16.7648   11.8000  -21.5311 C   0  0  0  0  0  0  0  0  0  0  0  0
  -17.3525   11.7417  -20.2895 C   0  0  0  0  0  0  0  0  0  0  0  0
  -18.2590   12.7158  -19.9617 C   0  0  0  0  0  0  0  0  0  0  0  0
  -18.5804   13.7647  -20.8920 C   0  0  0  0  0  0  0  0  0  0  0  0
  -19.7905   14.5167  -20.4983 C   0  0  0  0  0  0  0  0  0  0  0  0
  -20.7290   13.9081  -19.9707 O   0  0  0  0  0  0  0  0  0  0  0  0
  -19.9289   15.9084  -20.6874 N   0  0  0  0  0  0  0  0  0  0  0  0
  -19.2509   16.5341  -21.1511 H   0  0  0  0  0  0  0  0  0  0  0  0
  -21.1217   16.6019  -20.2331 C   0  0  0  0  0  0  0  0  0  0  0  0
  -21.2121   16.9831  -18.9114 C   0  0  0  0  0  0  0  0  0  0  0  0
  -22.3764   17.5894  -18.4755 C   0  0  0  0  0  0  0  0  0  0  0  0
  -23.4337   17.8319  -19.2662 N   0  0  0  0  0  0  0  0  0  0  0  0
  -23.3270   17.4540  -20.5513 C   0  0  0  0  0  0  0  0  0  0  0  0
  -24.3084   17.6686  -21.3285 O   0  0  0  0  0  0  0  0  0  0  0  0
  -22.1979   16.8453  -21.0503 C   0  0  0  0  0  0  0  0  0  0  0  0
  -24.3044   18.2863  -18.9201 H   0  0  0  0  0  0  0  0  0  0  0  0
  -16.9915   10.6449  -19.3239 C   0  0  0  0  0  0  0  0  0  0  0  0
  -15.9249   11.0744  -18.5243 F   0  0  0  0  0  0  0  0  0  0  0  0
  -16.5041    9.5909  -20.0541 F   0  0  0  0  0  0  0  0  0  0  0  0
  -18.0146   10.3394  -18.4825 F   0  0  0  0  0  0  0  0  0  0  0  0
  -18.2215   14.8002  -23.0457 O   0  0  0  0  0  0  0  0  0  0  0  0
  -14.5597   15.8668  -27.0307 F   0  0  0  0  0  0  0  0  0  0  0  0
  -15.4543   15.5999  -26.0674 C   0  0  0  0  0  0  0  0  0  0  0  0
  -16.4741   14.7277  -26.3430 C   0  0  0  0  0  0  0  0  0  0  0  0
  -17.3885   14.4785  -25.3059 C   0  0  0  0  0  0  0  0  0  0  0  0
  -17.3260   15.0303  -24.0866 C   0  0  0  0  0  0  0  0  0  0  0  0
  -16.2858   15.8985  -23.8610 N   0  0  0  0  0  0  0  0  0  0  0  0
  -15.3953   16.1655  -24.8127 C   0  0  0  0  0  0  0  0  0  0  0  0
 24 25  1  0  0  0
 25 26  2  0  0  0
 26 27  1  0  0  0
 27 28  2  0  0  0
 28 23  1  0  0  0
 23  1  1  0  0  0
  1  2  2  0  0  0
  2  3  1  0  0  0
  3  4  2  0  0  0
  4  5  1  0  0  0
  5  6  2  0  0  0
  6  7  1  0  0  0
  7  8  2  0  0  0
  7  9  1  0  0  0
  9 11  1  0  0  0
 11 12  1  0  0  0
 12 13  2  0  0  0
 13 14  1  0  0  0
 14 15  1  0  0  0
 15 16  2  0  0  0
 15 17  1  0  0  0
  4 19  1  0  0  0
 19 20  1  0  0  0
 19 21  1  0  0  0
 19 22  1  0  0  0
 28 29  1  0  0  0
 29 30  2  0  0  0
 30 25  1  0  0  0
  6  1  1  0  0  0
 17 11  2  0  0  0
  9 10  1  0  0  0
 14 18  1  0  0  0
M  END
> <minimizedAffinity>
-8.96330

> <CNNscore>
0.3159566224

> <CNNaffinity>
6.1520848274

> <CNN_VS>
1.9437919855

> <CNNaffinity_variance>
0.1963619590

$$$$
[H]c1nc(Oc2c([H])c([H])c(C(F)(F)F)c([H])c2C(=O)N([H])c2c([H])c([H])n([H])c(=O)c2[H])c([H])c([H])c1F


 30 32  0  0  0  0  0  0  0  0999 V2000
  -16.9913   16.4007  -23.0097 C   0  0  0  0  0  0  0  0  0  0  0  0
  -16.9037   17.3583  -24.0449 C   0  0  0  0  0  0  0  0  0  0  0  0
  -16.5934   16.9717  -25.3318 C   0  0  0  0  0  0  0  0  0  0  0  0
  -16.3614   15.6550  -25.6526 C   0  0  0  0  0  0  0  0  0  0  0  0
  -16.4527   14.7243  -24.6510 C   0  0  0  0  0  0  0  0  0  0  0  0
  -16.7804   15.1193  -23.3073 C   0  0  0  0  0  0  0  0  0  0  0  0
  -17.1464   13.9689  -22.4544 C   0  0  0  0  0  0  0  0  0  0  0  0
  -17.4187   12.8881  -22.9905 O   0  0  0  0  0  0  0  0  0  0  0  0
  -17.1938   14.0378  -21.0456 N   0  0  0  0  0  0  0  0  0  0  0  0
  -17.0354   14.8786  -20.4676 H   0  0  0  0  0  0  0  0  0  0  0  0
  -17.5105   12.8594  -20.2574 C   0  0  0  0  0  0  0  0  0  0  0  0
  -18.5339   12.9252  -19.3361 C   0  0  0  0  0  0  0  0  0  0  0  0
  -18.7883   11.8167  -18.5489 C   0  0  0  0  0  0  0  0  0  0  0  0
  -18.0944   10.6702  -18.6266 N   0  0  0  0  0  0  0  0  0  0  0  0
  -17.1012   10.6245  -19.5306 C   0  0  0  0  0  0  0  0  0  0  0  0
  -16.4240    9.5547  -19.6318 O   0  0  0  0  0  0  0  0  0  0  0  0
  -16.7945   11.6911  -20.3445 C   0  0  0  0  0  0  0  0  0  0  0  0
  -18.2973    9.8461  -18.0231 H   0  0  0  0  0  0  0  0  0  0  0  0
  -16.0045   15.2633  -27.0615 C   0  0  0  0  0  0  0  0  0  0  0  0
  -16.5428   13.9992  -27.3333 F   0  0  0  0  0  0  0  0  0  0  0  0
  -14.6432   15.1044  -27.1174 F   0  0  0  0  0  0  0  0  0  0  0  0
  -16.5239   16.1174  -27.9829 F   0  0  0  0  0  0  0  0  0  0  0  0
  -17.2910   16.8836  -21.7370 O   0  0  0  0  0  0  0  0  0  0  0  0
  -22.2063   19.0118  -20.4188 F   0  0  0  0  0  0  0  0  0  0  0  0
  -21.0157   18.4856  -20.7425 C   0  0  0  0  0  0  0  0  0  0  0  0
  -20.9568   17.1625  -21.0928 C   0  0  0  0  0  0  0  0  0  0  0  0
  -19.6898   16.6531  -21.4227 C   0  0  0  0  0  0  0  0  0  0  0  0
  -18.5566   17.3677  -21.4166 C   0  0  0  0  0  0  0  0  0  0  0  0
  -18.6687   18.6887  -21.0573 N   0  0  0  0  0  0  0  0  0  0  0  0
  -19.8474   19.2156  -20.7365 C   0  0  0  0  0  0  0  0  0  0  0  0
 24 25  1  0  0  0
 25 26  2  0  0  0
 26 27  1  0  0  0
 27 28  2  0  0  0
 28 23  1  0  0  0
 23  1  1  0  0  0
  1  2  2  0  0  0
  2  3  1  0  0  0
  3  4  2  0  0  0
  4  5  1  0  0  0
  5  6  2  0  0  0
  6  7  1  0  0  0
  7  8  2  0  0  0
  7  9  1  0  0  0
  9 11  1  0  0  0
 11 12  1  0  0  0
 12 13  2  0  0  0
 13 14  1  0  0  0
 14 15  1  0  0  0
 15 16  2  0  0  0
 15 17  1  0  0  0
  4 19  1  0  0  0
 19 20  1  0  0  0
 19 21  1  0  0  0
 19 22  1  0  0  0
 28 29  1  0  0  0
 29 30  2  0  0  0
 30 25  1  0  0  0
  6  1  1  0  0  0
 17 11  2  0  0  0
  9 10  1  0  0  0
 14 18  1  0  0  0
M  END
> <minimizedAffinity>
-7.73953

> <CNNscore>
0.2921577692

> <CNNaffinity>
6.6201334000

> <CNN_VS>
1.9341233969

> <CNNaffinity_variance>
0.2263061702

$$$$
[H]c1nc(Oc2c([H])c([H])c(C(F)(F)F)c([H])c2C(=O)N([H])c2c([H])c([H])n([H])c(=O)c2[H])c([H])c([H])c1F


 30 32  0  0  0  0  0  0  0  0999 V2000
  -19.1371   17.2147  -22.4470 C   0  0  0  0  0  0  0  0  0  0  0  0
  -19.4191   18.5791  -22.6817 C   0  0  0  0  0  0  0  0  0  0  0  0
  -19.5982   19.4486  -21.6264 C   0  0  0  0  0  0  0  0  0  0  0  0
  -19.5092   19.0257  -20.3211 C   0  0  0  0  0  0  0  0  0  0  0  0
  -19.2290   17.7040  -20.0920 C   0  0  0  0  0  0  0  0  0  0  0  0
  -19.0364   16.7921  -21.1876 C   0  0  0  0  0  0  0  0  0  0  0  0
  -18.4344   15.5125  -20.7574 C   0  0  0  0  0  0  0  0  0  0  0  0
  -17.4085   15.5351  -20.0670 O   0  0  0  0  0  0  0  0  0  0  0  0
  -18.9791   14.2538  -21.0899 N   0  0  0  0  0  0  0  0  0  0  0  0
  -19.8003   14.0812  -21.6916 H   0  0  0  0  0  0  0  0  0  0  0  0
  -18.3718   13.0306  -20.5950 C   0  0  0  0  0  0  0  0  0  0  0  0
  -18.7726   12.5302  -19.3746 C   0  0  0  0  0  0  0  0  0  0  0  0
  -18.1460   11.3984  -18.8851 C   0  0  0  0  0  0  0  0  0  0  0  0
  -17.1629   10.7508  -19.5300 N   0  0  0  0  0  0  0  0  0  0  0  0
  -16.7861   11.2526  -20.7183 C   0  0  0  0  0  0  0  0  0  0  0  0
  -15.8588   10.6647  -21.3568 O   0  0  0  0  0  0  0  0  0  0  0  0
  -17.3668   12.3755  -21.2627 C   0  0  0  0  0  0  0  0  0  0  0  0
  -16.6994    9.9015  -19.1448 H   0  0  0  0  0  0  0  0  0  0  0  0
  -19.7293   19.9919  -19.1882 C   0  0  0  0  0  0  0  0  0  0  0  0
  -19.2543   19.4190  -18.0017 F   0  0  0  0  0  0  0  0  0  0  0  0
  -21.0831   20.1296  -19.0152 F   0  0  0  0  0  0  0  0  0  0  0  0
  -19.0487   21.1559  -19.3618 F   0  0  0  0  0  0  0  0  0  0  0  0
  -18.9904   16.4055  -23.5725 O   0  0  0  0  0  0  0  0  0  0  0  0
  -14.0958   14.5608  -25.3237 F   0  0  0  0  0  0  0  0  0  0  0  0
  -15.2833   15.0190  -24.9004 C   0  0  0  0  0  0  0  0  0  0  0  0
  -15.4703   16.3733  -24.8129 C   0  0  0  0  0  0  0  0  0  0  0  0
  -16.7282   16.8087  -24.3636 C   0  0  0  0  0  0  0  0  0  0  0  0
  -17.7377   15.9967  -24.0223 C   0  0  0  0  0  0  0  0  0  0  0  0
  -17.4996   14.6480  -24.1263 N   0  0  0  0  0  0  0  0  0  0  0  0
  -16.3240   14.1885  -24.5468 C   0  0  0  0  0  0  0  0  0  0  0  0
 24 25  1  0  0  0
 25 26  2  0  0  0
 26 27  1  0  0  0
 27 28  2  0  0  0
 28 23  1  0  0  0
 23  1  1  0  0  0
  1  2  2  0  0  0
  2  3  1  0  0  0
  3  4  2  0  0  0
  4  5  1  0  0  0
  5  6  2  0  0  0
  6  7  1  0  0  0
  7  8  2  0  0  0
  7  9  1  0  0  0
  9 11  1  0  0  0
 11 12  1  0  0  0
 12 13  2  0  0  0
 13 14  1  0  0  0
 14 15  1  0  0  0
 15 16  2  0  0  0
 15 17  1  0  0  0
  4 19  1  0  0  0
 19 20  1  0  0  0
 19 21  1  0  0  0
 19 22  1  0  0  0
 28 29  1  0  0  0
 29 30  2  0  0  0
 30 25  1  0  0  0
  6  1  1  0  0  0
 17 11  2  0  0  0
  9 10  1  0  0  0
 14 18  1  0  0  0
M  END
> <minimizedAffinity>
-7.15820

> <CNNscore>
0.2570360899

> <CNNaffinity>
6.4558577538

> <CNN_VS>
1.6593884230

> <CNNaffinity_variance>
0.3125268519

$$$$
[H]c1nc(Oc2c([H])c([H])c(C(F)(F)F)c([H])c2C(=O)N([H])c2c([H])c([H])n([H])c(=O)c2[H])c([H])c([H])c1F


 30 32  0  0  0  0  0  0  0  0999 V2000
  -18.8094   13.9617  -20.8417 C   0  0  0  0  0  0  0  0  0  0  0  0
  -19.1449   13.3395  -19.6183 C   0  0  0  0  0  0  0  0  0  0  0  0
  -18.4956   12.1915  -19.2156 C   0  0  0  0  0  0  0  0  0  0  0  0
  -17.5079   11.6163  -19.9799 C   0  0  0  0  0  0  0  0  0  0  0  0
  -17.1767   12.2224  -21.1634 C   0  0  0  0  0  0  0  0  0  0  0  0
  -17.8463   13.4226  -21.5879 C   0  0  0  0  0  0  0  0  0  0  0  0
  -17.1456   14.0956  -22.7019 C   0  0  0  0  0  0  0  0  0  0  0  0
  -16.8761   15.2984  -22.6008 O   0  0  0  0  0  0  0  0  0  0  0  0
  -16.7570   13.4288  -23.8834 N   0  0  0  0  0  0  0  0  0  0  0  0
  -16.9528   12.4439  -24.1237 H   0  0  0  0  0  0  0  0  0  0  0  0
  -16.0250   14.1313  -24.9229 C   0  0  0  0  0  0  0  0  0  0  0  0
  -14.7114   14.4827  -24.6961 C   0  0  0  0  0  0  0  0  0  0  0  0
  -14.0415   15.2034  -25.6682 C   0  0  0  0  0  0  0  0  0  0  0  0
  -14.5958   15.5859  -26.8295 N   0  0  0  0  0  0  0  0  0  0  0  0
  -15.8765   15.2338  -27.0332 C   0  0  0  0  0  0  0  0  0  0  0  0
  -16.4329   15.5785  -28.1217 O   0  0  0  0  0  0  0  0  0  0  0  0
  -16.6012   14.5178  -26.1077 C   0  0  0  0  0  0  0  0  0  0  0  0
  -14.0775   16.1317  -27.5491 H   0  0  0  0  0  0  0  0  0  0  0  0
  -16.8296   10.3515  -19.5260 C   0  0  0  0  0  0  0  0  0  0  0  0
  -17.7393    9.5872  -18.7846 F   0  0  0  0  0  0  0  0  0  0  0  0
  -15.8390   10.7034  -18.6448 F   0  0  0  0  0  0  0  0  0  0  0  0
  -16.4259    9.5785  -20.5689 F   0  0  0  0  0  0  0  0  0  0  0  0
  -19.5301   15.1066  -21.1775 O   0  0  0  0  0  0  0  0  0  0  0  0
  -19.6050   19.6426  -18.0398 F   0  0  0  0  0  0  0  0  0  0  0  0
  -19.5765   18.5396  -18.8026 C   0  0  0  0  0  0  0  0  0  0  0  0
  -18.3726   18.1199  -19.3038 C   0  0  0  0  0  0  0  0  0  0  0  0
  -18.3895   16.9615  -20.0985 C   0  0  0  0  0  0  0  0  0  0  0  0
  -19.4894   16.2546  -20.3909 C   0  0  0  0  0  0  0  0  0  0  0  0
  -20.6712   16.7174  -19.8655 N   0  0  0  0  0  0  0  0  0  0  0  0
  -20.7046   17.8101  -19.1074 C   0  0  0  0  0  0  0  0  0  0  0  0
 24 25  1  0  0  0
 25 26  2  0  0  0
 26 27  1  0  0  0
 27 28  2  0  0  0
 28 23  1  0  0  0
 23  1  1  0  0  0
  1  2  2  0  0  0
  2  3  1  0  0  0
  3  4  2  0  0  0
  4  5  1  0  0  0
  5  6  2  0  0  0
  6  7  1  0  0  0
  7  8  2  0  0  0
  7  9  1  0  0  0
  9 11  1  0  0  0
 11 12  1  0  0  0
 12 13  2  0  0  0
 13 14  1  0  0  0
 14 15  1  0  0  0
 15 16  2  0  0  0
 15 17  1  0  0  0
  4 19  1  0  0  0
 19 20  1  0  0  0
 19 21  1  0  0  0
 19 22  1  0  0  0
 28 29  1  0  0  0
 29 30  2  0  0  0
 30 25  1  0  0  0
  6  1  1  0  0  0
 17 11  2  0  0  0
  9 10  1  0  0  0
 14 18  1  0  0  0
M  END
> <minimizedAffinity>
-9.12521

> <CNNscore>
0.2311484665

> <CNNaffinity>
6.3093099594

> <CNN_VS>
1.4583873749

> <CNNaffinity_variance>
0.2087489367

$$$$
[H]c1nc(Oc2c([H])c([H])c(C(F)(F)F)c([H])c2C(=O)N([H])c2c([H])c([H])n([H])c(=O)c2[H])c([H])c([H])c1F


 30 32  0  0  0  0  0  0  0  0999 V2000
  -17.7055   14.0171  -20.2066 C   0  0  0  0  0  0  0  0  0  0  0  0
  -18.2858   14.5728  -19.0444 C   0  0  0  0  0  0  0  0  0  0  0  0
  -18.4630   15.9359  -18.9335 C   0  0  0  0  0  0  0  0  0  0  0  0
  -18.0871   16.7957  -19.9385 C   0  0  0  0  0  0  0  0  0  0  0  0
  -17.5304   16.2576  -21.0692 C   0  0  0  0  0  0  0  0  0  0  0  0
  -17.3466   14.8365  -21.1940 C   0  0  0  0  0  0  0  0  0  0  0  0
  -17.0420   14.4266  -22.5811 C   0  0  0  0  0  0  0  0  0  0  0  0
  -15.9354   13.9342  -22.8312 O   0  0  0  0  0  0  0  0  0  0  0  0
  -17.9602   14.5619  -23.6443 N   0  0  0  0  0  0  0  0  0  0  0  0
  -18.8972   14.9927  -23.5936 H   0  0  0  0  0  0  0  0  0  0  0  0
  -17.6229   14.0937  -24.9774 C   0  0  0  0  0  0  0  0  0  0  0  0
  -17.8780   12.7805  -25.3104 C   0  0  0  0  0  0  0  0  0  0  0  0
  -17.4987   12.3291  -26.5616 C   0  0  0  0  0  0  0  0  0  0  0  0
  -16.8919   13.0969  -27.4804 N   0  0  0  0  0  0  0  0  0  0  0  0
  -16.6520   14.3740  -27.1383 C   0  0  0  0  0  0  0  0  0  0  0  0
  -16.0798   15.1296  -27.9838 O   0  0  0  0  0  0  0  0  0  0  0  0
  -17.0024   14.8873  -25.9102 C   0  0  0  0  0  0  0  0  0  0  0  0
  -16.6097   12.7393  -28.4168 H   0  0  0  0  0  0  0  0  0  0  0  0
  -18.2734   18.2812  -19.7828 C   0  0  0  0  0  0  0  0  0  0  0  0
  -18.6446   18.5579  -18.4610 F   0  0  0  0  0  0  0  0  0  0  0  0
  -19.3475   18.6492  -20.5524 F   0  0  0  0  0  0  0  0  0  0  0  0
  -17.1282   18.9737  -20.0220 F   0  0  0  0  0  0  0  0  0  0  0  0
  -17.5473   12.6324  -20.2239 O   0  0  0  0  0  0  0  0  0  0  0  0
  -19.5379    9.2525  -16.3456 F   0  0  0  0  0  0  0  0  0  0  0  0
  -19.0602   10.0819  -17.2855 C   0  0  0  0  0  0  0  0  0  0  0  0
  -19.6956   11.2785  -17.4884 C   0  0  0  0  0  0  0  0  0  0  0  0
  -19.1625   12.1149  -18.4833 C   0  0  0  0  0  0  0  0  0  0  0  0
  -18.0909   11.8208  -19.2317 C   0  0  0  0  0  0  0  0  0  0  0  0
  -17.4906   10.6091  -18.9905 N   0  0  0  0  0  0  0  0  0  0  0  0
  -17.9597    9.7836  -18.0586 C   0  0  0  0  0  0  0  0  0  0  0  0
 24 25  1  0  0  0
 25 26  2  0  0  0
 26 27  1  0  0  0
 27 28  2  0  0  0
 28 23  1  0  0  0
 23  1  1  0  0  0
  1  2  2  0  0  0
  2  3  1  0  0  0
  3  4  2  0  0  0
  4  5  1  0  0  0
  5  6  2  0  0  0
  6  7  1  0  0  0
  7  8  2  0  0  0
  7  9  1  0  0  0
  9 11  1  0  0  0
 11 12  1  0  0  0
 12 13  2  0  0  0
 13 14  1  0  0  0
 14 15  1  0  0  0
 15 16  2  0  0  0
 15 17  1  0  0  0
  4 19  1  0  0  0
 19 20  1  0  0  0
 19 21  1  0  0  0
 19 22  1  0  0  0
 28 29  1  0  0  0
 29 30  2  0  0  0
 30 25  1  0  0  0
  6  1  1  0  0  0
 17 11  2  0  0  0
  9 10  1  0  0  0
 14 18  1  0  0  0
M  END
> <minimizedAffinity>
-8.22445

> <CNNscore>
0.1692542732

> <CNNaffinity>
6.3546247482

> <CNN_VS>
1.0755473375

> <CNNaffinity_variance>
0.1868873835

$$$$
[H]c1nc(N([H])c2c([H])c(OC([H])([H])[H])c(OC([H])([H])[H])c(OC([H])([H])[H])c2[H])nc(N([H])c2nc3c(c([H])c2[H])OC(C([H])([H])[H])(C([H])([H])[H])C(=O)N3[H])c1Cl


 37 40  0  0  0  0  0  0  0  0999 V2000
  -16.5301   10.4974  -20.2368 C   0  0  0  0  0  0  0  0  0  0  0  0
  -15.4660   10.3135  -21.0026 N   0  0  0  0  0  0  0  0  0  0  0  0
  -15.1459   11.0012  -22.1053 C   0  0  0  0  0  0  0  0  0  0  0  0
  -16.0051   12.0030  -22.4886 C   0  0  0  0  0  0  0  0  0  0  0  0
  -15.7315   12.9873  -23.8966 Cl  0  0  0  0  0  0  0  0  0  0  0  0
  -17.1469   12.2583  -21.7348 C   0  0  0  0  0  0  0  0  0  0  0  0
  -17.3628   11.5078  -20.6548 N   0  0  0  0  0  0  0  0  0  0  0  0
  -16.8931    9.7910  -19.0723 N   0  0  0  0  0  0  0  0  0  0  0  0
  -16.2686    8.9483  -18.8515 H   0  0  0  0  0  0  0  0  0  0  0  0
  -19.7024    9.5873  -16.6032 C   0  0  0  0  0  0  0  0  0  0  0  0
  -18.6204    9.2239  -17.4245 C   0  0  0  0  0  0  0  0  0  0  0  0
  -17.9671   10.0897  -18.2175 C   0  0  0  0  0  0  0  0  0  0  0  0
  -18.4099   11.4210  -18.2044 C   0  0  0  0  0  0  0  0  0  0  0  0
  -19.4626   11.7933  -17.4103 C   0  0  0  0  0  0  0  0  0  0  0  0
  -20.1308   10.8908  -16.5952 C   0  0  0  0  0  0  0  0  0  0  0  0
  -19.6130    8.0486  -14.7561 C   0  0  0  0  0  0  0  0  0  0  0  0
  -20.3430    8.6541  -15.8032 O   0  0  0  0  0  0  0  0  0  0  0  0
  -19.8968   13.1019  -17.3982 O   0  0  0  0  0  0  0  0  0  0  0  0
  -19.0019   14.1116  -16.9814 C   0  0  0  0  0  0  0  0  0  0  0  0
  -21.1985   11.2678  -15.7899 O   0  0  0  0  0  0  0  0  0  0  0  0
  -20.9310   11.7012  -14.4802 C   0  0  0  0  0  0  0  0  0  0  0  0
  -18.0577   13.2752  -22.0885 N   0  0  0  0  0  0  0  0  0  0  0  0
  -18.6990   13.1447  -22.9037 H   0  0  0  0  0  0  0  0  0  0  0  0
  -18.1069   14.4785  -21.3396 C   0  0  0  0  0  0  0  0  0  0  0  0
  -16.9363   15.2246  -21.1261 C   0  0  0  0  0  0  0  0  0  0  0  0
  -17.0111   16.3884  -20.3962 C   0  0  0  0  0  0  0  0  0  0  0  0
  -18.2005   16.8410  -19.8700 C   0  0  0  0  0  0  0  0  0  0  0  0
  -18.2932   18.0104  -19.1328 O   0  0  0  0  0  0  0  0  0  0  0  0
  -19.3870   18.2944  -18.2821 C   0  0  0  0  0  0  0  0  0  0  0  0
  -19.5758   19.8037  -18.1752 C   0  0  0  0  0  0  0  0  0  0  0  0
  -19.1455   17.6783  -16.9340 C   0  0  0  0  0  0  0  0  0  0  0  0
  -20.6670   17.7390  -18.8047 C   0  0  0  0  0  0  0  0  0  0  0  0
  -21.7664   18.3261  -18.5780 O   0  0  0  0  0  0  0  0  0  0  0  0
  -20.5915   16.5376  -19.5573 N   0  0  0  0  0  0  0  0  0  0  0  0
  -19.3452   16.0899  -20.0920 C   0  0  0  0  0  0  0  0  0  0  0  0
  -19.2394   14.9592  -20.8081 N   0  0  0  0  0  0  0  0  0  0  0  0
  -21.4489   15.9830  -19.7188 H   0  0  0  0  0  0  0  0  0  0  0  0
 16 17  1  0  0  0
 17 10  1  0  0  0
 10 11  2  0  0  0
 11 12  1  0  0  0
 12  8  1  0  0  0
  8  1  1  0  0  0
  1  2  2  0  0  0
  2  3  1  0  0  0
  3  4  2  0  0  0
  4  5  1  0  0  0
  4  6  1  0  0  0
  6 22  1  0  0  0
 22 24  1  0  0  0
 24 25  2  0  0  0
 25 26  1  0  0  0
 26 27  2  0  0  0
 27 28  1  0  0  0
 28 29  1  0  0  0
 29 30  1  0  0  0
 29 31  1  0  0  0
 29 32  1  0  0  0
 32 33  2  0  0  0
 32 34  1  0  0  0
 34 35  1  0  0  0
 35 36  2  0  0  0
  6  7  2  0  0  0
 12 13  2  0  0  0
 13 14  1  0  0  0
 14 18  1  0  0  0
 18 19  1  0  0  0
 14 15  2  0  0  0
 15 20  1  0  0  0
 20 21  1  0  0  0
 15 10  1  0  0  0
  7  1  1  0  0  0
 36 24  1  0  0  0
 35 27  1  0  0  0
  8  9  1  0  0  0
 22 23  1  0  0  0
 34 37  1  0  0  0
M  END
> <minimizedAffinity>
-8.22255

> <CNNscore>
0.7591492534

> <CNNaffinity>
7.5024733543

> <CNN_VS>
5.6954970360

> <CNNaffinity_variance>
0.0572597608

$$$$
[H]c1nc(N([H])c2c([H])c(OC([H])([H])[H])c(OC([H])([H])[H])c(OC([H])([H])[H])c2[H])nc(N([H])c2nc3c(c([H])c2[H])OC(C([H])([H])[H])(C([H])([H])[H])C(=O)N3[H])c1Cl


 37 40  0  0  0  0  0  0  0  0999 V2000
  -16.5885   10.3745  -20.1612 C   0  0  0  0  0  0  0  0  0  0  0  0
  -15.3731   10.3018  -20.6809 N   0  0  0  0  0  0  0  0  0  0  0  0
  -14.9155   10.9771  -21.7420 C   0  0  0  0  0  0  0  0  0  0  0  0
  -15.7913   11.8363  -22.3613 C   0  0  0  0  0  0  0  0  0  0  0  0
  -15.3511   12.7855  -23.7511 Cl  0  0  0  0  0  0  0  0  0  0  0  0
  -17.0883   11.9685  -21.8741 C   0  0  0  0  0  0  0  0  0  0  0  0
  -17.4324   11.2442  -20.8096 N   0  0  0  0  0  0  0  0  0  0  0  0
  -17.0984    9.6776  -19.0471 N   0  0  0  0  0  0  0  0  0  0  0  0
  -16.6384    8.7257  -18.8704 H   0  0  0  0  0  0  0  0  0  0  0  0
  -19.8283    9.8554  -16.4885 C   0  0  0  0  0  0  0  0  0  0  0  0
  -18.7989    9.3582  -17.3074 C   0  0  0  0  0  0  0  0  0  0  0  0
  -18.1224   10.1127  -18.1896 C   0  0  0  0  0  0  0  0  0  0  0  0
  -18.4838   11.4657  -18.2763 C   0  0  0  0  0  0  0  0  0  0  0  0
  -19.4843   11.9677  -17.4860 C   0  0  0  0  0  0  0  0  0  0  0  0
  -20.1771   11.1794  -16.5782 C   0  0  0  0  0  0  0  0  0  0  0  0
  -20.3069    7.6367  -15.6908 C   0  0  0  0  0  0  0  0  0  0  0  0
  -20.4959    9.0335  -15.5940 O   0  0  0  0  0  0  0  0  0  0  0  0
  -19.8384   13.2974  -17.5720 O   0  0  0  0  0  0  0  0  0  0  0  0
  -18.9549   14.2712  -17.0569 C   0  0  0  0  0  0  0  0  0  0  0  0
  -21.1918   11.6879  -15.7769 O   0  0  0  0  0  0  0  0  0  0  0  0
  -20.8953   12.0087  -14.4413 C   0  0  0  0  0  0  0  0  0  0  0  0
  -18.0222   12.8371  -22.4760 N   0  0  0  0  0  0  0  0  0  0  0  0
  -18.6561   12.4853  -23.2292 H   0  0  0  0  0  0  0  0  0  0  0  0
  -18.1049   14.1909  -22.0617 C   0  0  0  0  0  0  0  0  0  0  0  0
  -17.8188   14.5400  -20.7318 C   0  0  0  0  0  0  0  0  0  0  0  0
  -17.9064   15.8605  -20.3554 C   0  0  0  0  0  0  0  0  0  0  0  0
  -18.2664   16.8475  -21.2457 C   0  0  0  0  0  0  0  0  0  0  0  0
  -18.3594   18.1815  -20.8831 O   0  0  0  0  0  0  0  0  0  0  0  0
  -19.0738   19.1342  -21.6465 C   0  0  0  0  0  0  0  0  0  0  0  0
  -18.4637   20.5168  -21.4430 C   0  0  0  0  0  0  0  0  0  0  0  0
  -20.5210   19.1127  -21.2461 C   0  0  0  0  0  0  0  0  0  0  0  0
  -19.0097   18.8491  -23.1075 C   0  0  0  0  0  0  0  0  0  0  0  0
  -19.0351   19.7931  -23.9518 O   0  0  0  0  0  0  0  0  0  0  0  0
  -18.9202   17.4869  -23.4974 N   0  0  0  0  0  0  0  0  0  0  0  0
  -18.5449   16.4822  -22.5544 C   0  0  0  0  0  0  0  0  0  0  0  0
  -18.4505   15.1858  -22.8904 N   0  0  0  0  0  0  0  0  0  0  0  0
  -19.1292   17.2221  -24.4746 H   0  0  0  0  0  0  0  0  0  0  0  0
 16 17  1  0  0  0
 17 10  1  0  0  0
 10 11  2  0  0  0
 11 12  1  0  0  0
 12  8  1  0  0  0
  8  1  1  0  0  0
  1  2  2  0  0  0
  2  3  1  0  0  0
  3  4  2  0  0  0
  4  5  1  0  0  0
  4  6  1  0  0  0
  6 22  1  0  0  0
 22 24  1  0  0  0
 24 25  2  0  0  0
 25 26  1  0  0  0
 26 27  2  0  0  0
 27 28  1  0  0  0
 28 29  1  0  0  0
 29 30  1  0  0  0
 29 31  1  0  0  0
 29 32  1  0  0  0
 32 33  2  0  0  0
 32 34  1  0  0  0
 34 35  1  0  0  0
 35 36  2  0  0  0
  6  7  2  0  0  0
 12 13  2  0  0  0
 13 14  1  0  0  0
 14 18  1  0  0  0
 18 19  1  0  0  0
 14 15  2  0  0  0
 15 20  1  0  0  0
 20 21  1  0  0  0
 15 10  1  0  0  0
  7  1  1  0  0  0
 36 24  1  0  0  0
 35 27  1  0  0  0
  8  9  1  0  0  0
 22 23  1  0  0  0
 34 37  1  0  0  0
M  END
> <minimizedAffinity>
-7.90448

> <CNNscore>
0.7497466803

> <CNNaffinity>
7.5975556374

> <CNN_VS>
5.6962423325

> <CNNaffinity_variance>
0.1344930679

$$$$
[H]c1nc(N([H])c2c([H])c(OC([H])([H])[H])c(OC([H])([H])[H])c(OC([H])([H])[H])c2[H])nc(N([H])c2nc3c(c([H])c2[H])OC(C([H])([H])[H])(C([H])([H])[H])C(=O)N3[H])c1Cl


 37 40  0  0  0  0  0  0  0  0999 V2000
  -16.7184   10.4865  -20.0276 C   0  0  0  0  0  0  0  0  0  0  0  0
  -15.6365   10.2223  -20.7432 N   0  0  0  0  0  0  0  0  0  0  0  0
  -15.2380   10.8546  -21.8535 C   0  0  0  0  0  0  0  0  0  0  0  0
  -16.0280   11.8854  -22.3034 C   0  0  0  0  0  0  0  0  0  0  0  0
  -15.6485   12.8057  -23.7300 Cl  0  0  0  0  0  0  0  0  0  0  0  0
  -17.1832   12.2243  -21.6052 C   0  0  0  0  0  0  0  0  0  0  0  0
  -17.4800   11.5233  -20.5113 N   0  0  0  0  0  0  0  0  0  0  0  0
  -17.1631    9.8397  -18.8568 N   0  0  0  0  0  0  0  0  0  0  0  0
  -16.5883    8.9784  -18.5800 H   0  0  0  0  0  0  0  0  0  0  0  0
  -19.9809   11.7171  -17.2551 C   0  0  0  0  0  0  0  0  0  0  0  0
  -18.8995   11.3970  -18.0949 C   0  0  0  0  0  0  0  0  0  0  0  0
  -18.2573   10.2172  -18.0609 C   0  0  0  0  0  0  0  0  0  0  0  0
  -18.7125    9.2733  -17.1278 C   0  0  0  0  0  0  0  0  0  0  0  0
  -19.7651    9.5678  -16.3015 C   0  0  0  0  0  0  0  0  0  0  0  0
  -20.4211   10.7897  -16.3446 C   0  0  0  0  0  0  0  0  0  0  0  0
  -19.9156   14.0902  -16.8657 C   0  0  0  0  0  0  0  0  0  0  0  0
  -20.6091   12.9504  -17.3303 O   0  0  0  0  0  0  0  0  0  0  0  0
  -20.2115    8.6395  -15.3851 O   0  0  0  0  0  0  0  0  0  0  0  0
  -19.4006    8.3425  -14.2677 C   0  0  0  0  0  0  0  0  0  0  0  0
  -21.4884   11.0889  -15.5067 O   0  0  0  0  0  0  0  0  0  0  0  0
  -21.2174   11.6661  -14.2546 C   0  0  0  0  0  0  0  0  0  0  0  0
  -18.0249   13.2739  -22.0280 N   0  0  0  0  0  0  0  0  0  0  0  0
  -18.6033   13.1666  -22.8922 H   0  0  0  0  0  0  0  0  0  0  0  0
  -18.0897   14.4786  -21.2826 C   0  0  0  0  0  0  0  0  0  0  0  0
  -16.9306   15.2450  -21.0791 C   0  0  0  0  0  0  0  0  0  0  0  0
  -17.0204   16.4098  -20.3523 C   0  0  0  0  0  0  0  0  0  0  0  0
  -18.2138   16.8438  -19.8197 C   0  0  0  0  0  0  0  0  0  0  0  0
  -18.3216   18.0138  -19.0856 O   0  0  0  0  0  0  0  0  0  0  0  0
  -19.4145   18.2819  -18.2286 C   0  0  0  0  0  0  0  0  0  0  0  0
  -19.6282   19.7882  -18.1251 C   0  0  0  0  0  0  0  0  0  0  0  0
  -19.1538   17.6744  -16.8802 C   0  0  0  0  0  0  0  0  0  0  0  0
  -20.6883   17.7033  -18.7411 C   0  0  0  0  0  0  0  0  0  0  0  0
  -21.7960   18.2724  -18.5090 O   0  0  0  0  0  0  0  0  0  0  0  0
  -20.5973   16.5010  -19.4904 N   0  0  0  0  0  0  0  0  0  0  0  0
  -19.3471   16.0727  -20.0319 C   0  0  0  0  0  0  0  0  0  0  0  0
  -19.2267   14.9417  -20.7452 N   0  0  0  0  0  0  0  0  0  0  0  0
  -21.4461   15.9314  -19.6446 H   0  0  0  0  0  0  0  0  0  0  0  0
 16 17  1  0  0  0
 17 10  1  0  0  0
 10 11  2  0  0  0
 11 12  1  0  0  0
 12  8  1  0  0  0
  8  1  1  0  0  0
  1  2  2  0  0  0
  2  3  1  0  0  0
  3  4  2  0  0  0
  4  5  1  0  0  0
  4  6  1  0  0  0
  6 22  1  0  0  0
 22 24  1  0  0  0
 24 25  2  0  0  0
 25 26  1  0  0  0
 26 27  2  0  0  0
 27 28  1  0  0  0
 28 29  1  0  0  0
 29 30  1  0  0  0
 29 31  1  0  0  0
 29 32  1  0  0  0
 32 33  2  0  0  0
 32 34  1  0  0  0
 34 35  1  0  0  0
 35 36  2  0  0  0
  6  7  2  0  0  0
 12 13  2  0  0  0
 13 14  1  0  0  0
 14 18  1  0  0  0
 18 19  1  0  0  0
 14 15  2  0  0  0
 15 20  1  0  0  0
 20 21  1  0  0  0
 15 10  1  0  0  0
  7  1  1  0  0  0
 36 24  1  0  0  0
 35 27  1  0  0  0
  8  9  1  0  0  0
 22 23  1  0  0  0
 34 37  1  0  0  0
M  END
> <minimizedAffinity>
-8.11548

> <CNNscore>
0.7285080552

> <CNNaffinity>
7.4682235718

> <CNN_VS>
5.4406609535

> <CNNaffinity_variance>
0.0872609466

$$$$
[H]c1nc(N([H])c2c([H])c(OC([H])([H])[H])c(OC([H])([H])[H])c(OC([H])([H])[H])c2[H])nc(N([H])c2nc3c(c([H])c2[H])OC(C([H])([H])[H])(C([H])([H])[H])C(=O)N3[H])c1Cl


 37 40  0  0  0  0  0  0  0  0999 V2000
  -16.7868   10.6831  -19.3922 C   0  0  0  0  0  0  0  0  0  0  0  0
  -16.0771   10.1360  -20.3667 N   0  0  0  0  0  0  0  0  0  0  0  0
  -15.9036   10.6241  -21.6007 C   0  0  0  0  0  0  0  0  0  0  0  0
  -16.5227   11.8156  -21.8944 C   0  0  0  0  0  0  0  0  0  0  0  0
  -16.3957   12.5811  -23.4513 Cl  0  0  0  0  0  0  0  0  0  0  0  0
  -17.2872   12.4535  -20.9220 C   0  0  0  0  0  0  0  0  0  0  0  0
  -17.3888   11.8724  -19.7269 N   0  0  0  0  0  0  0  0  0  0  0  0
  -16.9874   10.1941  -18.0856 N   0  0  0  0  0  0  0  0  0  0  0  0
  -16.0850    9.9810  -17.5479 H   0  0  0  0  0  0  0  0  0  0  0  0
  -19.9258    8.6439  -16.3556 C   0  0  0  0  0  0  0  0  0  0  0  0
  -18.6636    8.8045  -16.9542 C   0  0  0  0  0  0  0  0  0  0  0  0
  -18.2255    9.9691  -17.4612 C   0  0  0  0  0  0  0  0  0  0  0  0
  -19.0953   11.0667  -17.3740 C   0  0  0  0  0  0  0  0  0  0  0  0
  -20.3289   10.9287  -16.7939 C   0  0  0  0  0  0  0  0  0  0  0  0
  -20.7719    9.7210  -16.2737 C   0  0  0  0  0  0  0  0  0  0  0  0
  -19.7791    6.9816  -14.6226 C   0  0  0  0  0  0  0  0  0  0  0  0
  -20.3301    7.4191  -15.8478 O   0  0  0  0  0  0  0  0  0  0  0  0
  -21.1827   12.0080  -16.7088 O   0  0  0  0  0  0  0  0  0  0  0  0
  -21.0307   12.9125  -15.6350 C   0  0  0  0  0  0  0  0  0  0  0  0
  -22.0228    9.5806  -15.6855 O   0  0  0  0  0  0  0  0  0  0  0  0
  -22.1338    9.7518  -14.2952 C   0  0  0  0  0  0  0  0  0  0  0  0
  -17.9410   13.6769  -21.1764 N   0  0  0  0  0  0  0  0  0  0  0  0
  -17.8221   14.1530  -22.0995 H   0  0  0  0  0  0  0  0  0  0  0  0
  -18.7618   14.2657  -20.1812 C   0  0  0  0  0  0  0  0  0  0  0  0
  -20.1151   13.9042  -20.0788 C   0  0  0  0  0  0  0  0  0  0  0  0
  -20.8900   14.4901  -19.1045 C   0  0  0  0  0  0  0  0  0  0  0  0
  -20.3757   15.4199  -18.2285 C   0  0  0  0  0  0  0  0  0  0  0  0
  -21.1420   16.0192  -17.2420 O   0  0  0  0  0  0  0  0  0  0  0  0
  -20.7581   17.2182  -16.5971 C   0  0  0  0  0  0  0  0  0  0  0  0
  -21.3476   17.2563  -15.1913 C   0  0  0  0  0  0  0  0  0  0  0  0
  -21.2156   18.3935  -17.4122 C   0  0  0  0  0  0  0  0  0  0  0  0
  -19.2801   17.3281  -16.4443 C   0  0  0  0  0  0  0  0  0  0  0  0
  -18.7762   17.9372  -15.4544 O   0  0  0  0  0  0  0  0  0  0  0  0
  -18.4792   16.7248  -17.4494 N   0  0  0  0  0  0  0  0  0  0  0  0
  -19.0371   15.7633  -18.3460 C   0  0  0  0  0  0  0  0  0  0  0  0
  -18.3075   15.1740  -19.3067 N   0  0  0  0  0  0  0  0  0  0  0  0
  -17.4822   16.9857  -17.5310 H   0  0  0  0  0  0  0  0  0  0  0  0
 16 17  1  0  0  0
 17 10  1  0  0  0
 10 11  2  0  0  0
 11 12  1  0  0  0
 12  8  1  0  0  0
  8  1  1  0  0  0
  1  2  2  0  0  0
  2  3  1  0  0  0
  3  4  2  0  0  0
  4  5  1  0  0  0
  4  6  1  0  0  0
  6 22  1  0  0  0
 22 24  1  0  0  0
 24 25  2  0  0  0
 25 26  1  0  0  0
 26 27  2  0  0  0
 27 28  1  0  0  0
 28 29  1  0  0  0
 29 30  1  0  0  0
 29 31  1  0  0  0
 29 32  1  0  0  0
 32 33  2  0  0  0
 32 34  1  0  0  0
 34 35  1  0  0  0
 35 36  2  0  0  0
  6  7  2  0  0  0
 12 13  2  0  0  0
 13 14  1  0  0  0
 14 18  1  0  0  0
 18 19  1  0  0  0
 14 15  2  0  0  0
 15 20  1  0  0  0
 20 21  1  0  0  0
 15 10  1  0  0  0
  7  1  1  0  0  0
 36 24  1  0  0  0
 35 27  1  0  0  0
  8  9  1  0  0  0
 22 23  1  0  0  0
 34 37  1  0  0  0
M  END
> <minimizedAffinity>
-7.71740

> <CNNscore>
0.6928417683

> <CNNaffinity>
7.0663132668

> <CNN_VS>
4.8958368301

> <CNNaffinity_variance>
0.0654836744

$$$$
[H]c1nc(N([H])c2c([H])c(OC([H])([H])[H])c(OC([H])([H])[H])c(OC([H])([H])[H])c2[H])nc(N([H])c2nc3c(c([H])c2[H])OC(C([H])([H])[H])(C([H])([H])[H])C(=O)N3[H])c1Cl


 37 40  0  0  0  0  0  0  0  0999 V2000
  -19.0287   13.2621  -17.3668 C   0  0  0  0  0  0  0  0  0  0  0  0
  -19.8103   12.5748  -16.5487 N   0  0  0  0  0  0  0  0  0  0  0  0
  -19.8859   11.2425  -16.4462 C   0  0  0  0  0  0  0  0  0  0  0  0
  -19.0715   10.5048  -17.2718 C   0  0  0  0  0  0  0  0  0  0  0  0
  -19.0510    8.7654  -17.2609 Cl  0  0  0  0  0  0  0  0  0  0  0  0
  -18.2203   11.1547  -18.1608 C   0  0  0  0  0  0  0  0  0  0  0  0
  -18.2310   12.4873  -18.1745 N   0  0  0  0  0  0  0  0  0  0  0  0
  -18.9272   14.6619  -17.4972 N   0  0  0  0  0  0  0  0  0  0  0  0
  -18.7538   15.1820  -16.5761 H   0  0  0  0  0  0  0  0  0  0  0  0
  -18.2038   16.6767  -20.5708 C   0  0  0  0  0  0  0  0  0  0  0  0
  -18.0231   15.9341  -19.3905 C   0  0  0  0  0  0  0  0  0  0  0  0
  -19.0357   15.3977  -18.6888 C   0  0  0  0  0  0  0  0  0  0  0  0
  -20.3317   15.6053  -19.1847 C   0  0  0  0  0  0  0  0  0  0  0  0
  -20.5267   16.3262  -20.3336 C   0  0  0  0  0  0  0  0  0  0  0  0
  -19.4738   16.8764  -21.0504 C   0  0  0  0  0  0  0  0  0  0  0  0
  -16.1274   17.8907  -20.5232 C   0  0  0  0  0  0  0  0  0  0  0  0
  -17.1240   17.2097  -21.2574 O   0  0  0  0  0  0  0  0  0  0  0  0
  -21.8008   16.5295  -20.8199 O   0  0  0  0  0  0  0  0  0  0  0  0
  -22.6508   17.4320  -20.1438 C   0  0  0  0  0  0  0  0  0  0  0  0
  -19.6711   17.6076  -22.2153 O   0  0  0  0  0  0  0  0  0  0  0  0
  -19.8230   19.0010  -22.1154 C   0  0  0  0  0  0  0  0  0  0  0  0
  -17.3668   10.4409  -19.0273 N   0  0  0  0  0  0  0  0  0  0  0  0
  -17.0313    9.4864  -18.7641 H   0  0  0  0  0  0  0  0  0  0  0  0
  -16.9604   11.0152  -20.2586 C   0  0  0  0  0  0  0  0  0  0  0  0
  -15.8707   10.4766  -20.9622 C   0  0  0  0  0  0  0  0  0  0  0  0
  -15.4966   11.0523  -22.1545 C   0  0  0  0  0  0  0  0  0  0  0  0
  -16.1602   12.1406  -22.6758 C   0  0  0  0  0  0  0  0  0  0  0  0
  -15.7964   12.7322  -23.8746 O   0  0  0  0  0  0  0  0  0  0  0  0
  -16.1973   14.0398  -24.2357 C   0  0  0  0  0  0  0  0  0  0  0  0
  -16.2705   14.1532  -25.7546 C   0  0  0  0  0  0  0  0  0  0  0  0
  -15.2317   15.0358  -23.6606 C   0  0  0  0  0  0  0  0  0  0  0  0
  -17.5518   14.3783  -23.7155 C   0  0  0  0  0  0  0  0  0  0  0  0
  -18.3126   15.1628  -24.3563 O   0  0  0  0  0  0  0  0  0  0  0  0
  -17.9389   13.7857  -22.4849 N   0  0  0  0  0  0  0  0  0  0  0  0
  -17.2336   12.6576  -21.9657 C   0  0  0  0  0  0  0  0  0  0  0  0
  -17.5740   12.0736  -20.8057 N   0  0  0  0  0  0  0  0  0  0  0  0
  -18.7400   14.1764  -21.9612 H   0  0  0  0  0  0  0  0  0  0  0  0
 16 17  1  0  0  0
 17 10  1  0  0  0
 10 11  2  0  0  0
 11 12  1  0  0  0
 12  8  1  0  0  0
  8  1  1  0  0  0
  1  2  2  0  0  0
  2  3  1  0  0  0
  3  4  2  0  0  0
  4  5  1  0  0  0
  4  6  1  0  0  0
  6 22  1  0  0  0
 22 24  1  0  0  0
 24 25  2  0  0  0
 25 26  1  0  0  0
 26 27  2  0  0  0
 27 28  1  0  0  0
 28 29  1  0  0  0
 29 30  1  0  0  0
 29 31  1  0  0  0
 29 32  1  0  0  0
 32 33  2  0  0  0
 32 34  1  0  0  0
 34 35  1  0  0  0
 35 36  2  0  0  0
  6  7  2  0  0  0
 12 13  2  0  0  0
 13 14  1  0  0  0
 14 18  1  0  0  0
 18 19  1  0  0  0
 14 15  2  0  0  0
 15 20  1  0  0  0
 20 21  1  0  0  0
 15 10  1  0  0  0
  7  1  1  0  0  0
 36 24  1  0  0  0
 35 27  1  0  0  0
  8  9  1  0  0  0
 22 23  1  0  0  0
 34 37  1  0  0  0
M  END
> <minimizedAffinity>
-8.39315

> <CNNscore>
0.4485828280

> <CNNaffinity>
7.3031425476

> <CNN_VS>
3.2760643959

> <CNNaffinity_variance>
0.1350571513

$$$$
[H]c1nc(N([H])c2c([H])c(OC([H])([H])[H])c(OC([H])([H])[H])c(OC([H])([H])[H])c2[H])nc(N([H])c2nc3c(c([H])c2[H])OC(C([H])([H])[H])(C([H])([H])[H])C(=O)N3[H])c1Cl


 37 40  0  0  0  0  0  0  0  0999 V2000
  -19.2740   13.3191  -17.4363 C   0  0  0  0  0  0  0  0  0  0  0  0
  -20.1012   12.5778  -16.7161 N   0  0  0  0  0  0  0  0  0  0  0  0
  -20.1073   11.2424  -16.6278 C   0  0  0  0  0  0  0  0  0  0  0  0
  -19.1605   10.5634  -17.3570 C   0  0  0  0  0  0  0  0  0  0  0  0
  -19.0362    8.8283  -17.3501 Cl  0  0  0  0  0  0  0  0  0  0  0  0
  -18.2540   11.2723  -18.1398 C   0  0  0  0  0  0  0  0  0  0  0  0
  -18.3436   12.6020  -18.1497 N   0  0  0  0  0  0  0  0  0  0  0  0
  -19.2430   14.7238  -17.5490 N   0  0  0  0  0  0  0  0  0  0  0  0
  -19.1383   15.2418  -16.6164 H   0  0  0  0  0  0  0  0  0  0  0  0
  -20.4982   16.6081  -20.5330 C   0  0  0  0  0  0  0  0  0  0  0  0
  -20.4722   15.8800  -19.3303 C   0  0  0  0  0  0  0  0  0  0  0  0
  -19.3395   15.4666  -18.7374 C   0  0  0  0  0  0  0  0  0  0  0  0
  -18.1332   15.7940  -19.3749 C   0  0  0  0  0  0  0  0  0  0  0  0
  -18.1394   16.5031  -20.5473 C   0  0  0  0  0  0  0  0  0  0  0  0
  -19.3151   16.9249  -21.1516 C   0  0  0  0  0  0  0  0  0  0  0  0
  -22.3974   18.0847  -20.5123 C   0  0  0  0  0  0  0  0  0  0  0  0
  -21.6953   17.0108  -21.1039 O   0  0  0  0  0  0  0  0  0  0  0  0
  -16.9533   16.8243  -21.1728 O   0  0  0  0  0  0  0  0  0  0  0  0
  -16.1152   17.7962  -20.5837 C   0  0  0  0  0  0  0  0  0  0  0  0
  -19.3218   17.6438  -22.3406 O   0  0  0  0  0  0  0  0  0  0  0  0
  -19.2154   19.0436  -22.2791 C   0  0  0  0  0  0  0  0  0  0  0  0
  -17.2651   10.6199  -18.9049 N   0  0  0  0  0  0  0  0  0  0  0  0
  -16.8057    9.7546  -18.5400 H   0  0  0  0  0  0  0  0  0  0  0  0
  -16.8904   11.1351  -20.1719 C   0  0  0  0  0  0  0  0  0  0  0  0
  -15.8515   10.5317  -20.8992 C   0  0  0  0  0  0  0  0  0  0  0  0
  -15.5073   11.0509  -22.1259 C   0  0  0  0  0  0  0  0  0  0  0  0
  -16.1526   12.1443  -22.6592 C   0  0  0  0  0  0  0  0  0  0  0  0
  -15.8184   12.6795  -23.8926 O   0  0  0  0  0  0  0  0  0  0  0  0
  -16.1867   13.9879  -24.2846 C   0  0  0  0  0  0  0  0  0  0  0  0
  -16.3197   14.0507  -25.8024 C   0  0  0  0  0  0  0  0  0  0  0  0
  -15.1625   14.9665  -23.7861 C   0  0  0  0  0  0  0  0  0  0  0  0
  -17.5051   14.3949  -23.7224 C   0  0  0  0  0  0  0  0  0  0  0  0
  -18.2634   15.1845  -24.3599 O   0  0  0  0  0  0  0  0  0  0  0  0
  -17.8613   13.8607  -22.4562 N   0  0  0  0  0  0  0  0  0  0  0  0
  -17.1759   12.7258  -21.9253 C   0  0  0  0  0  0  0  0  0  0  0  0
  -17.4880   12.1959  -20.7319 N   0  0  0  0  0  0  0  0  0  0  0  0
  -18.6250   14.2993  -21.9149 H   0  0  0  0  0  0  0  0  0  0  0  0
 16 17  1  0  0  0
 17 10  1  0  0  0
 10 11  2  0  0  0
 11 12  1  0  0  0
 12  8  1  0  0  0
  8  1  1  0  0  0
  1  2  2  0  0  0
  2  3  1  0  0  0
  3  4  2  0  0  0
  4  5  1  0  0  0
  4  6  1  0  0  0
  6 22  1  0  0  0
 22 24  1  0  0  0
 24 25  2  0  0  0
 25 26  1  0  0  0
 26 27  2  0  0  0
 27 28  1  0  0  0
 28 29  1  0  0  0
 29 30  1  0  0  0
 29 31  1  0  0  0
 29 32  1  0  0  0
 32 33  2  0  0  0
 32 34  1  0  0  0
 34 35  1  0  0  0
 35 36  2  0  0  0
  6  7  2  0  0  0
 12 13  2  0  0  0
 13 14  1  0  0  0
 14 18  1  0  0  0
 18 19  1  0  0  0
 14 15  2  0  0  0
 15 20  1  0  0  0
 20 21  1  0  0  0
 15 10  1  0  0  0
  7  1  1  0  0  0
 36 24  1  0  0  0
 35 27  1  0  0  0
  8  9  1  0  0  0
 22 23  1  0  0  0
 34 37  1  0  0  0
M  END
> <minimizedAffinity>
-8.34107

> <CNNscore>
0.4345090985

> <CNNaffinity>
7.2988066673

> <CNN_VS>
3.1713979244

> <CNNaffinity_variance>
0.1242867261

$$$$
[H]c1nc(N([H])c2c([H])c(OC([H])([H])[H])c(OC([H])([H])[H])c(OC([H])([H])[H])c2[H])nc(N([H])c2nc3c(c([H])c2[H])OC(C([H])([H])[H])(C([H])([H])[H])C(=O)N3[H])c1Cl


 37 40  0  0  0  0  0  0  0  0999 V2000
  -17.3131   10.3545  -19.0780 C   0  0  0  0  0  0  0  0  0  0  0  0
  -16.3760   10.1317  -19.9861 N   0  0  0  0  0  0  0  0  0  0  0  0
  -16.2328   10.7611  -21.1585 C   0  0  0  0  0  0  0  0  0  0  0  0
  -17.1490   11.7410  -21.4579 C   0  0  0  0  0  0  0  0  0  0  0  0
  -17.1007   12.6506  -22.9399 Cl  0  0  0  0  0  0  0  0  0  0  0  0
  -18.1653   12.0343  -20.5535 C   0  0  0  0  0  0  0  0  0  0  0  0
  -18.2083   11.3411  -19.4160 N   0  0  0  0  0  0  0  0  0  0  0  0
  -17.4891    9.7096  -17.8371 N   0  0  0  0  0  0  0  0  0  0  0  0
  -16.6075    9.2348  -17.4546 H   0  0  0  0  0  0  0  0  0  0  0  0
  -20.3699    8.5543  -15.7402 C   0  0  0  0  0  0  0  0  0  0  0  0
  -19.1569    8.5610  -16.4515 C   0  0  0  0  0  0  0  0  0  0  0  0
  -18.6805    9.6393  -17.0963 C   0  0  0  0  0  0  0  0  0  0  0  0
  -19.4560   10.8072  -17.0389 C   0  0  0  0  0  0  0  0  0  0  0  0
  -20.6406   10.8192  -16.3503 C   0  0  0  0  0  0  0  0  0  0  0  0
  -21.1238    9.6996  -15.6882 C   0  0  0  0  0  0  0  0  0  0  0  0
  -21.3817    6.3753  -15.8660 C   0  0  0  0  0  0  0  0  0  0  0  0
  -20.8170    7.4136  -15.0920 O   0  0  0  0  0  0  0  0  0  0  0  0
  -21.4018   11.9675  -16.2947 O   0  0  0  0  0  0  0  0  0  0  0  0
  -20.8211   13.1887  -16.7015 C   0  0  0  0  0  0  0  0  0  0  0  0
  -22.3250    9.7113  -14.9900 O   0  0  0  0  0  0  0  0  0  0  0  0
  -23.5104    9.4276  -15.6892 C   0  0  0  0  0  0  0  0  0  0  0  0
  -19.1280   13.0307  -20.8165 N   0  0  0  0  0  0  0  0  0  0  0  0
  -19.9298   12.8295  -21.4565 H   0  0  0  0  0  0  0  0  0  0  0  0
  -19.0120   14.3092  -20.2138 C   0  0  0  0  0  0  0  0  0  0  0  0
  -17.7958   15.0091  -20.2733 C   0  0  0  0  0  0  0  0  0  0  0  0
  -17.7095   16.2477  -19.6806 C   0  0  0  0  0  0  0  0  0  0  0  0
  -18.7813   16.8190  -19.0316 C   0  0  0  0  0  0  0  0  0  0  0  0
  -18.7113   18.0649  -18.4297 O   0  0  0  0  0  0  0  0  0  0  0  0
  -19.6428   18.4989  -17.4577 C   0  0  0  0  0  0  0  0  0  0  0  0
  -19.7566   20.0190  -17.4985 C   0  0  0  0  0  0  0  0  0  0  0  0
  -19.2101   18.0209  -16.1014 C   0  0  0  0  0  0  0  0  0  0  0  0
  -21.0097   17.9607  -17.7065 C   0  0  0  0  0  0  0  0  0  0  0  0
  -22.0361   18.6281  -17.3810 O   0  0  0  0  0  0  0  0  0  0  0  0
  -21.1003   16.6823  -18.3172 N   0  0  0  0  0  0  0  0  0  0  0  0
  -19.9736   16.1118  -18.9839 C   0  0  0  0  0  0  0  0  0  0  0  0
  -20.0258   14.9059  -19.5717 N   0  0  0  0  0  0  0  0  0  0  0  0
  -21.9922   16.1611  -18.2777 H   0  0  0  0  0  0  0  0  0  0  0  0
 16 17  1  0  0  0
 17 10  1  0  0  0
 10 11  2  0  0  0
 11 12  1  0  0  0
 12  8  1  0  0  0
  8  1  1  0  0  0
  1  2  2  0  0  0
  2  3  1  0  0  0
  3  4  2  0  0  0
  4  5  1  0  0  0
  4  6  1  0  0  0
  6 22  1  0  0  0
 22 24  1  0  0  0
 24 25  2  0  0  0
 25 26  1  0  0  0
 26 27  2  0  0  0
 27 28  1  0  0  0
 28 29  1  0  0  0
 29 30  1  0  0  0
 29 31  1  0  0  0
 29 32  1  0  0  0
 32 33  2  0  0  0
 32 34  1  0  0  0
 34 35  1  0  0  0
 35 36  2  0  0  0
  6  7  2  0  0  0
 12 13  2  0  0  0
 13 14  1  0  0  0
 14 18  1  0  0  0
 18 19  1  0  0  0
 14 15  2  0  0  0
 15 20  1  0  0  0
 20 21  1  0  0  0
 15 10  1  0  0  0
  7  1  1  0  0  0
 36 24  1  0  0  0
 35 27  1  0  0  0
  8  9  1  0  0  0
 22 23  1  0  0  0
 34 37  1  0  0  0
M  END
> <minimizedAffinity>
-7.53135

> <CNNscore>
0.4025470018

> <CNNaffinity>
6.9774694443

> <CNN_VS>
2.8087594509

> <CNNaffinity_variance>
0.1099343523

$$$$
[H]c1nc(N([H])c2c([H])c(OC([H])([H])[H])c(OC([H])([H])[H])c(OC([H])([H])[H])c2[H])nc(N([H])c2nc3c(c([H])c2[H])OC(C([H])([H])[H])(C([H])([H])[H])C(=O)N3[H])c1Cl


 37 40  0  0  0  0  0  0  0  0999 V2000
  -16.7197   11.2793  -20.9654 C   0  0  0  0  0  0  0  0  0  0  0  0
  -17.0512   10.0707  -20.5388 N   0  0  0  0  0  0  0  0  0  0  0  0
  -17.7088    9.7730  -19.4118 C   0  0  0  0  0  0  0  0  0  0  0  0
  -18.0818   10.8247  -18.6093 C   0  0  0  0  0  0  0  0  0  0  0  0
  -18.9415   10.6053  -17.1130 Cl  0  0  0  0  0  0  0  0  0  0  0  0
  -17.7695   12.1266  -18.9893 C   0  0  0  0  0  0  0  0  0  0  0  0
  -17.1108   12.3019  -20.1345 N   0  0  0  0  0  0  0  0  0  0  0  0
  -16.0291   11.6235  -22.1450 N   0  0  0  0  0  0  0  0  0  0  0  0
  -15.2920   10.9086  -22.4525 H   0  0  0  0  0  0  0  0  0  0  0  0
  -17.5191   14.4673  -24.0745 C   0  0  0  0  0  0  0  0  0  0  0  0
  -17.3992   13.3084  -23.2871 C   0  0  0  0  0  0  0  0  0  0  0  0
  -16.2200   12.7836  -22.9137 C   0  0  0  0  0  0  0  0  0  0  0  0
  -15.0632   13.4493  -23.3469 C   0  0  0  0  0  0  0  0  0  0  0  0
  -15.1610   14.5800  -24.1146 C   0  0  0  0  0  0  0  0  0  0  0  0
  -16.3841   15.1134  -24.4951 C   0  0  0  0  0  0  0  0  0  0  0  0
  -19.2805   16.0650  -23.7102 C   0  0  0  0  0  0  0  0  0  0  0  0
  -18.7611   14.9677  -24.4329 O   0  0  0  0  0  0  0  0  0  0  0  0
  -14.0236   15.2333  -24.5396 O   0  0  0  0  0  0  0  0  0  0  0  0
  -13.5528   14.9965  -25.8498 C   0  0  0  0  0  0  0  0  0  0  0  0
  -16.4837   16.2599  -25.2737 O   0  0  0  0  0  0  0  0  0  0  0  0
  -16.4194   17.5111  -24.6374 C   0  0  0  0  0  0  0  0  0  0  0  0
  -18.1310   13.2373  -18.1990 N   0  0  0  0  0  0  0  0  0  0  0  0
  -17.9713   13.2203  -17.1660 H   0  0  0  0  0  0  0  0  0  0  0  0
  -18.7126   14.3812  -18.8027 C   0  0  0  0  0  0  0  0  0  0  0  0
  -19.7158   14.2327  -19.7743 C   0  0  0  0  0  0  0  0  0  0  0  0
  -20.2637   15.3584  -20.3446 C   0  0  0  0  0  0  0  0  0  0  0  0
  -19.8559   16.6249  -19.9894 C   0  0  0  0  0  0  0  0  0  0  0  0
  -20.3971   17.7686  -20.5539 O   0  0  0  0  0  0  0  0  0  0  0  0
  -19.7557   19.0281  -20.4958 C   0  0  0  0  0  0  0  0  0  0  0  0
  -20.7998   20.1384  -20.5425 C   0  0  0  0  0  0  0  0  0  0  0  0
  -18.7823   19.1468  -21.6332 C   0  0  0  0  0  0  0  0  0  0  0  0
  -18.9904   19.2134  -19.2309 C   0  0  0  0  0  0  0  0  0  0  0  0
  -18.8605   20.3640  -18.7169 O   0  0  0  0  0  0  0  0  0  0  0  0
  -18.4236   18.0528  -18.6417 N   0  0  0  0  0  0  0  0  0  0  0  0
  -18.8641   16.7503  -19.0281 C   0  0  0  0  0  0  0  0  0  0  0  0
  -18.3495   15.6329  -18.4904 N   0  0  0  0  0  0  0  0  0  0  0  0
  -17.6848   18.1540  -17.9258 H   0  0  0  0  0  0  0  0  0  0  0  0
 16 17  1  0  0  0
 17 10  1  0  0  0
 10 11  2  0  0  0
 11 12  1  0  0  0
 12  8  1  0  0  0
  8  1  1  0  0  0
  1  2  2  0  0  0
  2  3  1  0  0  0
  3  4  2  0  0  0
  4  5  1  0  0  0
  4  6  1  0  0  0
  6 22  1  0  0  0
 22 24  1  0  0  0
 24 25  2  0  0  0
 25 26  1  0  0  0
 26 27  2  0  0  0
 27 28  1  0  0  0
 28 29  1  0  0  0
 29 30  1  0  0  0
 29 31  1  0  0  0
 29 32  1  0  0  0
 32 33  2  0  0  0
 32 34  1  0  0  0
 34 35  1  0  0  0
 35 36  2  0  0  0
  6  7  2  0  0  0
 12 13  2  0  0  0
 13 14  1  0  0  0
 14 18  1  0  0  0
 18 19  1  0  0  0
 14 15  2  0  0  0
 15 20  1  0  0  0
 20 21  1  0  0  0
 15 10  1  0  0  0
  7  1  1  0  0  0
 36 24  1  0  0  0
 35 27  1  0  0  0
  8  9  1  0  0  0
 22 23  1  0  0  0
 34 37  1  0  0  0
M  END
> <minimizedAffinity>
-7.27878

> <CNNscore>
0.2628441751

> <CNNaffinity>
7.2572774887

> <CNN_VS>
1.9075331688

> <CNNaffinity_variance>
0.1711232662

$$$$
[H]c1nc(N([H])c2c([H])c(OC([H])([H])[H])c(OC([H])([H])[H])c(OC([H])([H])[H])c2[H])nc(N([H])c2nc3c(c([H])c2[H])OC(C([H])([H])[H])(C([H])([H])[H])C(=O)N3[H])c1Cl


 37 40  0  0  0  0  0  0  0  0999 V2000
  -17.4457   12.1054  -20.5138 C   0  0  0  0  0  0  0  0  0  0  0  0
  -17.1581   11.7858  -21.7658 N   0  0  0  0  0  0  0  0  0  0  0  0
  -16.8929   12.6337  -22.7668 C   0  0  0  0  0  0  0  0  0  0  0  0
  -16.9200   13.9760  -22.4727 C   0  0  0  0  0  0  0  0  0  0  0  0
  -16.5980   15.2046  -23.6615 Cl  0  0  0  0  0  0  0  0  0  0  0  0
  -17.2147   14.3925  -21.1778 C   0  0  0  0  0  0  0  0  0  0  0  0
  -17.4625   13.4565  -20.2621 N   0  0  0  0  0  0  0  0  0  0  0  0
  -17.7288   11.2371  -19.4401 N   0  0  0  0  0  0  0  0  0  0  0  0
  -17.1347   10.3451  -19.4222 H   0  0  0  0  0  0  0  0  0  0  0  0
  -20.4348   12.6498  -17.2694 C   0  0  0  0  0  0  0  0  0  0  0  0
  -19.5021   12.5027  -18.3114 C   0  0  0  0  0  0  0  0  0  0  0  0
  -18.6912   11.4387  -18.4370 C   0  0  0  0  0  0  0  0  0  0  0  0
  -18.8039   10.4361  -17.4619 C   0  0  0  0  0  0  0  0  0  0  0  0
  -19.7073   10.5624  -16.4395 C   0  0  0  0  0  0  0  0  0  0  0  0
  -20.5399   11.6659  -16.3188 C   0  0  0  0  0  0  0  0  0  0  0  0
  -20.6980   14.9665  -16.6767 C   0  0  0  0  0  0  0  0  0  0  0  0
  -21.2484   13.7689  -17.1854 O   0  0  0  0  0  0  0  0  0  0  0  0
  -19.8171    9.5765  -15.4819 O   0  0  0  0  0  0  0  0  0  0  0  0
  -19.0736    8.3867  -15.6423 C   0  0  0  0  0  0  0  0  0  0  0  0
  -21.4560   11.7945  -15.2821 O   0  0  0  0  0  0  0  0  0  0  0  0
  -22.5734   10.9426  -15.2644 C   0  0  0  0  0  0  0  0  0  0  0  0
  -17.2543   15.7582  -20.8284 N   0  0  0  0  0  0  0  0  0  0  0  0
  -16.3741   16.2587  -20.5681 H   0  0  0  0  0  0  0  0  0  0  0  0
  -18.4880   16.4575  -20.8288 C   0  0  0  0  0  0  0  0  0  0  0  0
  -19.1434   16.7318  -19.6173 C   0  0  0  0  0  0  0  0  0  0  0  0
  -20.3391   17.4118  -19.6451 C   0  0  0  0  0  0  0  0  0  0  0  0
  -20.9100   17.8301  -20.8264 C   0  0  0  0  0  0  0  0  0  0  0  0
  -22.1131   18.5156  -20.8720 O   0  0  0  0  0  0  0  0  0  0  0  0
  -22.8916   18.6181  -22.0486 C   0  0  0  0  0  0  0  0  0  0  0  0
  -23.7055   19.9072  -22.0148 C   0  0  0  0  0  0  0  0  0  0  0  0
  -23.7817   17.4143  -22.1660 C   0  0  0  0  0  0  0  0  0  0  0  0
  -22.0514   18.6747  -23.2777 C   0  0  0  0  0  0  0  0  0  0  0  0
  -22.4362   19.3256  -24.2941 O   0  0  0  0  0  0  0  0  0  0  0  0
  -20.8177   17.9727  -23.2509 N   0  0  0  0  0  0  0  0  0  0  0  0
  -20.2470   17.5495  -22.0120 C   0  0  0  0  0  0  0  0  0  0  0  0
  -19.0823   16.8845  -21.9516 N   0  0  0  0  0  0  0  0  0  0  0  0
  -20.3293   17.7672  -24.1385 H   0  0  0  0  0  0  0  0  0  0  0  0
 16 17  1  0  0  0
 17 10  1  0  0  0
 10 11  2  0  0  0
 11 12  1  0  0  0
 12  8  1  0  0  0
  8  1  1  0  0  0
  1  2  2  0  0  0
  2  3  1  0  0  0
  3  4  2  0  0  0
  4  5  1  0  0  0
  4  6  1  0  0  0
  6 22  1  0  0  0
 22 24  1  0  0  0
 24 25  2  0  0  0
 25 26  1  0  0  0
 26 27  2  0  0  0
 27 28  1  0  0  0
 28 29  1  0  0  0
 29 30  1  0  0  0
 29 31  1  0  0  0
 29 32  1  0  0  0
 32 33  2  0  0  0
 32 34  1  0  0  0
 34 35  1  0  0  0
 35 36  2  0  0  0
  6  7  2  0  0  0
 12 13  2  0  0  0
 13 14  1  0  0  0
 14 18  1  0  0  0
 18 19  1  0  0  0
 14 15  2  0  0  0
 15 20  1  0  0  0
 20 21  1  0  0  0
 15 10  1  0  0  0
  7  1  1  0  0  0
 36 24  1  0  0  0
 35 27  1  0  0  0
  8  9  1  0  0  0
 22 23  1  0  0  0
 34 37  1  0  0  0
M  END
> <minimizedAffinity>
-7.24151

> <CNNscore>
0.2032148242

> <CNNaffinity>
6.8709435463

> <CNN_VS>
1.3962775469

> <CNNaffinity_variance>
0.4761324525

$$$$
[H]c1c([H])c(N([H])C(=O)N2C([H])([H])C([H])([H])OC3(C2([H])[H])C([H])([H])C([H])([H])N(C(=O)C2([H])C([H])([H])C2([H])[H])C([H])([H])C3([H])[H])c([H])c([H])c1OC(F)(F)F


 31 34  0  0  0  0  0  0  0  0999 V2000
  -24.0924   18.9040  -17.7758 N   0  0  0  0  0  0  0  0  0  0  0  0
  -23.2252   18.3409  -16.8194 C   0  0  0  0  0  0  0  0  0  0  0  0
  -22.1658   17.7777  -17.1235 O   0  0  0  0  0  0  0  0  0  0  0  0
  -23.5406   18.3976  -15.4208 N   0  0  0  0  0  0  0  0  0  0  0  0
  -22.6706   17.8297  -14.4399 C   0  0  0  0  0  0  0  0  0  0  0  0
  -23.4788   17.3482  -13.2873 C   0  0  0  0  0  0  0  0  0  0  0  0
  -24.3455   18.2303  -12.7337 O   0  0  0  0  0  0  0  0  0  0  0  0
  -24.7430   19.2907  -13.4841 C   0  0  0  0  0  0  0  0  0  0  0  0
  -26.1817   19.6267  -13.0823 C   0  0  0  0  0  0  0  0  0  0  0  0
  -26.1912   19.7147  -11.5745 C   0  0  0  0  0  0  0  0  0  0  0  0
  -25.1897   20.6917  -11.1938 N   0  0  0  0  0  0  0  0  0  0  0  0
  -24.6226   21.4791  -12.2550 C   0  0  0  0  0  0  0  0  0  0  0  0
  -23.9218   20.5152  -13.2134 C   0  0  0  0  0  0  0  0  0  0  0  0
  -24.7900   20.8658   -9.8624 C   0  0  0  0  0  0  0  0  0  0  0  0
  -25.3504   20.1187   -8.9805 O   0  0  0  0  0  0  0  0  0  0  0  0
  -24.7582   19.0377  -14.9699 C   0  0  0  0  0  0  0  0  0  0  0  0
  -25.0028   19.3809  -17.4089 H   0  0  0  0  0  0  0  0  0  0  0  0
  -23.3361   19.1105  -21.9003 C   0  0  0  0  0  0  0  0  0  0  0  0
  -22.9884   20.1267  -21.0382 C   0  0  0  0  0  0  0  0  0  0  0  0
  -23.2459   20.0153  -19.7002 C   0  0  0  0  0  0  0  0  0  0  0  0
  -23.8635   18.8845  -19.1538 C   0  0  0  0  0  0  0  0  0  0  0  0
  -24.2052   17.8864  -20.0040 C   0  0  0  0  0  0  0  0  0  0  0  0
  -23.9413   17.9986  -21.3783 C   0  0  0  0  0  0  0  0  0  0  0  0
  -23.0701   19.2255  -23.2792 O   0  0  0  0  0  0  0  0  0  0  0  0
  -23.4050   21.2320  -24.3677 F   0  0  0  0  0  0  0  0  0  0  0  0
  -22.4507   20.4419  -23.7261 C   0  0  0  0  0  0  0  0  0  0  0  0
  -21.9820   21.1694  -22.6701 F   0  0  0  0  0  0  0  0  0  0  0  0
  -21.4281   20.0892  -24.5820 F   0  0  0  0  0  0  0  0  0  0  0  0
  -23.7739   21.8404   -9.3833 C   0  0  0  0  0  0  0  0  0  0  0  0
  -22.5416   21.9516  -10.2568 C   0  0  0  0  0  0  0  0  0  0  0  0
  -22.4667   21.2627   -8.9559 C   0  0  0  0  0  0  0  0  0  0  0  0
 25 26  1  0  0  0
 26 27  1  0  0  0
 26 28  1  0  0  0
 26 24  1  0  0  0
 24 18  1  0  0  0
 18 19  2  0  0  0
 19 20  1  0  0  0
 20 21  2  0  0  0
 21  1  1  0  0  0
  1  2  1  0  0  0
  2  3  2  0  0  0
  2  4  1  0  0  0
  4  5  1  0  0  0
  5  6  1  0  0  0
  6  7  1  0  0  0
  7  8  1  0  0  0
  8  9  1  0  0  0
  9 10  1  0  0  0
 10 11  1  0  0  0
 11 12  1  0  0  0
 12 13  1  0  0  0
 11 14  1  0  0  0
 14 15  2  0  0  0
 14 29  1  0  0  0
 29 30  1  0  0  0
 30 31  1  0  0  0
  8 16  1  0  0  0
 21 22  1  0  0  0
 22 23  2  0  0  0
 23 18  1  0  0  0
 16  4  1  0  0  0
 13  8  1  0  0  0
 31 29  1  0  0  0
  1 17  1  0  0  0
M  END
> <minimizedAffinity>
-2.22554

> <CNNscore>
0.6435194016

> <CNNaffinity>
5.1744632721

> <CNN_VS>
3.3298676014

> <CNNaffinity_variance>
0.8095372915

$$$$
[H]c1c([H])c(N([H])C(=O)N2C([H])([H])C([H])([H])OC3(C2([H])[H])C([H])([H])C([H])([H])N(C(=O)C2([H])C([H])([H])C2([H])[H])C([H])([H])C3([H])[H])c([H])c([H])c1OC(F)(F)F


 31 34  0  0  0  0  0  0  0  0999 V2000
  -22.5136   20.5425  -18.7200 N   0  0  0  0  0  0  0  0  0  0  0  0
  -23.7152   20.8337  -18.0454 C   0  0  0  0  0  0  0  0  0  0  0  0
  -24.7851   21.0316  -18.6356 O   0  0  0  0  0  0  0  0  0  0  0  0
  -23.7505   20.9152  -16.6133 N   0  0  0  0  0  0  0  0  0  0  0  0
  -24.9621   21.2106  -15.9162 C   0  0  0  0  0  0  0  0  0  0  0  0
  -24.6409   21.9500  -14.6657 C   0  0  0  0  0  0  0  0  0  0  0  0
  -23.7161   21.3959  -13.8449 O   0  0  0  0  0  0  0  0  0  0  0  0
  -22.8520   20.4919  -14.3756 C   0  0  0  0  0  0  0  0  0  0  0  0
  -21.5230   20.6303  -13.6282 C   0  0  0  0  0  0  0  0  0  0  0  0
  -21.8583   20.5899  -12.1560 C   0  0  0  0  0  0  0  0  0  0  0  0
  -22.5882   19.3606  -11.9142 N   0  0  0  0  0  0  0  0  0  0  0  0
  -22.6192   18.4080  -12.9908 C   0  0  0  0  0  0  0  0  0  0  0  0
  -23.3154   19.0805  -14.1747 C   0  0  0  0  0  0  0  0  0  0  0  0
  -23.2327   19.1066  -10.6964 C   0  0  0  0  0  0  0  0  0  0  0  0
  -23.1521   20.0141   -9.7910 O   0  0  0  0  0  0  0  0  0  0  0  0
  -22.5480   20.6973  -15.8375 C   0  0  0  0  0  0  0  0  0  0  0  0
  -21.6223   20.3821  -18.1112 H   0  0  0  0  0  0  0  0  0  0  0  0
  -21.9381   20.1039  -22.8556 C   0  0  0  0  0  0  0  0  0  0  0  0
  -21.2910   19.3090  -21.9357 C   0  0  0  0  0  0  0  0  0  0  0  0
  -21.5133   19.4802  -20.5977 C   0  0  0  0  0  0  0  0  0  0  0  0
  -22.3925   20.4532  -20.1089 C   0  0  0  0  0  0  0  0  0  0  0  0
  -23.0274   21.2344  -21.0158 C   0  0  0  0  0  0  0  0  0  0  0  0
  -22.8008   21.0600  -22.3903 C   0  0  0  0  0  0  0  0  0  0  0  0
  -21.7089   19.9268  -24.2345 O   0  0  0  0  0  0  0  0  0  0  0  0
  -22.7042   18.4370  -25.6880 F   0  0  0  0  0  0  0  0  0  0  0  0
  -22.8563   19.6739  -25.0606 C   0  0  0  0  0  0  0  0  0  0  0  0
  -23.9935   19.5974  -24.3090 F   0  0  0  0  0  0  0  0  0  0  0  0
  -22.9330   20.7004  -25.9787 F   0  0  0  0  0  0  0  0  0  0  0  0
  -24.0011   17.8776  -10.3628 C   0  0  0  0  0  0  0  0  0  0  0  0
  -23.4427   17.0762   -9.2053 C   0  0  0  0  0  0  0  0  0  0  0  0
  -23.2922   16.5844  -10.5866 C   0  0  0  0  0  0  0  0  0  0  0  0
 25 26  1  0  0  0
 26 27  1  0  0  0
 26 28  1  0  0  0
 26 24  1  0  0  0
 24 18  1  0  0  0
 18 19  2  0  0  0
 19 20  1  0  0  0
 20 21  2  0  0  0
 21  1  1  0  0  0
  1  2  1  0  0  0
  2  3  2  0  0  0
  2  4  1  0  0  0
  4  5  1  0  0  0
  5  6  1  0  0  0
  6  7  1  0  0  0
  7  8  1  0  0  0
  8  9  1  0  0  0
  9 10  1  0  0  0
 10 11  1  0  0  0
 11 12  1  0  0  0
 12 13  1  0  0  0
 11 14  1  0  0  0
 14 15  2  0  0  0
 14 29  1  0  0  0
 29 30  1  0  0  0
 30 31  1  0  0  0
  8 16  1  0  0  0
 21 22  1  0  0  0
 22 23  2  0  0  0
 23 18  1  0  0  0
 16  4  1  0  0  0
 13  8  1  0  0  0
 31 29  1  0  0  0
  1 17  1  0  0  0
M  END
> <minimizedAffinity>
-3.74025

> <CNNscore>
0.6339757442

> <CNNaffinity>
5.1851682663

> <CNN_VS>
3.2872710228

> <CNNaffinity_variance>
0.4026095867

$$$$
[H]c1c([H])c(N([H])C(=O)N2C([H])([H])C([H])([H])OC3(C2([H])[H])C([H])([H])C([H])([H])N(C(=O)C2([H])C([H])([H])C2([H])[H])C([H])([H])C3([H])[H])c([H])c([H])c1OC(F)(F)F


 31 34  0  0  0  0  0  0  0  0999 V2000
  -22.1433   18.3911  -20.1191 N   0  0  0  0  0  0  0  0  0  0  0  0
  -22.3721   19.6023  -19.4376 C   0  0  0  0  0  0  0  0  0  0  0  0
  -22.8943   20.5869  -19.9761 O   0  0  0  0  0  0  0  0  0  0  0  0
  -22.0010   19.7492  -18.0594 N   0  0  0  0  0  0  0  0  0  0  0  0
  -22.2264   20.9723  -17.3561 C   0  0  0  0  0  0  0  0  0  0  0  0
  -21.1684   21.1474  -16.3249 C   0  0  0  0  0  0  0  0  0  0  0  0
  -20.9636   20.1134  -15.4734 O   0  0  0  0  0  0  0  0  0  0  0  0
  -21.3831   18.8793  -15.8559 C   0  0  0  0  0  0  0  0  0  0  0  0
  -20.4137   17.8566  -15.2571 C   0  0  0  0  0  0  0  0  0  0  0  0
  -20.2894   18.1980  -13.7911 C   0  0  0  0  0  0  0  0  0  0  0  0
  -21.6277   18.1946  -13.2330 N   0  0  0  0  0  0  0  0  0  0  0  0
  -22.6727   17.6701  -14.0700 C   0  0  0  0  0  0  0  0  0  0  0  0
  -22.7433   18.5518  -15.3176 C   0  0  0  0  0  0  0  0  0  0  0  0
  -21.8967   18.6756  -11.9450 C   0  0  0  0  0  0  0  0  0  0  0  0
  -20.9019   19.1254  -11.2684 O   0  0  0  0  0  0  0  0  0  0  0  0
  -21.3850   18.6507  -17.3457 C   0  0  0  0  0  0  0  0  0  0  0  0
  -21.6782   17.5792  -19.5575 H   0  0  0  0  0  0  0  0  0  0  0  0
  -22.8894   17.8633  -24.2168 C   0  0  0  0  0  0  0  0  0  0  0  0
  -21.6951   18.3624  -23.7461 C   0  0  0  0  0  0  0  0  0  0  0  0
  -21.4906   18.5109  -22.4026 C   0  0  0  0  0  0  0  0  0  0  0  0
  -22.4669   18.1692  -21.4599 C   0  0  0  0  0  0  0  0  0  0  0  0
  -23.6411   17.6791  -21.9254 C   0  0  0  0  0  0  0  0  0  0  0  0
  -23.8531   17.5254  -23.3047 C   0  0  0  0  0  0  0  0  0  0  0  0
  -23.0996   17.7101  -25.6016 O   0  0  0  0  0  0  0  0  0  0  0  0
  -22.5761   19.8442  -26.3045 F   0  0  0  0  0  0  0  0  0  0  0  0
  -23.5659   18.8610  -26.3233 C   0  0  0  0  0  0  0  0  0  0  0  0
  -23.7950   18.5572  -27.6344 F   0  0  0  0  0  0  0  0  0  0  0  0
  -24.7193   19.2929  -25.7022 F   0  0  0  0  0  0  0  0  0  0  0  0
  -23.2339   18.7099  -11.2949 C   0  0  0  0  0  0  0  0  0  0  0  0
  -24.1157   19.8655  -11.7204 C   0  0  0  0  0  0  0  0  0  0  0  0
  -23.4882   19.8655  -10.3867 C   0  0  0  0  0  0  0  0  0  0  0  0
 25 26  1  0  0  0
 26 27  1  0  0  0
 26 28  1  0  0  0
 26 24  1  0  0  0
 24 18  1  0  0  0
 18 19  2  0  0  0
 19 20  1  0  0  0
 20 21  2  0  0  0
 21  1  1  0  0  0
  1  2  1  0  0  0
  2  3  2  0  0  0
  2  4  1  0  0  0
  4  5  1  0  0  0
  5  6  1  0  0  0
  6  7  1  0  0  0
  7  8  1  0  0  0
  8  9  1  0  0  0
  9 10  1  0  0  0
 10 11  1  0  0  0
 11 12  1  0  0  0
 12 13  1  0  0  0
 11 14  1  0  0  0
 14 15  2  0  0  0
 14 29  1  0  0  0
 29 30  1  0  0  0
 30 31  1  0  0  0
  8 16  1  0  0  0
 21 22  1  0  0  0
 22 23  2  0  0  0
 23 18  1  0  0  0
 16  4  1  0  0  0
 13  8  1  0  0  0
 31 29  1  0  0  0
  1 17  1  0  0  0
M  END
> <minimizedAffinity>
-5.84044

> <CNNscore>
0.6006727815

> <CNNaffinity>
5.3228774071

> <CNN_VS>
3.1973075867

> <CNNaffinity_variance>
0.0794745237

$$$$
[H]c1c([H])c(N([H])C(=O)N2C([H])([H])C([H])([H])OC3(C2([H])[H])C([H])([H])C([H])([H])N(C(=O)C2([H])C([H])([H])C2([H])[H])C([H])([H])C3([H])[H])c([H])c([H])c1OC(F)(F)F


 31 34  0  0  0  0  0  0  0  0999 V2000
  -23.0522   18.8994  -18.3626 N   0  0  0  0  0  0  0  0  0  0  0  0
  -24.3417   18.8011  -17.8048 C   0  0  0  0  0  0  0  0  0  0  0  0
  -25.3741   18.8840  -18.4826 O   0  0  0  0  0  0  0  0  0  0  0  0
  -24.5169   18.5962  -16.3954 N   0  0  0  0  0  0  0  0  0  0  0  0
  -25.8191   18.4956  -15.8161 C   0  0  0  0  0  0  0  0  0  0  0  0
  -25.7812   19.0303  -14.4283 C   0  0  0  0  0  0  0  0  0  0  0  0
  -24.8289   18.5313  -13.6035 O   0  0  0  0  0  0  0  0  0  0  0  0
  -23.7410   17.9444  -14.1667 C   0  0  0  0  0  0  0  0  0  0  0  0
  -22.5465   18.2073  -13.2458 C   0  0  0  0  0  0  0  0  0  0  0  0
  -22.9887   17.8159  -11.8557 C   0  0  0  0  0  0  0  0  0  0  0  0
  -23.4403   16.4395  -11.9190 N   0  0  0  0  0  0  0  0  0  0  0  0
  -23.1631   15.7265  -13.1365 C   0  0  0  0  0  0  0  0  0  0  0  0
  -23.8893   16.4561  -14.2675 C   0  0  0  0  0  0  0  0  0  0  0  0
  -24.1126   15.8284  -10.8525 C   0  0  0  0  0  0  0  0  0  0  0  0
  -24.3167   16.5412   -9.8037 O   0  0  0  0  0  0  0  0  0  0  0  0
  -23.3672   18.4857  -15.5229 C   0  0  0  0  0  0  0  0  0  0  0  0
  -22.2031   18.8121  -17.6826 H   0  0  0  0  0  0  0  0  0  0  0  0
  -22.2120   19.2559  -22.4605 C   0  0  0  0  0  0  0  0  0  0  0  0
  -22.2770   18.0343  -21.8278 C   0  0  0  0  0  0  0  0  0  0  0  0
  -22.5615   17.9628  -20.4925 C   0  0  0  0  0  0  0  0  0  0  0  0
  -22.7957   19.1062  -19.7202 C   0  0  0  0  0  0  0  0  0  0  0  0
  -22.7305   20.3068  -20.3448 C   0  0  0  0  0  0  0  0  0  0  0  0
  -22.4389   20.3824  -21.7160 C   0  0  0  0  0  0  0  0  0  0  0  0
  -21.9192   19.3291  -23.8368 O   0  0  0  0  0  0  0  0  0  0  0  0
  -22.0840   20.4356  -25.8546 F   0  0  0  0  0  0  0  0  0  0  0  0
  -22.0715   20.6091  -24.4703 C   0  0  0  0  0  0  0  0  0  0  0  0
  -23.2637   21.1831  -24.1342 F   0  0  0  0  0  0  0  0  0  0  0  0
  -21.0097   21.3927  -24.0687 F   0  0  0  0  0  0  0  0  0  0  0  0
  -24.6093   14.4267  -10.8308 C   0  0  0  0  0  0  0  0  0  0  0  0
  -26.1140   14.2895  -10.7253 C   0  0  0  0  0  0  0  0  0  0  0  0
  -25.2599   13.9848   -9.5633 C   0  0  0  0  0  0  0  0  0  0  0  0
 25 26  1  0  0  0
 26 27  1  0  0  0
 26 28  1  0  0  0
 26 24  1  0  0  0
 24 18  1  0  0  0
 18 19  2  0  0  0
 19 20  1  0  0  0
 20 21  2  0  0  0
 21  1  1  0  0  0
  1  2  1  0  0  0
  2  3  2  0  0  0
  2  4  1  0  0  0
  4  5  1  0  0  0
  5  6  1  0  0  0
  6  7  1  0  0  0
  7  8  1  0  0  0
  8  9  1  0  0  0
  9 10  1  0  0  0
 10 11  1  0  0  0
 11 12  1  0  0  0
 12 13  1  0  0  0
 11 14  1  0  0  0
 14 15  2  0  0  0
 14 29  1  0  0  0
 29 30  1  0  0  0
 30 31  1  0  0  0
  8 16  1  0  0  0
 21 22  1  0  0  0
 22 23  2  0  0  0
 23 18  1  0  0  0
 16  4  1  0  0  0
 13  8  1  0  0  0
 31 29  1  0  0  0
  1 17  1  0  0  0
M  END
> <minimizedAffinity>
-3.16802

> <CNNscore>
0.5788671970

> <CNNaffinity>
5.1615800858

> <CNN_VS>
2.9878695011

> <CNNaffinity_variance>
0.5415956974

$$$$
[H]c1c([H])c(N([H])C(=O)N2C([H])([H])C([H])([H])OC3(C2([H])[H])C([H])([H])C([H])([H])N(C(=O)C2([H])C([H])([H])C2([H])[H])C([H])([H])C3([H])[H])c([H])c([H])c1OC(F)(F)F


 31 34  0  0  0  0  0  0  0  0999 V2000
  -24.0161   19.5299  -15.9308 N   0  0  0  0  0  0  0  0  0  0  0  0
  -22.8197   20.2152  -16.2186 C   0  0  0  0  0  0  0  0  0  0  0  0
  -22.1367   20.7680  -15.3469 O   0  0  0  0  0  0  0  0  0  0  0  0
  -22.3314   20.3035  -17.5650 N   0  0  0  0  0  0  0  0  0  0  0  0
  -21.1199   20.9962  -17.8713 C   0  0  0  0  0  0  0  0  0  0  0  0
  -21.2205   21.5803  -19.2360 C   0  0  0  0  0  0  0  0  0  0  0  0
  -21.5825   20.7426  -20.2375 O   0  0  0  0  0  0  0  0  0  0  0  0
  -22.2340   19.5973  -19.9071 C   0  0  0  0  0  0  0  0  0  0  0  0
  -23.2016   19.2715  -21.0480 C   0  0  0  0  0  0  0  0  0  0  0  0
  -22.3952   19.3481  -22.3228 C   0  0  0  0  0  0  0  0  0  0  0  0
  -21.2714   18.4435  -22.1765 N   0  0  0  0  0  0  0  0  0  0  0  0
  -21.3001   17.5595  -21.0428 C   0  0  0  0  0  0  0  0  0  0  0  0
  -21.3010   18.4302  -19.7857 C   0  0  0  0  0  0  0  0  0  0  0  0
  -20.2085   18.4255  -23.0890 C   0  0  0  0  0  0  0  0  0  0  0  0
  -20.2669   19.2502  -24.0721 O   0  0  0  0  0  0  0  0  0  0  0  0
  -23.0626   19.6863  -18.6512 C   0  0  0  0  0  0  0  0  0  0  0  0
  -24.5470   19.0735  -16.7679 H   0  0  0  0  0  0  0  0  0  0  0  0
  -25.5790   18.8920  -12.0868 C   0  0  0  0  0  0  0  0  0  0  0  0
  -24.7677   17.9710  -12.7118 C   0  0  0  0  0  0  0  0  0  0  0  0
  -24.2734   18.2222  -13.9614 C   0  0  0  0  0  0  0  0  0  0  0  0
  -24.5631   19.4048  -14.6515 C   0  0  0  0  0  0  0  0  0  0  0  0
  -25.3619   20.3089  -14.0348 C   0  0  0  0  0  0  0  0  0  0  0  0
  -25.8703   20.0531  -12.7513 C   0  0  0  0  0  0  0  0  0  0  0  0
  -26.0878   18.6328  -10.7986 O   0  0  0  0  0  0  0  0  0  0  0  0
  -26.3424   17.2823   -8.9456 F   0  0  0  0  0  0  0  0  0  0  0  0
  -25.7070   17.3924  -10.1828 C   0  0  0  0  0  0  0  0  0  0  0  0
  -26.1165   16.3275  -10.9325 F   0  0  0  0  0  0  0  0  0  0  0  0
  -24.3345   17.4084  -10.0465 F   0  0  0  0  0  0  0  0  0  0  0  0
  -19.0200   17.5344  -23.0170 C   0  0  0  0  0  0  0  0  0  0  0  0
  -17.8455   18.1056  -22.2500 C   0  0  0  0  0  0  0  0  0  0  0  0
  -17.7974   18.0196  -23.7206 C   0  0  0  0  0  0  0  0  0  0  0  0
 25 26  1  0  0  0
 26 27  1  0  0  0
 26 28  1  0  0  0
 26 24  1  0  0  0
 24 18  1  0  0  0
 18 19  2  0  0  0
 19 20  1  0  0  0
 20 21  2  0  0  0
 21  1  1  0  0  0
  1  2  1  0  0  0
  2  3  2  0  0  0
  2  4  1  0  0  0
  4  5  1  0  0  0
  5  6  1  0  0  0
  6  7  1  0  0  0
  7  8  1  0  0  0
  8  9  1  0  0  0
  9 10  1  0  0  0
 10 11  1  0  0  0
 11 12  1  0  0  0
 12 13  1  0  0  0
 11 14  1  0  0  0
 14 15  2  0  0  0
 14 29  1  0  0  0
 29 30  1  0  0  0
 30 31  1  0  0  0
  8 16  1  0  0  0
 21 22  1  0  0  0
 22 23  2  0  0  0
 23 18  1  0  0  0
 16  4  1  0  0  0
 13  8  1  0  0  0
 31 29  1  0  0  0
  1 17  1  0  0  0
M  END
> <minimizedAffinity>
-3.13916

> <CNNscore>
0.5297510624

> <CNNaffinity>
5.1945872307

> <CNN_VS>
2.7518382072

> <CNNaffinity_variance>
0.4461003244

$$$$
[H]c1c([H])c(N([H])C(=O)N2C([H])([H])C([H])([H])OC3(C2([H])[H])C([H])([H])C([H])([H])N(C(=O)C2([H])C([H])([H])C2([H])[H])C([H])([H])C3([H])[H])c([H])c([H])c1OC(F)(F)F


 31 34  0  0  0  0  0  0  0  0999 V2000
  -18.0473   11.8711  -19.2515 N   0  0  0  0  0  0  0  0  0  0  0  0
  -17.3362   11.2204  -20.2785 C   0  0  0  0  0  0  0  0  0  0  0  0
  -17.2413    9.9885  -20.3524 O   0  0  0  0  0  0  0  0  0  0  0  0
  -16.6768   11.9752  -21.3053 N   0  0  0  0  0  0  0  0  0  0  0  0
  -15.9512   11.3283  -22.3523 C   0  0  0  0  0  0  0  0  0  0  0  0
  -14.8237   12.2001  -22.7791 C   0  0  0  0  0  0  0  0  0  0  0  0
  -15.1255   13.4815  -23.0999 O   0  0  0  0  0  0  0  0  0  0  0  0
  -16.2822   14.0047  -22.6166 C   0  0  0  0  0  0  0  0  0  0  0  0
  -16.0476   15.4984  -22.3756 C   0  0  0  0  0  0  0  0  0  0  0  0
  -15.4384   16.0422  -23.6462 C   0  0  0  0  0  0  0  0  0  0  0  0
  -16.3435   15.7169  -24.7314 N   0  0  0  0  0  0  0  0  0  0  0  0
  -17.6352   15.2055  -24.3607 C   0  0  0  0  0  0  0  0  0  0  0  0
  -17.4071   13.8976  -23.6017 C   0  0  0  0  0  0  0  0  0  0  0  0
  -15.9852   15.8897  -26.0747 C   0  0  0  0  0  0  0  0  0  0  0  0
  -14.8108   16.3525  -26.3124 O   0  0  0  0  0  0  0  0  0  0  0  0
  -16.7339   13.4217  -21.3021 C   0  0  0  0  0  0  0  0  0  0  0  0
  -18.0749   12.9618  -19.2732 H   0  0  0  0  0  0  0  0  0  0  0  0
  -20.1495   10.1299  -16.0616 C   0  0  0  0  0  0  0  0  0  0  0  0
  -20.4030   11.4123  -16.4952 C   0  0  0  0  0  0  0  0  0  0  0  0
  -19.7003   11.9382  -17.5433 C   0  0  0  0  0  0  0  0  0  0  0  0
  -18.7088   11.2118  -18.2125 C   0  0  0  0  0  0  0  0  0  0  0  0
  -18.4607    9.9508  -17.7837 C   0  0  0  0  0  0  0  0  0  0  0  0
  -19.1815    9.4086  -16.7078 C   0  0  0  0  0  0  0  0  0  0  0  0
  -20.8743    9.5881  -14.9816 O   0  0  0  0  0  0  0  0  0  0  0  0
  -22.7957    8.8233  -16.0042 F   0  0  0  0  0  0  0  0  0  0  0  0
  -21.6864    8.4349  -15.2524 C   0  0  0  0  0  0  0  0  0  0  0  0
  -21.0036    7.5200  -16.0010 F   0  0  0  0  0  0  0  0  0  0  0  0
  -22.0611    7.9042  -14.0356 F   0  0  0  0  0  0  0  0  0  0  0  0
  -16.8471   15.5836  -27.2474 C   0  0  0  0  0  0  0  0  0  0  0  0
  -16.6299   14.2122  -27.8525 C   0  0  0  0  0  0  0  0  0  0  0  0
  -16.1402   15.4148  -28.5501 C   0  0  0  0  0  0  0  0  0  0  0  0
 25 26  1  0  0  0
 26 27  1  0  0  0
 26 28  1  0  0  0
 26 24  1  0  0  0
 24 18  1  0  0  0
 18 19  2  0  0  0
 19 20  1  0  0  0
 20 21  2  0  0  0
 21  1  1  0  0  0
  1  2  1  0  0  0
  2  3  2  0  0  0
  2  4  1  0  0  0
  4  5  1  0  0  0
  5  6  1  0  0  0
  6  7  1  0  0  0
  7  8  1  0  0  0
  8  9  1  0  0  0
  9 10  1  0  0  0
 10 11  1  0  0  0
 11 12  1  0  0  0
 12 13  1  0  0  0
 11 14  1  0  0  0
 14 15  2  0  0  0
 14 29  1  0  0  0
 29 30  1  0  0  0
 30 31  1  0  0  0
  8 16  1  0  0  0
 21 22  1  0  0  0
 22 23  2  0  0  0
 23 18  1  0  0  0
 16  4  1  0  0  0
 13  8  1  0  0  0
 31 29  1  0  0  0
  1 17  1  0  0  0
M  END
> <minimizedAffinity>
-7.60333

> <CNNscore>
0.3645907938

> <CNNaffinity>
6.4776697159

> <CNN_VS>
2.3616986275

> <CNNaffinity_variance>
0.3793216646

$$$$
[H]c1c([H])c(N([H])C(=O)N2C([H])([H])C([H])([H])OC3(C2([H])[H])C([H])([H])C([H])([H])N(C(=O)C2([H])C([H])([H])C2([H])[H])C([H])([H])C3([H])[H])c([H])c([H])c1OC(F)(F)F


 31 34  0  0  0  0  0  0  0  0999 V2000
  -18.8770   12.0680  -19.0492 N   0  0  0  0  0  0  0  0  0  0  0  0
  -18.3481   10.9326  -18.4054 C   0  0  0  0  0  0  0  0  0  0  0  0
  -17.2766   10.4104  -18.7389 O   0  0  0  0  0  0  0  0  0  0  0  0
  -19.0448   10.3194  -17.3111 N   0  0  0  0  0  0  0  0  0  0  0  0
  -18.5203    9.1668  -16.6495 C   0  0  0  0  0  0  0  0  0  0  0  0
  -19.6467    8.3305  -16.1540 C   0  0  0  0  0  0  0  0  0  0  0  0
  -20.5882    8.9511  -15.4027 O   0  0  0  0  0  0  0  0  0  0  0  0
  -20.7004   10.3008  -15.5075 C   0  0  0  0  0  0  0  0  0  0  0  0
  -22.1745   10.6586  -15.3000 C   0  0  0  0  0  0  0  0  0  0  0  0
  -22.6078    9.9544  -14.0361 C   0  0  0  0  0  0  0  0  0  0  0  0
  -21.7068   10.3723  -12.9797 N   0  0  0  0  0  0  0  0  0  0  0  0
  -20.8213   11.4638  -13.2833 C   0  0  0  0  0  0  0  0  0  0  0  0
  -19.9278   11.0175  -14.4413 C   0  0  0  0  0  0  0  0  0  0  0  0
  -21.6938    9.7497  -11.7247 C   0  0  0  0  0  0  0  0  0  0  0  0
  -22.5197    8.7830  -11.5423 O   0  0  0  0  0  0  0  0  0  0  0  0
  -20.3055   10.8612  -16.8498 C   0  0  0  0  0  0  0  0  0  0  0  0
  -19.8283   12.4562  -18.6813 H   0  0  0  0  0  0  0  0  0  0  0  0
  -16.9965   13.7767  -22.3914 C   0  0  0  0  0  0  0  0  0  0  0  0
  -17.3297   12.4413  -22.3391 C   0  0  0  0  0  0  0  0  0  0  0  0
  -17.9487   11.9271  -21.2340 C   0  0  0  0  0  0  0  0  0  0  0  0
  -18.2671   12.7186  -20.1246 C   0  0  0  0  0  0  0  0  0  0  0  0
  -17.9377   14.0318  -20.1781 C   0  0  0  0  0  0  0  0  0  0  0  0
  -17.3023   14.5620  -21.3123 C   0  0  0  0  0  0  0  0  0  0  0  0
  -16.3589   14.3063  -23.5309 O   0  0  0  0  0  0  0  0  0  0  0  0
  -17.0730   13.2846  -25.4722 F   0  0  0  0  0  0  0  0  0  0  0  0
  -17.1561   14.4544  -24.7164 C   0  0  0  0  0  0  0  0  0  0  0  0
  -18.4732   14.6282  -24.4022 F   0  0  0  0  0  0  0  0  0  0  0  0
  -16.6608   15.5398  -25.4088 F   0  0  0  0  0  0  0  0  0  0  0  0
  -20.8068   10.1118  -10.5872 C   0  0  0  0  0  0  0  0  0  0  0  0
  -19.4577    9.4234  -10.5919 C   0  0  0  0  0  0  0  0  0  0  0  0
  -20.4945    9.0128   -9.6281 C   0  0  0  0  0  0  0  0  0  0  0  0
 25 26  1  0  0  0
 26 27  1  0  0  0
 26 28  1  0  0  0
 26 24  1  0  0  0
 24 18  1  0  0  0
 18 19  2  0  0  0
 19 20  1  0  0  0
 20 21  2  0  0  0
 21  1  1  0  0  0
  1  2  1  0  0  0
  2  3  2  0  0  0
  2  4  1  0  0  0
  4  5  1  0  0  0
  5  6  1  0  0  0
  6  7  1  0  0  0
  7  8  1  0  0  0
  8  9  1  0  0  0
  9 10  1  0  0  0
 10 11  1  0  0  0
 11 12  1  0  0  0
 12 13  1  0  0  0
 11 14  1  0  0  0
 14 15  2  0  0  0
 14 29  1  0  0  0
 29 30  1  0  0  0
 30 31  1  0  0  0
  8 16  1  0  0  0
 21 22  1  0  0  0
 22 23  2  0  0  0
 23 18  1  0  0  0
 16  4  1  0  0  0
 13  8  1  0  0  0
 31 29  1  0  0  0
  1 17  1  0  0  0
M  END
> <minimizedAffinity>
-7.86513

> <CNNscore>
0.3455809355

> <CNNaffinity>
5.7806711197

> <CNN_VS>
1.9976897240

> <CNNaffinity_variance>
0.0314175896

$$$$
[H]c1c([H])c(N([H])C(=O)N2C([H])([H])C([H])([H])OC3(C2([H])[H])C([H])([H])C([H])([H])N(C(=O)C2([H])C([H])([H])C2([H])[H])C([H])([H])C3([H])[H])c([H])c([H])c1OC(F)(F)F


 31 34  0  0  0  0  0  0  0  0999 V2000
  -18.6259   11.8801  -22.6391 N   0  0  0  0  0  0  0  0  0  0  0  0
  -18.4739   12.5107  -23.8893 C   0  0  0  0  0  0  0  0  0  0  0  0
  -18.4019   11.8825  -24.9533 O   0  0  0  0  0  0  0  0  0  0  0  0
  -18.3941   13.9402  -23.9842 N   0  0  0  0  0  0  0  0  0  0  0  0
  -18.2390   14.5930  -25.2456 C   0  0  0  0  0  0  0  0  0  0  0  0
  -17.4650   15.8494  -25.0559 C   0  0  0  0  0  0  0  0  0  0  0  0
  -17.9072   16.7052  -24.1030 O   0  0  0  0  0  0  0  0  0  0  0  0
  -18.7066   16.2104  -23.1225 C   0  0  0  0  0  0  0  0  0  0  0  0
  -18.4143   17.0028  -21.8454 C   0  0  0  0  0  0  0  0  0  0  0  0
  -18.4902   18.4625  -22.2255 C   0  0  0  0  0  0  0  0  0  0  0  0
  -19.7950   18.6863  -22.8171 N   0  0  0  0  0  0  0  0  0  0  0  0
  -20.7470   17.6150  -22.7002 C   0  0  0  0  0  0  0  0  0  0  0  0
  -20.1616   16.4036  -23.4271 C   0  0  0  0  0  0  0  0  0  0  0  0
  -20.1192   19.8824  -23.4706 C   0  0  0  0  0  0  0  0  0  0  0  0
  -19.2067   20.7846  -23.5270 O   0  0  0  0  0  0  0  0  0  0  0  0
  -18.4704   14.7588  -22.7927 C   0  0  0  0  0  0  0  0  0  0  0  0
  -18.6812   12.5206  -21.7573 H   0  0  0  0  0  0  0  0  0  0  0  0
  -18.7298    7.7560  -21.8601 C   0  0  0  0  0  0  0  0  0  0  0  0
  -18.3566    8.6747  -20.9043 C   0  0  0  0  0  0  0  0  0  0  0  0
  -18.3442   10.0099  -21.1978 C   0  0  0  0  0  0  0  0  0  0  0  0
  -18.7035   10.4968  -22.4597 C   0  0  0  0  0  0  0  0  0  0  0  0
  -19.0696    9.5911  -23.3985 C   0  0  0  0  0  0  0  0  0  0  0  0
  -19.0834    8.2195  -23.0990 C   0  0  0  0  0  0  0  0  0  0  0  0
  -18.7428    6.3800  -21.5570 O   0  0  0  0  0  0  0  0  0  0  0  0
  -20.0182    5.5200  -23.2765 F   0  0  0  0  0  0  0  0  0  0  0  0
  -18.7651    5.4668  -22.6654 C   0  0  0  0  0  0  0  0  0  0  0  0
  -17.8491    5.8240  -23.6126 F   0  0  0  0  0  0  0  0  0  0  0  0
  -18.5002    4.2094  -22.1641 F   0  0  0  0  0  0  0  0  0  0  0  0
  -21.4278   20.1965  -24.1036 C   0  0  0  0  0  0  0  0  0  0  0  0
  -21.3327   20.9417  -25.4188 C   0  0  0  0  0  0  0  0  0  0  0  0
  -21.7747   21.6440  -24.2006 C   0  0  0  0  0  0  0  0  0  0  0  0
 25 26  1  0  0  0
 26 27  1  0  0  0
 26 28  1  0  0  0
 26 24  1  0  0  0
 24 18  1  0  0  0
 18 19  2  0  0  0
 19 20  1  0  0  0
 20 21  2  0  0  0
 21  1  1  0  0  0
  1  2  1  0  0  0
  2  3  2  0  0  0
  2  4  1  0  0  0
  4  5  1  0  0  0
  5  6  1  0  0  0
  6  7  1  0  0  0
  7  8  1  0  0  0
  8  9  1  0  0  0
  9 10  1  0  0  0
 10 11  1  0  0  0
 11 12  1  0  0  0
 12 13  1  0  0  0
 11 14  1  0  0  0
 14 15  2  0  0  0
 14 29  1  0  0  0
 29 30  1  0  0  0
 30 31  1  0  0  0
  8 16  1  0  0  0
 21 22  1  0  0  0
 22 23  2  0  0  0
 23 18  1  0  0  0
 16  4  1  0  0  0
 13  8  1  0  0  0
 31 29  1  0  0  0
  1 17  1  0  0  0
M  END
> <minimizedAffinity>
46.46107

> <CNNscore>
0.3389666975

> <CNNaffinity>
5.6040554047

> <CNN_VS>
1.8995881081

> <CNNaffinity_variance>
0.8197361231

$$$$
[H]c1c([H])c(N([H])C(=O)N2C([H])([H])C([H])([H])OC3(C2([H])[H])C([H])([H])C([H])([H])N(C(=O)C2([H])C([H])([H])C2([H])[H])C([H])([H])C3([H])[H])c([H])c([H])c1OC(F)(F)F


 31 34  0  0  0  0  0  0  0  0999 V2000
  -20.2643   17.7408  -21.9130 N   0  0  0  0  0  0  0  0  0  0  0  0
  -19.9020   17.5232  -20.5695 C   0  0  0  0  0  0  0  0  0  0  0  0
  -20.3969   18.1588  -19.6297 O   0  0  0  0  0  0  0  0  0  0  0  0
  -18.9218   16.5333  -20.2258 N   0  0  0  0  0  0  0  0  0  0  0  0
  -18.5442   16.3027  -18.8673 C   0  0  0  0  0  0  0  0  0  0  0  0
  -17.1218   15.8691  -18.8203 C   0  0  0  0  0  0  0  0  0  0  0  0
  -16.7690   14.8324  -19.6184 O   0  0  0  0  0  0  0  0  0  0  0  0
  -17.5609   14.5507  -20.6856 C   0  0  0  0  0  0  0  0  0  0  0  0
  -16.6593   14.0116  -21.7994 C   0  0  0  0  0  0  0  0  0  0  0  0
  -15.8126   12.9292  -21.1728 C   0  0  0  0  0  0  0  0  0  0  0  0
  -16.7173   11.9653  -20.5771 N   0  0  0  0  0  0  0  0  0  0  0  0
  -18.1118   12.1081  -20.8973 C   0  0  0  0  0  0  0  0  0  0  0  0
  -18.5604   13.4759  -20.3808 C   0  0  0  0  0  0  0  0  0  0  0  0
  -16.2636   10.9441  -19.7321 C   0  0  0  0  0  0  0  0  0  0  0  0
  -15.0010   10.8926  -19.5017 O   0  0  0  0  0  0  0  0  0  0  0  0
  -18.2893   15.7396  -21.2581 C   0  0  0  0  0  0  0  0  0  0  0  0
  -19.7727   17.1286  -22.6710 H   0  0  0  0  0  0  0  0  0  0  0  0
  -23.2776   20.4029  -23.1210 C   0  0  0  0  0  0  0  0  0  0  0  0
  -23.5598   19.2117  -22.4899 C   0  0  0  0  0  0  0  0  0  0  0  0
  -22.5474   18.3771  -22.1059 C   0  0  0  0  0  0  0  0  0  0  0  0
  -21.2018   18.6881  -22.3318 C   0  0  0  0  0  0  0  0  0  0  0  0
  -20.9267   19.8602  -22.9534 C   0  0  0  0  0  0  0  0  0  0  0  0
  -21.9649   20.7189  -23.3482 C   0  0  0  0  0  0  0  0  0  0  0  0
  -24.3214   21.2629  -23.5163 O   0  0  0  0  0  0  0  0  0  0  0  0
  -25.0426   19.7971  -25.1454 F   0  0  0  0  0  0  0  0  0  0  0  0
  -24.7922   21.1413  -24.8678 C   0  0  0  0  0  0  0  0  0  0  0  0
  -25.9730   21.8054  -25.0366 F   0  0  0  0  0  0  0  0  0  0  0  0
  -23.8100   21.6528  -25.6901 F   0  0  0  0  0  0  0  0  0  0  0  0
  -17.1177    9.9158  -19.0800 C   0  0  0  0  0  0  0  0  0  0  0  0
  -18.4441   10.4307  -18.5607 C   0  0  0  0  0  0  0  0  0  0  0  0
  -17.3592   10.0993  -17.6195 C   0  0  0  0  0  0  0  0  0  0  0  0
 25 26  1  0  0  0
 26 27  1  0  0  0
 26 28  1  0  0  0
 26 24  1  0  0  0
 24 18  1  0  0  0
 18 19  2  0  0  0
 19 20  1  0  0  0
 20 21  2  0  0  0
 21  1  1  0  0  0
  1  2  1  0  0  0
  2  3  2  0  0  0
  2  4  1  0  0  0
  4  5  1  0  0  0
  5  6  1  0  0  0
  6  7  1  0  0  0
  7  8  1  0  0  0
  8  9  1  0  0  0
  9 10  1  0  0  0
 10 11  1  0  0  0
 11 12  1  0  0  0
 12 13  1  0  0  0
 11 14  1  0  0  0
 14 15  2  0  0  0
 14 29  1  0  0  0
 29 30  1  0  0  0
 30 31  1  0  0  0
  8 16  1  0  0  0
 21 22  1  0  0  0
 22 23  2  0  0  0
 23 18  1  0  0  0
 16  4  1  0  0  0
 13  8  1  0  0  0
 31 29  1  0  0  0
  1 17  1  0  0  0
M  END
> <minimizedAffinity>
-0.03146

> <CNNscore>
0.3171721995

> <CNNaffinity>
5.7905578613

> <CNN_VS>
1.8366039991

> <CNNaffinity_variance>
0.8762232065

$$$$
[H]OC(=O)[C@@]([H])(N([H])C(=O)[C@@]([H])(N([H])C(=O)[C@@]1([H])N(C(=O)[C@@]([H])(N([H])C(=O)OC([H])([H])c2c([H])c([H])c([H])c([H])c2[H])[C@@]([H])(C([H])([H])[H])C([H])([H])C([H])([H])[H])C([H])([H])C([H])([H])C1([H])[H])C([H])([H])C([H])(C([H])([H])[H])C([H])([H])[H])C([H])([H])c1c([H])c([H])c([H])c([H])c1[H]


 49 51  0  0  0  0  0  0  0  0999 V2000
  -19.3647   14.2207  -17.3189 C   0  0  0  0  0  0  0  0  0  0  0  0
  -18.3445   13.9633  -16.6445 O   0  0  0  0  0  0  0  0  0  0  0  0
  -20.5933   13.6247  -16.9806 N   0  0  0  0  0  0  0  0  0  0  0  0
  -21.4054   13.9292  -17.6457 H   0  0  0  0  0  0  0  0  0  0  0  0
  -21.4793   16.3425  -18.7597 C   0  0  0  0  0  0  0  0  0  0  0  0
  -21.9323   15.3715  -19.4402 O   0  0  0  0  0  0  0  0  0  0  0  0
  -20.1697   16.2502  -18.2660 N   0  0  0  0  0  0  0  0  0  0  0  0
  -19.4704   17.2420  -17.4978 C   0  0  0  0  0  0  0  0  0  0  0  0
  -18.0820   17.2287  -18.1329 C   0  0  0  0  0  0  0  0  0  0  0  0
  -17.9193   15.8160  -18.6012 C   0  0  0  0  0  0  0  0  0  0  0  0
  -19.2596   15.1461  -18.4566 C   0  0  0  0  0  0  0  0  0  0  0  0
  -22.3802   17.5012  -18.5518 C   0  0  0  0  0  0  0  0  0  0  0  0
  -23.3943   17.4574  -19.5955 N   0  0  0  0  0  0  0  0  0  0  0  0
  -23.1421   18.1787  -20.8214 C   0  0  0  0  0  0  0  0  0  0  0  0
  -22.0799   18.8365  -20.9977 O   0  0  0  0  0  0  0  0  0  0  0  0
  -24.2557   16.9301  -19.4860 H   0  0  0  0  0  0  0  0  0  0  0  0
  -24.0728   18.1629  -21.8476 O   0  0  0  0  0  0  0  0  0  0  0  0
  -24.0795   17.2218  -22.9021 C   0  0  0  0  0  0  0  0  0  0  0  0
  -23.8379   17.9599  -24.1698 C   0  0  0  0  0  0  0  0  0  0  0  0
  -23.8784   19.3587  -24.1640 C   0  0  0  0  0  0  0  0  0  0  0  0
  -23.6537   20.0149  -25.3520 C   0  0  0  0  0  0  0  0  0  0  0  0
  -23.3972   19.3416  -26.5180 C   0  0  0  0  0  0  0  0  0  0  0  0
  -23.3624   17.9631  -26.5013 C   0  0  0  0  0  0  0  0  0  0  0  0
  -23.5817   17.2602  -25.3315 C   0  0  0  0  0  0  0  0  0  0  0  0
  -22.9460   17.6235  -17.1793 C   0  0  0  0  0  0  0  0  0  0  0  0
  -24.0439   18.6631  -17.0557 C   0  0  0  0  0  0  0  0  0  0  0  0
  -24.6344   15.8385  -16.5718 C   0  0  0  0  0  0  0  0  0  0  0  0
  -23.2374   16.3483  -16.4586 C   0  0  0  0  0  0  0  0  0  0  0  0
  -20.9058   12.7238  -15.9313 C   0  0  0  0  0  0  0  0  0  0  0  0
  -20.6961   11.2954  -16.3218 C   0  0  0  0  0  0  0  0  0  0  0  0
  -21.6165   10.4879  -16.1344 O   0  0  0  0  0  0  0  0  0  0  0  0
  -19.4877   10.9279  -16.8814 N   0  0  0  0  0  0  0  0  0  0  0  0
  -18.7307   11.6669  -17.0162 H   0  0  0  0  0  0  0  0  0  0  0  0
  -19.0935    9.5845  -17.3355 C   0  0  0  0  0  0  0  0  0  0  0  0
  -19.1865    8.6500  -16.2190 C   0  0  0  0  0  0  0  0  0  0  0  0
  -20.1422    7.6190  -16.2162 O   0  0  0  0  0  0  0  0  0  0  0  0
  -18.3968    8.7620  -15.2244 O   0  0  0  0  0  0  0  0  0  0  0  0
  -19.9521    6.7891  -15.6803 H   0  0  0  0  0  0  0  0  0  0  0  0
  -17.6512    9.7080  -17.8091 C   0  0  0  0  0  0  0  0  0  0  0  0
  -17.4823   10.4056  -19.0520 C   0  0  0  0  0  0  0  0  0  0  0  0
  -18.2593   11.5156  -19.3864 C   0  0  0  0  0  0  0  0  0  0  0  0
  -18.0235   12.1771  -20.5693 C   0  0  0  0  0  0  0  0  0  0  0  0
  -17.0262   11.7663  -21.4460 C   0  0  0  0  0  0  0  0  0  0  0  0
  -16.2522   10.6753  -21.1329 C   0  0  0  0  0  0  0  0  0  0  0  0
  -16.4810   10.0048  -19.9472 C   0  0  0  0  0  0  0  0  0  0  0  0
  -22.2189   12.9331  -15.2777 C   0  0  0  0  0  0  0  0  0  0  0  0
  -22.2554   13.4297  -13.8843 C   0  0  0  0  0  0  0  0  0  0  0  0
  -23.4642   14.1308  -13.4033 C   0  0  0  0  0  0  0  0  0  0  0  0
  -21.9867   12.2301  -12.9643 C   0  0  0  0  0  0  0  0  0  0  0  0
 27 28  1  0  0  0
 28 25  1  0  0  0
 25 26  1  0  0  0
 25 12  1  0  0  0
 12 13  1  0  0  0
 13 14  1  0  0  0
 14 15  2  0  0  0
 14 17  1  0  0  0
 17 18  1  0  0  0
 18 19  1  0  0  0
 19 20  2  0  0  0
 20 21  1  0  0  0
 21 22  2  0  0  0
 22 23  1  0  0  0
 23 24  2  0  0  0
 12  5  1  0  0  0
  5  6  2  0  0  0
  5  7  1  0  0  0
  7  8  1  0  0  0
  8  9  1  0  0  0
  9 10  1  0  0  0
 10 11  1  0  0  0
 11  1  1  0  0  0
  1  2  2  0  0  0
  1  3  1  0  0  0
  3 29  1  0  0  0
 29 46  1  0  0  0
 46 47  1  0  0  0
 47 48  1  0  0  0
 47 49  1  0  0  0
 29 30  1  0  0  0
 30 31  2  0  0  0
 30 32  1  0  0  0
 32 34  1  0  0  0
 34 39  1  0  0  0
 39 40  1  0  0  0
 40 41  2  0  0  0
 41 42  1  0  0  0
 42 43  2  0  0  0
 43 44  1  0  0  0
 44 45  2  0  0  0
 34 35  1  0  0  0
 35 36  1  0  0  0
 35 37  2  0  0  0
 24 19  1  0  0  0
 11  7  1  0  0  0
 45 40  1  0  0  0
 13 16  1  0  0  0
  3  4  1  0  0  0
 32 33  1  0  0  0
 36 38  1  0  0  0
M  END
> <minimizedAffinity>
-7.32925

> <CNNscore>
0.3800396025

> <CNNaffinity>
6.7226104736

> <CNN_VS>
2.5548582077

> <CNNaffinity_variance>
0.0829648226

$$$$
[H]OC(=O)[C@@]([H])(N([H])C(=O)[C@@]([H])(N([H])C(=O)[C@@]1([H])N(C(=O)[C@@]([H])(N([H])C(=O)OC([H])([H])c2c([H])c([H])c([H])c([H])c2[H])[C@@]([H])(C([H])([H])[H])C([H])([H])C([H])([H])[H])C([H])([H])C([H])([H])C1([H])[H])C([H])([H])C([H])(C([H])([H])[H])C([H])([H])[H])C([H])([H])c1c([H])c([H])c([H])c([H])c1[H]


 49 51  0  0  0  0  0  0  0  0999 V2000
  -17.1250   12.2767  -20.1499 C   0  0  0  0  0  0  0  0  0  0  0  0
  -17.0278   11.4084  -21.0436 O   0  0  0  0  0  0  0  0  0  0  0  0
  -17.3330   13.6222  -20.5041 N   0  0  0  0  0  0  0  0  0  0  0  0
  -17.3992   14.2804  -19.6341 H   0  0  0  0  0  0  0  0  0  0  0  0
  -18.8294   13.0506  -17.4031 C   0  0  0  0  0  0  0  0  0  0  0  0
  -18.0978   14.0808  -17.2836 O   0  0  0  0  0  0  0  0  0  0  0  0
  -18.3193   11.9560  -18.1166 N   0  0  0  0  0  0  0  0  0  0  0  0
  -18.9761   10.6993  -18.3453 C   0  0  0  0  0  0  0  0  0  0  0  0
  -17.8509    9.6945  -18.1100 C   0  0  0  0  0  0  0  0  0  0  0  0
  -16.6191   10.4370  -18.5256 C   0  0  0  0  0  0  0  0  0  0  0  0
  -17.0203   11.8720  -18.7403 C   0  0  0  0  0  0  0  0  0  0  0  0
  -20.1671   13.0934  -16.7658 C   0  0  0  0  0  0  0  0  0  0  0  0
  -19.9911   12.7567  -15.3602 N   0  0  0  0  0  0  0  0  0  0  0  0
  -20.4756   11.4760  -14.9005 C   0  0  0  0  0  0  0  0  0  0  0  0
  -21.0415   10.6616  -15.6806 O   0  0  0  0  0  0  0  0  0  0  0  0
  -19.5324   13.3881  -14.7098 H   0  0  0  0  0  0  0  0  0  0  0  0
  -20.3261   11.1057  -13.5737 O   0  0  0  0  0  0  0  0  0  0  0  0
  -20.4283    9.7775  -13.1013 C   0  0  0  0  0  0  0  0  0  0  0  0
  -19.5065    9.6361  -11.9437 C   0  0  0  0  0  0  0  0  0  0  0  0
  -19.4309   10.6674  -11.0008 C   0  0  0  0  0  0  0  0  0  0  0  0
  -18.5673   10.5102   -9.9416 C   0  0  0  0  0  0  0  0  0  0  0  0
  -17.7942    9.3882   -9.7932 C   0  0  0  0  0  0  0  0  0  0  0  0
  -17.8840    8.3842  -10.7343 C   0  0  0  0  0  0  0  0  0  0  0  0
  -18.7377    8.4970  -11.8155 C   0  0  0  0  0  0  0  0  0  0  0  0
  -20.9307   14.3539  -16.9830 C   0  0  0  0  0  0  0  0  0  0  0  0
  -21.3615   14.5734  -18.4208 C   0  0  0  0  0  0  0  0  0  0  0  0
  -21.8072   15.9549  -15.2296 C   0  0  0  0  0  0  0  0  0  0  0  0
  -21.9877   14.6782  -15.9791 C   0  0  0  0  0  0  0  0  0  0  0  0
  -17.4687   14.2119  -21.7864 C   0  0  0  0  0  0  0  0  0  0  0  0
  -18.3578   15.4144  -21.7723 C   0  0  0  0  0  0  0  0  0  0  0  0
  -19.5117   15.2939  -21.3386 O   0  0  0  0  0  0  0  0  0  0  0  0
  -17.8607   16.6164  -22.2377 N   0  0  0  0  0  0  0  0  0  0  0  0
  -16.8592   16.6590  -22.6019 H   0  0  0  0  0  0  0  0  0  0  0  0
  -18.5699   17.9046  -22.2984 C   0  0  0  0  0  0  0  0  0  0  0  0
  -18.2278   18.5870  -23.5417 C   0  0  0  0  0  0  0  0  0  0  0  0
  -18.7653   19.8499  -23.8455 O   0  0  0  0  0  0  0  0  0  0  0  0
  -17.4331   18.0382  -24.3741 O   0  0  0  0  0  0  0  0  0  0  0  0
  -18.2505   20.4554  -24.4623 H   0  0  0  0  0  0  0  0  0  0  0  0
  -18.0852   18.7075  -21.0984 C   0  0  0  0  0  0  0  0  0  0  0  0
  -18.9161   18.6100  -19.9321 C   0  0  0  0  0  0  0  0  0  0  0  0
  -18.6280   17.7238  -18.8932 C   0  0  0  0  0  0  0  0  0  0  0  0
  -19.4301   17.7048  -17.7759 C   0  0  0  0  0  0  0  0  0  0  0  0
  -20.5272   18.5495  -17.6537 C   0  0  0  0  0  0  0  0  0  0  0  0
  -20.8257   19.4278  -18.6671 C   0  0  0  0  0  0  0  0  0  0  0  0
  -20.0259   19.4547  -19.7928 C   0  0  0  0  0  0  0  0  0  0  0  0
  -17.8127   13.2806  -22.8861 C   0  0  0  0  0  0  0  0  0  0  0  0
  -17.0263   13.3280  -24.1386 C   0  0  0  0  0  0  0  0  0  0  0  0
  -17.4142   14.2868  -25.1942 C   0  0  0  0  0  0  0  0  0  0  0  0
  -15.5643   13.5920  -23.7507 C   0  0  0  0  0  0  0  0  0  0  0  0
 27 28  1  0  0  0
 28 25  1  0  0  0
 25 26  1  0  0  0
 25 12  1  0  0  0
 12 13  1  0  0  0
 13 14  1  0  0  0
 14 15  2  0  0  0
 14 17  1  0  0  0
 17 18  1  0  0  0
 18 19  1  0  0  0
 19 20  2  0  0  0
 20 21  1  0  0  0
 21 22  2  0  0  0
 22 23  1  0  0  0
 23 24  2  0  0  0
 12  5  1  0  0  0
  5  6  2  0  0  0
  5  7  1  0  0  0
  7  8  1  0  0  0
  8  9  1  0  0  0
  9 10  1  0  0  0
 10 11  1  0  0  0
 11  1  1  0  0  0
  1  2  2  0  0  0
  1  3  1  0  0  0
  3 29  1  0  0  0
 29 46  1  0  0  0
 46 47  1  0  0  0
 47 48  1  0  0  0
 47 49  1  0  0  0
 29 30  1  0  0  0
 30 31  2  0  0  0
 30 32  1  0  0  0
 32 34  1  0  0  0
 34 39  1  0  0  0
 39 40  1  0  0  0
 40 41  2  0  0  0
 41 42  1  0  0  0
 42 43  2  0  0  0
 43 44  1  0  0  0
 44 45  2  0  0  0
 34 35  1  0  0  0
 35 36  1  0  0  0
 35 37  2  0  0  0
 24 19  1  0  0  0
 11  7  1  0  0  0
 45 40  1  0  0  0
 13 16  1  0  0  0
  3  4  1  0  0  0
 32 33  1  0  0  0
 36 38  1  0  0  0
M  END
> <minimizedAffinity>
-7.30009

> <CNNscore>
0.3778709769

> <CNNaffinity>
7.3325719833

> <CNN_VS>
2.7707660198

> <CNNaffinity_variance>
0.0910323858

$$$$
[H]OC(=O)[C@@]([H])(N([H])C(=O)[C@@]([H])(N([H])C(=O)[C@@]1([H])N(C(=O)[C@@]([H])(N([H])C(=O)OC([H])([H])c2c([H])c([H])c([H])c([H])c2[H])[C@@]([H])(C([H])([H])[H])C([H])([H])C([H])([H])[H])C([H])([H])C([H])([H])C1([H])[H])C([H])([H])C([H])(C([H])([H])[H])C([H])([H])[H])C([H])([H])c1c([H])c([H])c([H])c([H])c1[H]


 49 51  0  0  0  0  0  0  0  0999 V2000
  -20.5836   17.1724  -20.2989 C   0  0  0  0  0  0  0  0  0  0  0  0
  -21.5980   17.1057  -21.0259 O   0  0  0  0  0  0  0  0  0  0  0  0
  -19.5403   18.0539  -20.6362 N   0  0  0  0  0  0  0  0  0  0  0  0
  -18.7124   18.0174  -19.9236 H   0  0  0  0  0  0  0  0  0  0  0  0
  -19.6959   14.0125  -19.7736 C   0  0  0  0  0  0  0  0  0  0  0  0
  -20.8785   13.6679  -20.0796 O   0  0  0  0  0  0  0  0  0  0  0  0
  -19.4895   15.3138  -19.2928 N   0  0  0  0  0  0  0  0  0  0  0  0
  -18.2401   15.8865  -18.8757 C   0  0  0  0  0  0  0  0  0  0  0  0
  -18.6320   16.6362  -17.6046 C   0  0  0  0  0  0  0  0  0  0  0  0
  -20.0519   17.0397  -17.8539 C   0  0  0  0  0  0  0  0  0  0  0  0
  -20.5014   16.3250  -19.1003 C   0  0  0  0  0  0  0  0  0  0  0  0
  -18.6296   12.9973  -19.9462 C   0  0  0  0  0  0  0  0  0  0  0  0
  -17.5168   13.6455  -20.6256 N   0  0  0  0  0  0  0  0  0  0  0  0
  -17.0820   13.1026  -21.8916 C   0  0  0  0  0  0  0  0  0  0  0  0
  -17.6369   12.0932  -22.4065 O   0  0  0  0  0  0  0  0  0  0  0  0
  -17.0552   14.4642  -20.2400 H   0  0  0  0  0  0  0  0  0  0  0  0
  -16.0318   13.6873  -22.5808 O   0  0  0  0  0  0  0  0  0  0  0  0
  -15.3317   13.0675  -23.6407 C   0  0  0  0  0  0  0  0  0  0  0  0
  -15.4229   13.9592  -24.8267 C   0  0  0  0  0  0  0  0  0  0  0  0
  -14.4067   14.8929  -25.0589 C   0  0  0  0  0  0  0  0  0  0  0  0
  -14.5189   15.7065  -26.1625 C   0  0  0  0  0  0  0  0  0  0  0  0
  -15.5837   15.6247  -27.0217 C   0  0  0  0  0  0  0  0  0  0  0  0
  -16.5742   14.6978  -26.7738 C   0  0  0  0  0  0  0  0  0  0  0  0
  -16.5048   13.8585  -25.6777 C   0  0  0  0  0  0  0  0  0  0  0  0
  -18.2300   12.2826  -18.7019 C   0  0  0  0  0  0  0  0  0  0  0  0
  -19.2794   12.3177  -17.6070 C   0  0  0  0  0  0  0  0  0  0  0  0
  -16.0898   10.9421  -18.8707 C   0  0  0  0  0  0  0  0  0  0  0  0
  -17.5812   10.9486  -18.8745 C   0  0  0  0  0  0  0  0  0  0  0  0
  -19.4280   18.9503  -21.7290 C   0  0  0  0  0  0  0  0  0  0  0  0
  -20.6230   19.8393  -21.8652 C   0  0  0  0  0  0  0  0  0  0  0  0
  -20.6491   20.9002  -21.2264 O   0  0  0  0  0  0  0  0  0  0  0  0
  -21.6518   19.4497  -22.7010 N   0  0  0  0  0  0  0  0  0  0  0  0
  -21.5747   18.5234  -23.2239 H   0  0  0  0  0  0  0  0  0  0  0  0
  -22.8982   20.1835  -22.9735 C   0  0  0  0  0  0  0  0  0  0  0  0
  -23.6969   20.2497  -21.7545 C   0  0  0  0  0  0  0  0  0  0  0  0
  -23.7837   21.4391  -21.0100 O   0  0  0  0  0  0  0  0  0  0  0  0
  -24.3273   19.2192  -21.3468 O   0  0  0  0  0  0  0  0  0  0  0  0
  -24.5985   21.5904  -20.4396 H   0  0  0  0  0  0  0  0  0  0  0  0
  -23.6280   19.3869  -24.0470 C   0  0  0  0  0  0  0  0  0  0  0  0
  -23.2252   19.6790  -25.3932 C   0  0  0  0  0  0  0  0  0  0  0  0
  -22.4095   20.7693  -25.6991 C   0  0  0  0  0  0  0  0  0  0  0  0
  -22.0131   20.9760  -27.0000 C   0  0  0  0  0  0  0  0  0  0  0  0
  -22.4063   20.1228  -28.0244 C   0  0  0  0  0  0  0  0  0  0  0  0
  -23.2097   19.0449  -27.7414 C   0  0  0  0  0  0  0  0  0  0  0  0
  -23.6126   18.8286  -26.4381 C   0  0  0  0  0  0  0  0  0  0  0  0
  -19.0417   18.3384  -23.0219 C   0  0  0  0  0  0  0  0  0  0  0  0
  -18.1633   17.1476  -23.0178 C   0  0  0  0  0  0  0  0  0  0  0  0
  -18.6885   15.8662  -23.5339 C   0  0  0  0  0  0  0  0  0  0  0  0
  -16.8971   17.5109  -23.8065 C   0  0  0  0  0  0  0  0  0  0  0  0
 27 28  1  0  0  0
 28 25  1  0  0  0
 25 26  1  0  0  0
 25 12  1  0  0  0
 12 13  1  0  0  0
 13 14  1  0  0  0
 14 15  2  0  0  0
 14 17  1  0  0  0
 17 18  1  0  0  0
 18 19  1  0  0  0
 19 20  2  0  0  0
 20 21  1  0  0  0
 21 22  2  0  0  0
 22 23  1  0  0  0
 23 24  2  0  0  0
 12  5  1  0  0  0
  5  6  2  0  0  0
  5  7  1  0  0  0
  7  8  1  0  0  0
  8  9  1  0  0  0
  9 10  1  0  0  0
 10 11  1  0  0  0
 11  1  1  0  0  0
  1  2  2  0  0  0
  1  3  1  0  0  0
  3 29  1  0  0  0
 29 46  1  0  0  0
 46 47  1  0  0  0
 47 48  1  0  0  0
 47 49  1  0  0  0
 29 30  1  0  0  0
 30 31  2  0  0  0
 30 32  1  0  0  0
 32 34  1  0  0  0
 34 39  1  0  0  0
 39 40  1  0  0  0
 40 41  2  0  0  0
 41 42  1  0  0  0
 42 43  2  0  0  0
 43 44  1  0  0  0
 44 45  2  0  0  0
 34 35  1  0  0  0
 35 36  1  0  0  0
 35 37  2  0  0  0
 24 19  1  0  0  0
 11  7  1  0  0  0
 45 40  1  0  0  0
 13 16  1  0  0  0
  3  4  1  0  0  0
 32 33  1  0  0  0
 36 38  1  0  0  0
M  END
> <minimizedAffinity>
-8.51809

> <CNNscore>
0.2898860574

> <CNNaffinity>
6.9565362930

> <CNN_VS>
2.0166029930

> <CNNaffinity_variance>
0.7028190494

$$$$
[H]OC(=O)[C@@]([H])(N([H])C(=O)[C@@]([H])(N([H])C(=O)[C@@]1([H])N(C(=O)[C@@]([H])(N([H])C(=O)OC([H])([H])c2c([H])c([H])c([H])c([H])c2[H])[C@@]([H])(C([H])([H])[H])C([H])([H])C([H])([H])[H])C([H])([H])C([H])([H])C1([H])[H])C([H])([H])C([H])(C([H])([H])[H])C([H])([H])[H])C([H])([H])c1c([H])c([H])c([H])c([H])c1[H]


 49 51  0  0  0  0  0  0  0  0999 V2000
  -17.1562   12.8699  -20.1867 C   0  0  0  0  0  0  0  0  0  0  0  0
  -17.1161   12.0472  -21.1267 O   0  0  0  0  0  0  0  0  0  0  0  0
  -17.1850   14.2483  -20.4668 N   0  0  0  0  0  0  0  0  0  0  0  0
  -17.2179   14.8604  -19.5619 H   0  0  0  0  0  0  0  0  0  0  0  0
  -18.9210   13.6680  -17.4853 C   0  0  0  0  0  0  0  0  0  0  0  0
  -18.0933   14.6050  -17.2664 O   0  0  0  0  0  0  0  0  0  0  0  0
  -18.4892   12.5665  -18.2387 N   0  0  0  0  0  0  0  0  0  0  0  0
  -19.2602   11.4028  -18.5768 C   0  0  0  0  0  0  0  0  0  0  0  0
  -18.2612   10.2709  -18.3484 C   0  0  0  0  0  0  0  0  0  0  0  0
  -16.9372   10.8984  -18.6559 C   0  0  0  0  0  0  0  0  0  0  0  0
  -17.1733   12.3780  -18.8013 C   0  0  0  0  0  0  0  0  0  0  0  0
  -20.2803   13.8190  -16.9137 C   0  0  0  0  0  0  0  0  0  0  0  0
  -20.2272   13.3546  -15.5348 N   0  0  0  0  0  0  0  0  0  0  0  0
  -20.9881   12.1785  -15.1821 C   0  0  0  0  0  0  0  0  0  0  0  0
  -21.6876   11.5613  -16.0316 O   0  0  0  0  0  0  0  0  0  0  0  0
  -19.6669   13.8256  -14.8303 H   0  0  0  0  0  0  0  0  0  0  0  0
  -20.9654   11.6925  -13.8847 O   0  0  0  0  0  0  0  0  0  0  0  0
  -19.9433   10.8688  -13.3607 C   0  0  0  0  0  0  0  0  0  0  0  0
  -20.1349    9.5020  -13.9132 C   0  0  0  0  0  0  0  0  0  0  0  0
  -19.2696    9.0416  -14.9120 C   0  0  0  0  0  0  0  0  0  0  0  0
  -19.4724    7.7740  -15.4063 C   0  0  0  0  0  0  0  0  0  0  0  0
  -20.4840    6.9687  -14.9515 C   0  0  0  0  0  0  0  0  0  0  0  0
  -21.3255    7.4425  -13.9670 C   0  0  0  0  0  0  0  0  0  0  0  0
  -21.1607    8.7094  -13.4395 C   0  0  0  0  0  0  0  0  0  0  0  0
  -20.8809   15.1743  -17.0607 C   0  0  0  0  0  0  0  0  0  0  0  0
  -21.9358   15.2663  -18.1469 C   0  0  0  0  0  0  0  0  0  0  0  0
  -20.4659   17.1161  -15.4914 C   0  0  0  0  0  0  0  0  0  0  0  0
  -21.2485   15.8845  -15.7995 C   0  0  0  0  0  0  0  0  0  0  0  0
  -17.1833   14.9203  -21.7153 C   0  0  0  0  0  0  0  0  0  0  0  0
  -17.6104   16.3487  -21.5972 C   0  0  0  0  0  0  0  0  0  0  0  0
  -16.9224   17.2209  -22.1450 O   0  0  0  0  0  0  0  0  0  0  0  0
  -18.7578   16.6448  -20.8870 N   0  0  0  0  0  0  0  0  0  0  0  0
  -19.3086   15.8516  -20.4342 H   0  0  0  0  0  0  0  0  0  0  0  0
  -19.3435   17.9766  -20.6646 C   0  0  0  0  0  0  0  0  0  0  0  0
  -18.6655   18.6224  -19.5458 C   0  0  0  0  0  0  0  0  0  0  0  0
  -17.3631   19.1327  -19.6861 O   0  0  0  0  0  0  0  0  0  0  0  0
  -19.2517   18.7287  -18.4186 O   0  0  0  0  0  0  0  0  0  0  0  0
  -17.0740   19.8842  -19.0830 H   0  0  0  0  0  0  0  0  0  0  0  0
  -20.8113   17.7398  -20.3342 C   0  0  0  0  0  0  0  0  0  0  0  0
  -21.6981   17.7849  -21.4618 C   0  0  0  0  0  0  0  0  0  0  0  0
  -21.2868   18.2674  -22.7050 C   0  0  0  0  0  0  0  0  0  0  0  0
  -22.1625   18.2435  -23.7655 C   0  0  0  0  0  0  0  0  0  0  0  0
  -23.4545   17.7490  -23.6308 C   0  0  0  0  0  0  0  0  0  0  0  0
  -23.8763   17.2704  -22.4140 C   0  0  0  0  0  0  0  0  0  0  0  0
  -23.0041   17.2898  -21.3432 C   0  0  0  0  0  0  0  0  0  0  0  0
  -17.8824   14.2218  -22.8192 C   0  0  0  0  0  0  0  0  0  0  0  0
  -17.2161   14.1144  -24.1360 C   0  0  0  0  0  0  0  0  0  0  0  0
  -15.8350   13.5925  -24.2014 C   0  0  0  0  0  0  0  0  0  0  0  0
  -18.1107   13.2454  -25.0315 C   0  0  0  0  0  0  0  0  0  0  0  0
 27 28  1  0  0  0
 28 25  1  0  0  0
 25 26  1  0  0  0
 25 12  1  0  0  0
 12 13  1  0  0  0
 13 14  1  0  0  0
 14 15  2  0  0  0
 14 17  1  0  0  0
 17 18  1  0  0  0
 18 19  1  0  0  0
 19 20  2  0  0  0
 20 21  1  0  0  0
 21 22  2  0  0  0
 22 23  1  0  0  0
 23 24  2  0  0  0
 12  5  1  0  0  0
  5  6  2  0  0  0
  5  7  1  0  0  0
  7  8  1  0  0  0
  8  9  1  0  0  0
  9 10  1  0  0  0
 10 11  1  0  0  0
 11  1  1  0  0  0
  1  2  2  0  0  0
  1  3  1  0  0  0
  3 29  1  0  0  0
 29 46  1  0  0  0
 46 47  1  0  0  0
 47 48  1  0  0  0
 47 49  1  0  0  0
 29 30  1  0  0  0
 30 31  2  0  0  0
 30 32  1  0  0  0
 32 34  1  0  0  0
 34 39  1  0  0  0
 39 40  1  0  0  0
 40 41  2  0  0  0
 41 42  1  0  0  0
 42 43  2  0  0  0
 43 44  1  0  0  0
 44 45  2  0  0  0
 34 35  1  0  0  0
 35 36  1  0  0  0
 35 37  2  0  0  0
 24 19  1  0  0  0
 11  7  1  0  0  0
 45 40  1  0  0  0
 13 16  1  0  0  0
  3  4  1  0  0  0
 32 33  1  0  0  0
 36 38  1  0  0  0
M  END
> <minimizedAffinity>
-6.85906

> <CNNscore>
0.2019418776

> <CNNaffinity>
7.0054717064

> <CNN_VS>
1.4146981239

> <CNNaffinity_variance>
0.0769254714

$$$$
[H]OC(=O)[C@@]([H])(N([H])C(=O)[C@@]([H])(N([H])C(=O)[C@@]1([H])N(C(=O)[C@@]([H])(N([H])C(=O)OC([H])([H])c2c([H])c([H])c([H])c([H])c2[H])[C@@]([H])(C([H])([H])[H])C([H])([H])C([H])([H])[H])C([H])([H])C([H])([H])C1([H])[H])C([H])([H])C([H])(C([H])([H])[H])C([H])([H])[H])C([H])([H])c1c([H])c([H])c([H])c([H])c1[H]


 49 51  0  0  0  0  0  0  0  0999 V2000
  -18.2187   14.6249  -22.1801 C   0  0  0  0  0  0  0  0  0  0  0  0
  -17.1694   14.0324  -21.8486 O   0  0  0  0  0  0  0  0  0  0  0  0
  -19.3520   14.5543  -21.3494 N   0  0  0  0  0  0  0  0  0  0  0  0
  -20.2022   15.1120  -21.7502 H   0  0  0  0  0  0  0  0  0  0  0  0
  -19.1151   17.7278  -22.9663 C   0  0  0  0  0  0  0  0  0  0  0  0
  -20.3145   17.3210  -23.0493 O   0  0  0  0  0  0  0  0  0  0  0  0
  -18.0854   16.7935  -23.1513 N   0  0  0  0  0  0  0  0  0  0  0  0
  -16.6734   17.0547  -23.1179 C   0  0  0  0  0  0  0  0  0  0  0  0
  -16.1622   16.2412  -24.3046 C   0  0  0  0  0  0  0  0  0  0  0  0
  -17.1135   15.0878  -24.3807 C   0  0  0  0  0  0  0  0  0  0  0  0
  -18.2471   15.3878  -23.4366 C   0  0  0  0  0  0  0  0  0  0  0  0
  -18.9073   19.1685  -22.6860 C   0  0  0  0  0  0  0  0  0  0  0  0
  -20.1680   19.8490  -22.9454 N   0  0  0  0  0  0  0  0  0  0  0  0
  -20.2394   20.7430  -24.0777 C   0  0  0  0  0  0  0  0  0  0  0  0
  -19.2456   20.9432  -24.8288 O   0  0  0  0  0  0  0  0  0  0  0  0
  -20.9876   19.7021  -22.3634 H   0  0  0  0  0  0  0  0  0  0  0  0
  -21.4183   21.4093  -24.3710 O   0  0  0  0  0  0  0  0  0  0  0  0
  -22.7044   20.9497  -24.0071 C   0  0  0  0  0  0  0  0  0  0  0  0
  -23.0162   19.7635  -24.8471 C   0  0  0  0  0  0  0  0  0  0  0  0
  -23.2221   18.5245  -24.2298 C   0  0  0  0  0  0  0  0  0  0  0  0
  -23.5064   17.4440  -25.0323 C   0  0  0  0  0  0  0  0  0  0  0  0
  -23.5896   17.5523  -26.3962 C   0  0  0  0  0  0  0  0  0  0  0  0
  -23.3827   18.7825  -26.9839 C   0  0  0  0  0  0  0  0  0  0  0  0
  -23.0947   19.8970  -26.2186 C   0  0  0  0  0  0  0  0  0  0  0  0
  -18.3319   19.4753  -21.3467 C   0  0  0  0  0  0  0  0  0  0  0  0
  -18.7618   20.8168  -20.7839 C   0  0  0  0  0  0  0  0  0  0  0  0
  -17.0047   17.9007  -19.8753 C   0  0  0  0  0  0  0  0  0  0  0  0
  -18.3410   18.3685  -20.3441 C   0  0  0  0  0  0  0  0  0  0  0  0
  -19.5279   13.8883  -20.1101 C   0  0  0  0  0  0  0  0  0  0  0  0
  -20.4176   14.6442  -19.1753 C   0  0  0  0  0  0  0  0  0  0  0  0
  -21.3884   14.0586  -18.6766 O   0  0  0  0  0  0  0  0  0  0  0  0
  -20.1235   15.9651  -18.8971 N   0  0  0  0  0  0  0  0  0  0  0  0
  -19.2751   16.4175  -19.3586 H   0  0  0  0  0  0  0  0  0  0  0  0
  -20.8664   16.8693  -18.0045 C   0  0  0  0  0  0  0  0  0  0  0  0
  -21.6173   17.8302  -18.8053 C   0  0  0  0  0  0  0  0  0  0  0  0
  -21.3964   19.2121  -18.6724 O   0  0  0  0  0  0  0  0  0  0  0  0
  -22.4915   17.4225  -19.6390 O   0  0  0  0  0  0  0  0  0  0  0  0
  -21.6036   19.8093  -19.4551 H   0  0  0  0  0  0  0  0  0  0  0  0
  -19.8173   17.5819  -17.1612 C   0  0  0  0  0  0  0  0  0  0  0  0
  -20.1952   17.8110  -15.7956 C   0  0  0  0  0  0  0  0  0  0  0  0
  -19.3402   18.4395  -14.8891 C   0  0  0  0  0  0  0  0  0  0  0  0
  -19.7704   18.6780  -13.6045 C   0  0  0  0  0  0  0  0  0  0  0  0
  -21.0416   18.3067  -13.1825 C   0  0  0  0  0  0  0  0  0  0  0  0
  -21.8961   17.6866  -14.0615 C   0  0  0  0  0  0  0  0  0  0  0  0
  -21.4735   17.4431  -15.3537 C   0  0  0  0  0  0  0  0  0  0  0  0
  -18.2842   13.4332  -19.4457 C   0  0  0  0  0  0  0  0  0  0  0  0
  -18.0553   11.9821  -19.2687 C   0  0  0  0  0  0  0  0  0  0  0  0
  -16.6724   11.4884  -19.1012 C   0  0  0  0  0  0  0  0  0  0  0  0
  -18.8854   11.5328  -18.0577 C   0  0  0  0  0  0  0  0  0  0  0  0
 27 28  1  0  0  0
 28 25  1  0  0  0
 25 26  1  0  0  0
 25 12  1  0  0  0
 12 13  1  0  0  0
 13 14  1  0  0  0
 14 15  2  0  0  0
 14 17  1  0  0  0
 17 18  1  0  0  0
 18 19  1  0  0  0
 19 20  2  0  0  0
 20 21  1  0  0  0
 21 22  2  0  0  0
 22 23  1  0  0  0
 23 24  2  0  0  0
 12  5  1  0  0  0
  5  6  2  0  0  0
  5  7  1  0  0  0
  7  8  1  0  0  0
  8  9  1  0  0  0
  9 10  1  0  0  0
 10 11  1  0  0  0
 11  1  1  0  0  0
  1  2  2  0  0  0
  1  3  1  0  0  0
  3 29  1  0  0  0
 29 46  1  0  0  0
 46 47  1  0  0  0
 47 48  1  0  0  0
 47 49  1  0  0  0
 29 30  1  0  0  0
 30 31  2  0  0  0
 30 32  1  0  0  0
 32 34  1  0  0  0
 34 39  1  0  0  0
 39 40  1  0  0  0
 40 41  2  0  0  0
 41 42  1  0  0  0
 42 43  2  0  0  0
 43 44  1  0  0  0
 44 45  2  0  0  0
 34 35  1  0  0  0
 35 36  1  0  0  0
 35 37  2  0  0  0
 24 19  1  0  0  0
 11  7  1  0  0  0
 45 40  1  0  0  0
 13 16  1  0  0  0
  3  4  1  0  0  0
 32 33  1  0  0  0
 36 38  1  0  0  0
M  END
> <minimizedAffinity>
-7.25728

> <CNNscore>
0.1902920455

> <CNNaffinity>
6.2419257164

> <CNN_VS>
1.1877888441

> <CNNaffinity_variance>
1.2139767408

$$$$
[H]OC(=O)[C@@]([H])(N([H])C(=O)[C@@]([H])(N([H])C(=O)[C@@]1([H])N(C(=O)[C@@]([H])(N([H])C(=O)OC([H])([H])c2c([H])c([H])c([H])c([H])c2[H])[C@@]([H])(C([H])([H])[H])C([H])([H])C([H])([H])[H])C([H])([H])C([H])([H])C1([H])[H])C([H])([H])C([H])(C([H])([H])[H])C([H])([H])[H])C([H])([H])c1c([H])c([H])c([H])c([H])c1[H]


 49 51  0  0  0  0  0  0  0  0999 V2000
  -18.0122   13.7668  -21.5940 C   0  0  0  0  0  0  0  0  0  0  0  0
  -17.0882   12.9505  -21.7983 O   0  0  0  0  0  0  0  0  0  0  0  0
  -18.6895   13.7596  -20.3610 N   0  0  0  0  0  0  0  0  0  0  0  0
  -19.4743   14.5186  -20.3081 H   0  0  0  0  0  0  0  0  0  0  0  0
  -19.2126   16.8665  -21.5786 C   0  0  0  0  0  0  0  0  0  0  0  0
  -20.3772   16.3756  -21.4618 O   0  0  0  0  0  0  0  0  0  0  0  0
  -18.2141   16.0700  -22.1581 N   0  0  0  0  0  0  0  0  0  0  0  0
  -16.8483   16.4448  -22.3970 C   0  0  0  0  0  0  0  0  0  0  0  0
  -16.5962   15.8882  -23.7963 C   0  0  0  0  0  0  0  0  0  0  0  0
  -17.4838   14.6846  -23.8649 C   0  0  0  0  0  0  0  0  0  0  0  0
  -18.3735   14.7227  -22.6511 C   0  0  0  0  0  0  0  0  0  0  0  0
  -19.0113   18.2530  -21.0945 C   0  0  0  0  0  0  0  0  0  0  0  0
  -20.0057   19.0916  -21.7486 N   0  0  0  0  0  0  0  0  0  0  0  0
  -19.7302   19.5563  -23.0883 C   0  0  0  0  0  0  0  0  0  0  0  0
  -18.6613   19.2568  -23.6879 O   0  0  0  0  0  0  0  0  0  0  0  0
  -20.8791   19.3430  -21.2947 H   0  0  0  0  0  0  0  0  0  0  0  0
  -20.6476   20.3512  -23.7564 O   0  0  0  0  0  0  0  0  0  0  0  0
  -22.0467   20.2830  -23.5680 C   0  0  0  0  0  0  0  0  0  0  0  0
  -22.6027   19.3921  -24.6202 C   0  0  0  0  0  0  0  0  0  0  0  0
  -22.7960   18.0358  -24.3346 C   0  0  0  0  0  0  0  0  0  0  0  0
  -23.3095   17.2348  -25.3282 C   0  0  0  0  0  0  0  0  0  0  0  0
  -23.6286   17.7264  -26.5672 C   0  0  0  0  0  0  0  0  0  0  0  0
  -23.4297   19.0660  -26.8274 C   0  0  0  0  0  0  0  0  0  0  0  0
  -22.9164   19.9099  -25.8605 C   0  0  0  0  0  0  0  0  0  0  0  0
  -18.9861   18.4080  -19.6131 C   0  0  0  0  0  0  0  0  0  0  0  0
  -18.1780   17.3432  -18.8959 C   0  0  0  0  0  0  0  0  0  0  0  0
  -19.8998   20.3813  -18.3182 C   0  0  0  0  0  0  0  0  0  0  0  0
  -18.7679   19.7887  -19.0876 C   0  0  0  0  0  0  0  0  0  0  0  0
  -18.4931   12.9369  -19.2231 C   0  0  0  0  0  0  0  0  0  0  0  0
  -18.8315   13.6366  -17.9454 C   0  0  0  0  0  0  0  0  0  0  0  0
  -17.9661   13.7106  -17.0623 O   0  0  0  0  0  0  0  0  0  0  0  0
  -20.0931   14.1796  -17.7967 N   0  0  0  0  0  0  0  0  0  0  0  0
  -20.7982   14.0824  -18.5910 H   0  0  0  0  0  0  0  0  0  0  0  0
  -20.6123   14.9078  -16.6278 C   0  0  0  0  0  0  0  0  0  0  0  0
  -21.6983   14.1429  -16.0246 C   0  0  0  0  0  0  0  0  0  0  0  0
  -23.0311   14.5796  -16.1204 O   0  0  0  0  0  0  0  0  0  0  0  0
  -21.4467   13.0625  -15.3962 O   0  0  0  0  0  0  0  0  0  0  0  0
  -23.7662   13.8952  -16.0636 H   0  0  0  0  0  0  0  0  0  0  0  0
  -21.1278   16.2393  -17.1578 C   0  0  0  0  0  0  0  0  0  0  0  0
  -20.9228   17.3574  -16.2815 C   0  0  0  0  0  0  0  0  0  0  0  0
  -21.9225   18.3018  -16.0444 C   0  0  0  0  0  0  0  0  0  0  0  0
  -21.6900   19.3275  -15.1578 C   0  0  0  0  0  0  0  0  0  0  0  0
  -20.4782   19.4494  -14.4881 C   0  0  0  0  0  0  0  0  0  0  0  0
  -19.4828   18.5288  -14.7099 C   0  0  0  0  0  0  0  0  0  0  0  0
  -19.7068   17.4950  -15.5980 C   0  0  0  0  0  0  0  0  0  0  0  0
  -17.1827   12.2494  -19.1487 C   0  0  0  0  0  0  0  0  0  0  0  0
  -17.1431   10.8204  -18.7666 C   0  0  0  0  0  0  0  0  0  0  0  0
  -18.3103   10.2279  -18.0807 C   0  0  0  0  0  0  0  0  0  0  0  0
  -16.8636   10.0136  -20.0427 C   0  0  0  0  0  0  0  0  0  0  0  0
 27 28  1  0  0  0
 28 25  1  0  0  0
 25 26  1  0  0  0
 25 12  1  0  0  0
 12 13  1  0  0  0
 13 14  1  0  0  0
 14 15  2  0  0  0
 14 17  1  0  0  0
 17 18  1  0  0  0
 18 19  1  0  0  0
 19 20  2  0  0  0
 20 21  1  0  0  0
 21 22  2  0  0  0
 22 23  1  0  0  0
 23 24  2  0  0  0
 12  5  1  0  0  0
  5  6  2  0  0  0
  5  7  1  0  0  0
  7  8  1  0  0  0
  8  9  1  0  0  0
  9 10  1  0  0  0
 10 11  1  0  0  0
 11  1  1  0  0  0
  1  2  2  0  0  0
  1  3  1  0  0  0
  3 29  1  0  0  0
 29 46  1  0  0  0
 46 47  1  0  0  0
 47 48  1  0  0  0
 47 49  1  0  0  0
 29 30  1  0  0  0
 30 31  2  0  0  0
 30 32  1  0  0  0
 32 34  1  0  0  0
 34 39  1  0  0  0
 39 40  1  0  0  0
 40 41  2  0  0  0
 41 42  1  0  0  0
 42 43  2  0  0  0
 43 44  1  0  0  0
 44 45  2  0  0  0
 34 35  1  0  0  0
 35 36  1  0  0  0
 35 37  2  0  0  0
 24 19  1  0  0  0
 11  7  1  0  0  0
 45 40  1  0  0  0
 13 16  1  0  0  0
  3  4  1  0  0  0
 32 33  1  0  0  0
 36 38  1  0  0  0
M  END
> <minimizedAffinity>
-7.63412

> <CNNscore>
0.1891127080

> <CNNaffinity>
6.5605139732

> <CNN_VS>
1.2406765223

> <CNNaffinity_variance>
0.7592676878

$$$$
[H]OC(=O)[C@@]([H])(N([H])C(=O)[C@@]([H])(N([H])C(=O)[C@@]1([H])N(C(=O)[C@@]([H])(N([H])C(=O)OC([H])([H])c2c([H])c([H])c([H])c([H])c2[H])[C@@]([H])(C([H])([H])[H])C([H])([H])C([H])([H])[H])C([H])([H])C([H])([H])C1([H])[H])C([H])([H])C([H])(C([H])([H])[H])C([H])([H])[H])C([H])([H])c1c([H])c([H])c([H])c([H])c1[H]


 49 51  0  0  0  0  0  0  0  0999 V2000
  -20.4683   14.1917  -18.8959 C   0  0  0  0  0  0  0  0  0  0  0  0
  -21.2706   13.6714  -19.7007 O   0  0  0  0  0  0  0  0  0  0  0  0
  -19.3712   13.4474  -18.4252 N   0  0  0  0  0  0  0  0  0  0  0  0
  -18.7476   14.0132  -17.7283 H   0  0  0  0  0  0  0  0  0  0  0  0
  -18.6264   16.9567  -19.0006 C   0  0  0  0  0  0  0  0  0  0  0  0
  -18.0665   16.5804  -17.9255 O   0  0  0  0  0  0  0  0  0  0  0  0
  -19.9131   16.4736  -19.2805 N   0  0  0  0  0  0  0  0  0  0  0  0
  -20.7196   16.7935  -20.4251 C   0  0  0  0  0  0  0  0  0  0  0  0
  -22.1006   16.9957  -19.8061 C   0  0  0  0  0  0  0  0  0  0  0  0
  -22.0989   16.0749  -18.6257 C   0  0  0  0  0  0  0  0  0  0  0  0
  -20.6882   15.5773  -18.4563 C   0  0  0  0  0  0  0  0  0  0  0  0
  -17.8668   17.8875  -19.8689 C   0  0  0  0  0  0  0  0  0  0  0  0
  -17.8101   17.2953  -21.1978 N   0  0  0  0  0  0  0  0  0  0  0  0
  -16.5294   17.2358  -21.8633 C   0  0  0  0  0  0  0  0  0  0  0  0
  -15.4801   17.6834  -21.3243 O   0  0  0  0  0  0  0  0  0  0  0  0
  -18.6362   16.9193  -21.6542 H   0  0  0  0  0  0  0  0  0  0  0  0
  -16.4215   16.6758  -23.1261 O   0  0  0  0  0  0  0  0  0  0  0  0
  -15.8068   15.4321  -23.3957 C   0  0  0  0  0  0  0  0  0  0  0  0
  -16.0772   15.0916  -24.8173 C   0  0  0  0  0  0  0  0  0  0  0  0
  -16.7919   13.9262  -25.1164 C   0  0  0  0  0  0  0  0  0  0  0  0
  -17.0249   13.6351  -26.4406 C   0  0  0  0  0  0  0  0  0  0  0  0
  -16.5803   14.4451  -27.4529 C   0  0  0  0  0  0  0  0  0  0  0  0
  -15.8775   15.5884  -27.1358 C   0  0  0  0  0  0  0  0  0  0  0  0
  -15.6192   15.9225  -25.8196 C   0  0  0  0  0  0  0  0  0  0  0  0
  -18.3551   19.2948  -19.8666 C   0  0  0  0  0  0  0  0  0  0  0  0
  -18.9561   19.7406  -21.1862 C   0  0  0  0  0  0  0  0  0  0  0  0
  -20.4501   20.3760  -18.9460 C   0  0  0  0  0  0  0  0  0  0  0  0
  -19.1338   19.7317  -18.6696 C   0  0  0  0  0  0  0  0  0  0  0  0
  -18.9802   12.1184  -18.7272 C   0  0  0  0  0  0  0  0  0  0  0  0
  -19.2634   11.1697  -17.6063 C   0  0  0  0  0  0  0  0  0  0  0  0
  -18.5905   10.1332  -17.5221 O   0  0  0  0  0  0  0  0  0  0  0  0
  -20.2601   11.4840  -16.7028 N   0  0  0  0  0  0  0  0  0  0  0  0
  -20.8086   12.3901  -16.8276 H   0  0  0  0  0  0  0  0  0  0  0  0
  -20.6813   10.6909  -15.5367 C   0  0  0  0  0  0  0  0  0  0  0  0
  -22.1221   10.8285  -15.3530 C   0  0  0  0  0  0  0  0  0  0  0  0
  -22.7262   12.0966  -15.2950 O   0  0  0  0  0  0  0  0  0  0  0  0
  -22.8538    9.7907  -15.2392 O   0  0  0  0  0  0  0  0  0  0  0  0
  -23.6932   12.1806  -15.5596 H   0  0  0  0  0  0  0  0  0  0  0  0
  -19.9336   11.2701  -14.3429 C   0  0  0  0  0  0  0  0  0  0  0  0
  -19.5643   10.3121  -13.3400 C   0  0  0  0  0  0  0  0  0  0  0  0
  -19.1851    9.0097  -13.6680 C   0  0  0  0  0  0  0  0  0  0  0  0
  -18.7939    8.1458  -12.6716 C   0  0  0  0  0  0  0  0  0  0  0  0
  -18.7668    8.5378  -11.3383 C   0  0  0  0  0  0  0  0  0  0  0  0
  -19.1373    9.8161  -10.9974 C   0  0  0  0  0  0  0  0  0  0  0  0
  -19.5312   10.6910  -11.9909 C   0  0  0  0  0  0  0  0  0  0  0  0
  -17.6044   11.9599  -19.2538 C   0  0  0  0  0  0  0  0  0  0  0  0
  -17.4162   11.4116  -20.6152 C   0  0  0  0  0  0  0  0  0  0  0  0
  -17.1460   12.3406  -21.7324 C   0  0  0  0  0  0  0  0  0  0  0  0
  -16.2737   10.3885  -20.5421 C   0  0  0  0  0  0  0  0  0  0  0  0
 27 28  1  0  0  0
 28 25  1  0  0  0
 25 26  1  0  0  0
 25 12  1  0  0  0
 12 13  1  0  0  0
 13 14  1  0  0  0
 14 15  2  0  0  0
 14 17  1  0  0  0
 17 18  1  0  0  0
 18 19  1  0  0  0
 19 20  2  0  0  0
 20 21  1  0  0  0
 21 22  2  0  0  0
 22 23  1  0  0  0
 23 24  2  0  0  0
 12  5  1  0  0  0
  5  6  2  0  0  0
  5  7  1  0  0  0
  7  8  1  0  0  0
  8  9  1  0  0  0
  9 10  1  0  0  0
 10 11  1  0  0  0
 11  1  1  0  0  0
  1  2  2  0  0  0
  1  3  1  0  0  0
  3 29  1  0  0  0
 29 46  1  0  0  0
 46 47  1  0  0  0
 47 48  1  0  0  0
 47 49  1  0  0  0
 29 30  1  0  0  0
 30 31  2  0  0  0
 30 32  1  0  0  0
 32 34  1  0  0  0
 34 39  1  0  0  0
 39 40  1  0  0  0
 40 41  2  0  0  0
 41 42  1  0  0  0
 42 43  2  0  0  0
 43 44  1  0  0  0
 44 45  2  0  0  0
 34 35  1  0  0  0
 35 36  1  0  0  0
 35 37  2  0  0  0
 24 19  1  0  0  0
 11  7  1  0  0  0
 45 40  1  0  0  0
 13 16  1  0  0  0
  3  4  1  0  0  0
 32 33  1  0  0  0
 36 38  1  0  0  0
M  END
> <minimizedAffinity>
-7.98585

> <CNNscore>
0.1495245397

> <CNNaffinity>
6.6734342575

> <CNN_VS>
0.9978421926

> <CNNaffinity_variance>
0.3515048027

$$$$
[H]OC(=O)[C@@]([H])(N([H])C(=O)[C@@]([H])(N([H])C(=O)[C@@]1([H])N(C(=O)[C@@]([H])(N([H])C(=O)OC([H])([H])c2c([H])c([H])c([H])c([H])c2[H])[C@@]([H])(C([H])([H])[H])C([H])([H])C([H])([H])[H])C([H])([H])C([H])([H])C1([H])[H])C([H])([H])C([H])(C([H])([H])[H])C([H])([H])[H])C([H])([H])c1c([H])c([H])c([H])c([H])c1[H]


 49 51  0  0  0  0  0  0  0  0999 V2000
  -21.1156   13.9477  -16.2577 C   0  0  0  0  0  0  0  0  0  0  0  0
  -22.2301   14.3494  -15.8598 O   0  0  0  0  0  0  0  0  0  0  0  0
  -20.5694   12.7655  -15.7256 N   0  0  0  0  0  0  0  0  0  0  0  0
  -19.5933   12.5236  -16.1537 H   0  0  0  0  0  0  0  0  0  0  0  0
  -18.5274   13.2933  -18.2382 C   0  0  0  0  0  0  0  0  0  0  0  0
  -17.7598   13.6193  -17.2813 O   0  0  0  0  0  0  0  0  0  0  0  0
  -19.8262   13.8226  -18.2541 N   0  0  0  0  0  0  0  0  0  0  0  0
  -20.8336   13.5947  -19.2522 C   0  0  0  0  0  0  0  0  0  0  0  0
  -21.4220   14.9899  -19.4476 C   0  0  0  0  0  0  0  0  0  0  0  0
  -21.2625   15.6337  -18.1055 C   0  0  0  0  0  0  0  0  0  0  0  0
  -20.3953   14.7221  -17.2791 C   0  0  0  0  0  0  0  0  0  0  0  0
  -17.9754   12.3798  -19.2669 C   0  0  0  0  0  0  0  0  0  0  0  0
  -17.2106   13.1903  -20.2039 N   0  0  0  0  0  0  0  0  0  0  0  0
  -17.4237   12.9815  -21.6173 C   0  0  0  0  0  0  0  0  0  0  0  0
  -18.2428   12.1224  -22.0450 O   0  0  0  0  0  0  0  0  0  0  0  0
  -16.5498   13.8952  -19.8899 H   0  0  0  0  0  0  0  0  0  0  0  0
  -16.7254   13.7320  -22.5494 O   0  0  0  0  0  0  0  0  0  0  0  0
  -15.6288   13.2501  -23.2996 C   0  0  0  0  0  0  0  0  0  0  0  0
  -15.5716   14.0245  -24.5672 C   0  0  0  0  0  0  0  0  0  0  0  0
  -14.4691   14.8504  -24.8138 C   0  0  0  0  0  0  0  0  0  0  0  0
  -14.4444   15.5571  -25.9938 C   0  0  0  0  0  0  0  0  0  0  0  0
  -15.4565   15.4723  -26.9142 C   0  0  0  0  0  0  0  0  0  0  0  0
  -16.5338   14.6527  -26.6509 C   0  0  0  0  0  0  0  0  0  0  0  0
  -16.6027   13.9230  -25.4790 C   0  0  0  0  0  0  0  0  0  0  0  0
  -17.2172   11.2131  -18.7350 C   0  0  0  0  0  0  0  0  0  0  0  0
  -18.0968   10.0922  -18.2143 C   0  0  0  0  0  0  0  0  0  0  0  0
  -16.3577    9.7148  -20.5848 C   0  0  0  0  0  0  0  0  0  0  0  0
  -16.0557   10.7424  -19.5470 C   0  0  0  0  0  0  0  0  0  0  0  0
  -21.0982   11.8799  -14.7527 C   0  0  0  0  0  0  0  0  0  0  0  0
  -20.0470   11.0126  -14.1366 C   0  0  0  0  0  0  0  0  0  0  0  0
  -19.0518   11.5526  -13.6344 O   0  0  0  0  0  0  0  0  0  0  0  0
  -20.2245    9.6426  -14.1442 N   0  0  0  0  0  0  0  0  0  0  0  0
  -21.1012    9.2342  -14.5939 H   0  0  0  0  0  0  0  0  0  0  0  0
  -19.3159    8.6282  -13.5860 C   0  0  0  0  0  0  0  0  0  0  0  0
  -19.4793    7.3771  -14.3184 C   0  0  0  0  0  0  0  0  0  0  0  0
  -19.3658    6.1368  -13.6663 O   0  0  0  0  0  0  0  0  0  0  0  0
  -19.7257    7.3963  -15.5692 O   0  0  0  0  0  0  0  0  0  0  0  0
  -19.8468    5.3436  -14.0556 H   0  0  0  0  0  0  0  0  0  0  0  0
  -19.7272    8.4519  -12.1303 C   0  0  0  0  0  0  0  0  0  0  0  0
  -18.7244    8.8194  -11.1715 C   0  0  0  0  0  0  0  0  0  0  0  0
  -18.7202   10.0694  -10.5508 C   0  0  0  0  0  0  0  0  0  0  0  0
  -17.7643   10.3529   -9.6032 C   0  0  0  0  0  0  0  0  0  0  0  0
  -16.7960    9.4220   -9.2456 C   0  0  0  0  0  0  0  0  0  0  0  0
  -16.7850    8.1867   -9.8469 C   0  0  0  0  0  0  0  0  0  0  0  0
  -17.7411    7.8924  -10.7993 C   0  0  0  0  0  0  0  0  0  0  0  0
  -22.2841   11.0987  -15.1754 C   0  0  0  0  0  0  0  0  0  0  0  0
  -23.5370   11.2195  -14.3976 C   0  0  0  0  0  0  0  0  0  0  0  0
  -24.1826    9.9944  -13.8812 C   0  0  0  0  0  0  0  0  0  0  0  0
  -23.2529   12.1582  -13.2162 C   0  0  0  0  0  0  0  0  0  0  0  0
 27 28  1  0  0  0
 28 25  1  0  0  0
 25 26  1  0  0  0
 25 12  1  0  0  0
 12 13  1  0  0  0
 13 14  1  0  0  0
 14 15  2  0  0  0
 14 17  1  0  0  0
 17 18  1  0  0  0
 18 19  1  0  0  0
 19 20  2  0  0  0
 20 21  1  0  0  0
 21 22  2  0  0  0
 22 23  1  0  0  0
 23 24  2  0  0  0
 12  5  1  0  0  0
  5  6  2  0  0  0
  5  7  1  0  0  0
  7  8  1  0  0  0
  8  9  1  0  0  0
  9 10  1  0  0  0
 10 11  1  0  0  0
 11  1  1  0  0  0
  1  2  2  0  0  0
  1  3  1  0  0  0
  3 29  1  0  0  0
 29 46  1  0  0  0
 46 47  1  0  0  0
 47 48  1  0  0  0
 47 49  1  0  0  0
 29 30  1  0  0  0
 30 31  2  0  0  0
 30 32  1  0  0  0
 32 34  1  0  0  0
 34 39  1  0  0  0
 39 40  1  0  0  0
 40 41  2  0  0  0
 41 42  1  0  0  0
 42 43  2  0  0  0
 43 44  1  0  0  0
 44 45  2  0  0  0
 34 35  1  0  0  0
 35 36  1  0  0  0
 35 37  2  0  0  0
 24 19  1  0  0  0
 11  7  1  0  0  0
 45 40  1  0  0  0
 13 16  1  0  0  0
  3  4  1  0  0  0
 32 33  1  0  0  0
 36 38  1  0  0  0
M  END
> <minimizedAffinity>
-8.35046

> <CNNscore>
0.1426242441

> <CNNaffinity>
6.4156241417

> <CNN_VS>
0.9150235653

> <CNNaffinity_variance>
0.4593290389

$$$$
[H]OC(=O)[C@@]([H])(N([H])C(=O)[C@@]([H])(N([H])C(=O)[C@@]1([H])N(C(=O)[C@@]([H])(N([H])C(=O)OC([H])([H])c2c([H])c([H])c([H])c([H])c2[H])[C@@]([H])(C([H])([H])[H])C([H])([H])C([H])([H])[H])C([H])([H])C([H])([H])C1([H])[H])C([H])([H])C([H])(C([H])([H])[H])C([H])([H])[H])C([H])([H])c1c([H])c([H])c([H])c([H])c1[H]


 49 51  0  0  0  0  0  0  0  0999 V2000
  -19.1401   15.6780  -17.5156 C   0  0  0  0  0  0  0  0  0  0  0  0
  -18.6621   14.5988  -17.1047 O   0  0  0  0  0  0  0  0  0  0  0  0
  -18.7500   16.1810  -18.7702 N   0  0  0  0  0  0  0  0  0  0  0  0
  -19.2368   17.1291  -19.0127 H   0  0  0  0  0  0  0  0  0  0  0  0
  -20.8902   18.4756  -17.9155 C   0  0  0  0  0  0  0  0  0  0  0  0
  -19.8758   19.1241  -17.5138 O   0  0  0  0  0  0  0  0  0  0  0  0
  -21.0201   17.1372  -17.5167 N   0  0  0  0  0  0  0  0  0  0  0  0
  -22.0968   16.2448  -17.8444 C   0  0  0  0  0  0  0  0  0  0  0  0
  -22.3548   15.5410  -16.5143 C   0  0  0  0  0  0  0  0  0  0  0  0
  -21.0105   15.5229  -15.8555 C   0  0  0  0  0  0  0  0  0  0  0  0
  -20.1053   16.4026  -16.6759 C   0  0  0  0  0  0  0  0  0  0  0  0
  -21.8598   19.1992  -18.7720 C   0  0  0  0  0  0  0  0  0  0  0  0
  -22.0513   18.4070  -19.9785 N   0  0  0  0  0  0  0  0  0  0  0  0
  -21.8038   19.0378  -21.2542 C   0  0  0  0  0  0  0  0  0  0  0  0
  -21.4356   20.2417  -21.3389 O   0  0  0  0  0  0  0  0  0  0  0  0
  -22.3393   17.4335  -19.9421 H   0  0  0  0  0  0  0  0  0  0  0  0
  -21.9652   18.3248  -22.4312 O   0  0  0  0  0  0  0  0  0  0  0  0
  -23.2112   17.8801  -22.9284 C   0  0  0  0  0  0  0  0  0  0  0  0
  -23.2685   18.2177  -24.3750 C   0  0  0  0  0  0  0  0  0  0  0  0
  -23.1045   19.5494  -24.7726 C   0  0  0  0  0  0  0  0  0  0  0  0
  -23.1649   19.8326  -26.1174 C   0  0  0  0  0  0  0  0  0  0  0  0
  -23.3792   18.8583  -27.0574 C   0  0  0  0  0  0  0  0  0  0  0  0
  -23.5387   17.5526  -26.6437 C   0  0  0  0  0  0  0  0  0  0  0  0
  -23.4855   17.2196  -25.3032 C   0  0  0  0  0  0  0  0  0  0  0  0
  -23.1353   19.5778  -18.1020 C   0  0  0  0  0  0  0  0  0  0  0  0
  -23.1510   20.9958  -17.5633 C   0  0  0  0  0  0  0  0  0  0  0  0
  -25.1972   18.1103  -18.1264 C   0  0  0  0  0  0  0  0  0  0  0  0
  -24.3984   19.1794  -18.7920 C   0  0  0  0  0  0  0  0  0  0  0  0
  -17.8514   15.6405  -19.7245 C   0  0  0  0  0  0  0  0  0  0  0  0
  -17.2835   16.6849  -20.6319 C   0  0  0  0  0  0  0  0  0  0  0  0
  -16.2546   17.2790  -20.2819 O   0  0  0  0  0  0  0  0  0  0  0  0
  -17.9220   16.9468  -21.8287 N   0  0  0  0  0  0  0  0  0  0  0  0
  -18.8069   16.4050  -22.0757 H   0  0  0  0  0  0  0  0  0  0  0  0
  -17.5187   17.9236  -22.8531 C   0  0  0  0  0  0  0  0  0  0  0  0
  -18.4086   19.0783  -22.7973 C   0  0  0  0  0  0  0  0  0  0  0  0
  -18.4871   19.8763  -21.6426 O   0  0  0  0  0  0  0  0  0  0  0  0
  -19.1330   19.3760  -23.8034 O   0  0  0  0  0  0  0  0  0  0  0  0
  -18.7714   20.8363  -21.7404 H   0  0  0  0  0  0  0  0  0  0  0  0
  -17.6550   17.2091  -24.1912 C   0  0  0  0  0  0  0  0  0  0  0  0
  -16.7554   16.1068  -24.3806 C   0  0  0  0  0  0  0  0  0  0  0  0
  -15.4169   16.1716  -23.9908 C   0  0  0  0  0  0  0  0  0  0  0  0
  -14.6097   15.0694  -24.1510 C   0  0  0  0  0  0  0  0  0  0  0  0
  -15.0946   13.8856  -24.6947 C   0  0  0  0  0  0  0  0  0  0  0  0
  -16.4096   13.8044  -25.0843 C   0  0  0  0  0  0  0  0  0  0  0  0
  -17.2282   14.9057  -24.9271 C   0  0  0  0  0  0  0  0  0  0  0  0
  -18.3470   14.4633  -20.4755 C   0  0  0  0  0  0  0  0  0  0  0  0
  -17.6038   13.1873  -20.3808 C   0  0  0  0  0  0  0  0  0  0  0  0
  -18.1796   12.0776  -19.5928 C   0  0  0  0  0  0  0  0  0  0  0  0
  -17.3582   12.6940  -21.8140 C   0  0  0  0  0  0  0  0  0  0  0  0
 27 28  1  0  0  0
 28 25  1  0  0  0
 25 26  1  0  0  0
 25 12  1  0  0  0
 12 13  1  0  0  0
 13 14  1  0  0  0
 14 15  2  0  0  0
 14 17  1  0  0  0
 17 18  1  0  0  0
 18 19  1  0  0  0
 19 20  2  0  0  0
 20 21  1  0  0  0
 21 22  2  0  0  0
 22 23  1  0  0  0
 23 24  2  0  0  0
 12  5  1  0  0  0
  5  6  2  0  0  0
  5  7  1  0  0  0
  7  8  1  0  0  0
  8  9  1  0  0  0
  9 10  1  0  0  0
 10 11  1  0  0  0
 11  1  1  0  0  0
  1  2  2  0  0  0
  1  3  1  0  0  0
  3 29  1  0  0  0
 29 46  1  0  0  0
 46 47  1  0  0  0
 47 48  1  0  0  0
 47 49  1  0  0  0
 29 30  1  0  0  0
 30 31  2  0  0  0
 30 32  1  0  0  0
 32 34  1  0  0  0
 34 39  1  0  0  0
 39 40  1  0  0  0
 40 41  2  0  0  0
 41 42  1  0  0  0
 42 43  2  0  0  0
 43 44  1  0  0  0
 44 45  2  0  0  0
 34 35  1  0  0  0
 35 36  1  0  0  0
 35 37  2  0  0  0
 24 19  1  0  0  0
 11  7  1  0  0  0
 45 40  1  0  0  0
 13 16  1  0  0  0
  3  4  1  0  0  0
 32 33  1  0  0  0
 36 38  1  0  0  0
M  END
> <minimizedAffinity>
-7.57080

> <CNNscore>
0.1142619774

> <CNNaffinity>
6.3567395210

> <CNN_VS>
0.7263336182

> <CNNaffinity_variance>
0.7673732638

$$$$
[H]N=C(N([H])[H])N([H])C([H])([H])C([H])([H])C([H])([H])[C@@]1([H])C(=O)N2C([H])([H])C([H])([H])C([H])([H])[C@@]2([H])C(=O)N([H])[C@]([H])(C([H])([H])c2c([H])c([H])c([H])c([H])c2[H])C(=O)N([H])[C@@]([H])([C@@]([H])(C([H])([H])[H])C([H])([H])C([H])([H])[H])C(=O)N([H])[C@@]([H])(C([H])([H])C([H])([H])C(=O)N([H])[H])C(=O)N1[H]


 56 58  0  0  0  0  0  0  0  0999 V2000
  -18.7527   14.0157  -21.2096 C   0  0  0  0  0  0  0  0  0  0  0  0
  -20.1448   14.2073  -20.8711 N   0  0  0  0  0  0  0  0  0  0  0  0
  -20.9588   13.6633  -19.9195 C   0  0  0  0  0  0  0  0  0  0  0  0
  -22.0066   13.0351  -20.3966 O   0  0  0  0  0  0  0  0  0  0  0  0
  -20.9246   13.6245  -18.4373 C   0  0  0  0  0  0  0  0  0  0  0  0
  -22.0938   14.2389  -17.8736 N   0  0  0  0  0  0  0  0  0  0  0  0
  -22.3263   15.5229  -17.3697 C   0  0  0  0  0  0  0  0  0  0  0  0
  -23.0478   15.5782  -16.2911 O   0  0  0  0  0  0  0  0  0  0  0  0
  -21.8854   16.8388  -17.8618 C   0  0  0  0  0  0  0  0  0  0  0  0
  -22.0793   17.9159  -16.7987 C   0  0  0  0  0  0  0  0  0  0  0  0
  -23.5468   18.1801  -16.8331 C   0  0  0  0  0  0  0  0  0  0  0  0
  -23.9736   17.7481  -18.2178 C   0  0  0  0  0  0  0  0  0  0  0  0
  -22.7064   17.4205  -18.9058 N   0  0  0  0  0  0  0  0  0  0  0  0
  -22.3130   17.6140  -20.2464 C   0  0  0  0  0  0  0  0  0  0  0  0
  -23.2323   17.4523  -21.1240 O   0  0  0  0  0  0  0  0  0  0  0  0
  -20.9330   17.9838  -20.6995 C   0  0  0  0  0  0  0  0  0  0  0  0
  -20.7495   17.8326  -22.1141 N   0  0  0  0  0  0  0  0  0  0  0  0
  -19.4957   17.6828  -22.7496 C   0  0  0  0  0  0  0  0  0  0  0  0
  -19.3984   18.0171  -23.9552 O   0  0  0  0  0  0  0  0  0  0  0  0
  -18.2718   17.1511  -22.0798 C   0  0  0  0  0  0  0  0  0  0  0  0
  -17.8825   15.9173  -22.7130 N   0  0  0  0  0  0  0  0  0  0  0  0
  -18.4339   14.6399  -22.5289 C   0  0  0  0  0  0  0  0  0  0  0  0
  -18.6822   13.9554  -23.5897 O   0  0  0  0  0  0  0  0  0  0  0  0
  -20.6196   14.9322  -21.5353 H   0  0  0  0  0  0  0  0  0  0  0  0
  -22.9580   13.5734  -17.8464 H   0  0  0  0  0  0  0  0  0  0  0  0
  -21.6239   17.8277  -22.7177 H   0  0  0  0  0  0  0  0  0  0  0  0
  -17.0765   15.9911  -23.4173 H   0  0  0  0  0  0  0  0  0  0  0  0
  -18.3350   12.5501  -21.2400 C   0  0  0  0  0  0  0  0  0  0  0  0
  -19.4271   11.6040  -21.5780 C   0  0  0  0  0  0  0  0  0  0  0  0
  -16.1949   11.3260  -21.6752 C   0  0  0  0  0  0  0  0  0  0  0  0
  -17.1124   12.4291  -22.1307 C   0  0  0  0  0  0  0  0  0  0  0  0
  -19.6176   13.8671  -17.7991 C   0  0  0  0  0  0  0  0  0  0  0  0
  -18.6087   12.8160  -17.8950 C   0  0  0  0  0  0  0  0  0  0  0  0
  -18.9274   11.4957  -17.7909 C   0  0  0  0  0  0  0  0  0  0  0  0
  -18.0193   10.4572  -17.8941 C   0  0  0  0  0  0  0  0  0  0  0  0
  -16.7053   10.8097  -18.1171 C   0  0  0  0  0  0  0  0  0  0  0  0
  -16.3448   12.1437  -18.2278 C   0  0  0  0  0  0  0  0  0  0  0  0
  -17.2675   13.1569  -18.1218 C   0  0  0  0  0  0  0  0  0  0  0  0
  -20.4120   19.2375  -20.0982 C   0  0  0  0  0  0  0  0  0  0  0  0
  -19.0600   19.2504  -19.5204 C   0  0  0  0  0  0  0  0  0  0  0  0
  -18.7405   18.0672  -18.6408 C   0  0  0  0  0  0  0  0  0  0  0  0
  -18.7229   18.4617  -17.2315 N   0  0  0  0  0  0  0  0  0  0  0  0
  -18.7277   19.4531  -16.9837 H   0  0  0  0  0  0  0  0  0  0  0  0
  -18.7010   17.4354  -16.2598 C   0  0  0  0  0  0  0  0  0  0  0  0
  -19.3112   17.6373  -14.9728 N   0  0  0  0  0  0  0  0  0  0  0  0
  -18.1491   16.2980  -16.4715 N   0  0  0  0  0  0  0  0  0  0  0  0
  -20.3417   17.7334  -14.9332 H   0  0  0  0  0  0  0  0  0  0  0  0
  -18.7499   17.6884  -14.0952 H   0  0  0  0  0  0  0  0  0  0  0  0
  -18.1278   15.5367  -15.7626 H   0  0  0  0  0  0  0  0  0  0  0  0
  -17.1540   18.1677  -22.3671 C   0  0  0  0  0  0  0  0  0  0  0  0
  -15.8998   17.5375  -22.8613 C   0  0  0  0  0  0  0  0  0  0  0  0
  -15.9807   17.3680  -24.3296 C   0  0  0  0  0  0  0  0  0  0  0  0
  -15.0221   16.6168  -25.0400 N   0  0  0  0  0  0  0  0  0  0  0  0
  -16.9250   17.9059  -24.9515 O   0  0  0  0  0  0  0  0  0  0  0  0
  -14.9252   15.6050  -24.9044 H   0  0  0  0  0  0  0  0  0  0  0  0
  -14.3950   17.1016  -25.7234 H   0  0  0  0  0  0  0  0  0  0  0  0
 30 31  1  0  0  0
 31 28  1  0  0  0
 28 29  1  0  0  0
 28  1  1  0  0  0
  1  2  1  0  0  0
  2  3  1  0  0  0
  3  4  2  0  0  0
  3  5  1  0  0  0
  5 32  1  0  0  0
 32 33  1  0  0  0
 33 34  2  0  0  0
 34 35  1  0  0  0
 35 36  2  0  0  0
 36 37  1  0  0  0
 37 38  2  0  0  0
  5  6  1  0  0  0
  6  7  1  0  0  0
  7  8  2  0  0  0
  7  9  1  0  0  0
  9 10  1  0  0  0
 10 11  1  0  0  0
 11 12  1  0  0  0
 12 13  1  0  0  0
 13 14  1  0  0  0
 14 15  2  0  0  0
 14 16  1  0  0  0
 16 39  1  0  0  0
 39 40  1  0  0  0
 40 41  1  0  0  0
 41 42  1  0  0  0
 42 44  1  0  0  0
 44 45  1  0  0  0
 44 46  2  0  0  0
 16 17  1  0  0  0
 17 18  1  0  0  0
 18 19  2  0  0  0
 18 20  1  0  0  0
 20 50  1  0  0  0
 50 51  1  0  0  0
 51 52  1  0  0  0
 52 53  1  0  0  0
 52 54  2  0  0  0
 20 21  1  0  0  0
 21 22  1  0  0  0
 22 23  2  0  0  0
 22  1  1  0  0  0
 38 33  1  0  0  0
 13  9  1  0  0  0
  2 24  1  0  0  0
  6 25  1  0  0  0
 42 43  1  0  0  0
 45 47  1  0  0  0
 45 48  1  0  0  0
 46 49  1  0  0  0
 17 26  1  0  0  0
 53 55  1  0  0  0
 53 56  1  0  0  0
 21 27  1  0  0  0
M  END
> <minimizedAffinity>
-2.09815

> <CNNscore>
0.4337684810

> <CNNaffinity>
7.0530800819

> <CNN_VS>
3.0594038963

> <CNNaffinity_variance>
0.4370566905

$$$$
[H]N=C(N([H])[H])N([H])C([H])([H])C([H])([H])C([H])([H])[C@@]1([H])C(=O)N2C([H])([H])C([H])([H])C([H])([H])[C@@]2([H])C(=O)N([H])[C@]([H])(C([H])([H])c2c([H])c([H])c([H])c([H])c2[H])C(=O)N([H])[C@@]([H])([C@@]([H])(C([H])([H])[H])C([H])([H])C([H])([H])[H])C(=O)N([H])[C@@]([H])(C([H])([H])C([H])([H])C(=O)N([H])[H])C(=O)N1[H]


 56 58  0  0  0  0  0  0  0  0999 V2000
  -20.4476   11.8125  -15.9980 C   0  0  0  0  0  0  0  0  0  0  0  0
  -21.8014   11.9863  -15.5224 N   0  0  0  0  0  0  0  0  0  0  0  0
  -22.4954   11.4673  -14.4674 C   0  0  0  0  0  0  0  0  0  0  0  0
  -23.5692   10.7932  -14.8031 O   0  0  0  0  0  0  0  0  0  0  0  0
  -22.3049   11.4972  -12.9969 C   0  0  0  0  0  0  0  0  0  0  0  0
  -23.4255   12.1089  -12.3393 N   0  0  0  0  0  0  0  0  0  0  0  0
  -23.6403   13.4087  -11.8694 C   0  0  0  0  0  0  0  0  0  0  0  0
  -24.2461   13.4962  -10.7238 O   0  0  0  0  0  0  0  0  0  0  0  0
  -23.2911   14.7108  -12.4617 C   0  0  0  0  0  0  0  0  0  0  0  0
  -23.4031   15.8306  -11.4314 C   0  0  0  0  0  0  0  0  0  0  0  0
  -24.8730   16.0580  -11.3213 C   0  0  0  0  0  0  0  0  0  0  0  0
  -25.4302   15.5530  -12.6331 C   0  0  0  0  0  0  0  0  0  0  0  0
  -24.2333   15.2244  -13.4368 N   0  0  0  0  0  0  0  0  0  0  0  0
  -23.9882   15.3655  -14.8187 C   0  0  0  0  0  0  0  0  0  0  0  0
  -24.9895   15.1421  -15.5860 O   0  0  0  0  0  0  0  0  0  0  0  0
  -22.6744   15.7469  -15.4310 C   0  0  0  0  0  0  0  0  0  0  0  0
  -22.6361   15.5354  -16.8492 N   0  0  0  0  0  0  0  0  0  0  0  0
  -21.4521   15.3865  -17.6071 C   0  0  0  0  0  0  0  0  0  0  0  0
  -21.4912   15.6674  -18.8294 O   0  0  0  0  0  0  0  0  0  0  0  0
  -20.1500   14.9153  -17.0485 C   0  0  0  0  0  0  0  0  0  0  0  0
  -19.7943   13.6633  -17.6657 N   0  0  0  0  0  0  0  0  0  0  0  0
  -20.2868   12.3829  -17.3693 C   0  0  0  0  0  0  0  0  0  0  0  0
  -20.6254   11.6448  -18.3673 O   0  0  0  0  0  0  0  0  0  0  0  0
  -22.3637   12.6685  -16.1631 H   0  0  0  0  0  0  0  0  0  0  0  0
  -24.2629   11.4250  -12.1921 H   0  0  0  0  0  0  0  0  0  0  0  0
  -23.5684   15.4821  -17.3560 H   0  0  0  0  0  0  0  0  0  0  0  0
  -19.0690   13.7238  -18.4539 H   0  0  0  0  0  0  0  0  0  0  0  0
  -19.9938   10.3574  -16.0093 C   0  0  0  0  0  0  0  0  0  0  0  0
  -19.0912   10.0012  -17.1320 C   0  0  0  0  0  0  0  0  0  0  0  0
  -19.1096    8.5661  -14.5001 C   0  0  0  0  0  0  0  0  0  0  0  0
  -19.4351   10.0296  -14.6371 C   0  0  0  0  0  0  0  0  0  0  0  0
  -20.9457   11.7998  -12.5118 C   0  0  0  0  0  0  0  0  0  0  0  0
  -20.5126   11.1717  -11.2668 C   0  0  0  0  0  0  0  0  0  0  0  0
  -21.2082   11.3145  -10.1043 C   0  0  0  0  0  0  0  0  0  0  0  0
  -20.8584   10.7274   -8.9015 C   0  0  0  0  0  0  0  0  0  0  0  0
  -19.7208    9.9485   -8.9058 C   0  0  0  0  0  0  0  0  0  0  0  0
  -18.9880    9.7815  -10.0705 C   0  0  0  0  0  0  0  0  0  0  0  0
  -19.3581   10.3759  -11.2533 C   0  0  0  0  0  0  0  0  0  0  0  0
  -22.1292   17.0389  -14.9428 C   0  0  0  0  0  0  0  0  0  0  0  0
  -23.0023   18.2214  -14.9099 C   0  0  0  0  0  0  0  0  0  0  0  0
  -22.6095   19.3202  -15.8661 C   0  0  0  0  0  0  0  0  0  0  0  0
  -23.6826   19.5753  -16.8281 N   0  0  0  0  0  0  0  0  0  0  0  0
  -24.0380   20.5258  -16.9492 H   0  0  0  0  0  0  0  0  0  0  0  0
  -24.1868   18.4762  -17.5601 C   0  0  0  0  0  0  0  0  0  0  0  0
  -25.4319   17.8607  -17.1855 N   0  0  0  0  0  0  0  0  0  0  0  0
  -23.5740   17.9836  -18.5725 N   0  0  0  0  0  0  0  0  0  0  0  0
  -26.3009   18.4121  -17.3017 H   0  0  0  0  0  0  0  0  0  0  0  0
  -25.4784   16.8901  -16.8064 H   0  0  0  0  0  0  0  0  0  0  0  0
  -23.9370   17.1749  -19.1173 H   0  0  0  0  0  0  0  0  0  0  0  0
  -19.0979   15.9438  -17.4962 C   0  0  0  0  0  0  0  0  0  0  0  0
  -18.3465   16.5470  -16.3622 C   0  0  0  0  0  0  0  0  0  0  0  0
  -18.8938   17.8911  -16.0700 C   0  0  0  0  0  0  0  0  0  0  0  0
  -19.1649   18.8172  -17.0979 N   0  0  0  0  0  0  0  0  0  0  0  0
  -19.1203   18.2086  -14.8802 O   0  0  0  0  0  0  0  0  0  0  0  0
  -19.8958   18.6451  -17.7963 H   0  0  0  0  0  0  0  0  0  0  0  0
  -18.6091   19.7026  -17.1497 H   0  0  0  0  0  0  0  0  0  0  0  0
 30 31  1  0  0  0
 31 28  1  0  0  0
 28 29  1  0  0  0
 28  1  1  0  0  0
  1  2  1  0  0  0
  2  3  1  0  0  0
  3  4  2  0  0  0
  3  5  1  0  0  0
  5 32  1  0  0  0
 32 33  1  0  0  0
 33 34  2  0  0  0
 34 35  1  0  0  0
 35 36  2  0  0  0
 36 37  1  0  0  0
 37 38  2  0  0  0
  5  6  1  0  0  0
  6  7  1  0  0  0
  7  8  2  0  0  0
  7  9  1  0  0  0
  9 10  1  0  0  0
 10 11  1  0  0  0
 11 12  1  0  0  0
 12 13  1  0  0  0
 13 14  1  0  0  0
 14 15  2  0  0  0
 14 16  1  0  0  0
 16 39  1  0  0  0
 39 40  1  0  0  0
 40 41  1  0  0  0
 41 42  1  0  0  0
 42 44  1  0  0  0
 44 45  1  0  0  0
 44 46  2  0  0  0
 16 17  1  0  0  0
 17 18  1  0  0  0
 18 19  2  0  0  0
 18 20  1  0  0  0
 20 50  1  0  0  0
 50 51  1  0  0  0
 51 52  1  0  0  0
 52 53  1  0  0  0
 52 54  2  0  0  0
 20 21  1  0  0  0
 21 22  1  0  0  0
 22 23  2  0  0  0
 22  1  1  0  0  0
 38 33  1  0  0  0
 13  9  1  0  0  0
  2 24  1  0  0  0
  6 25  1  0  0  0
 42 43  1  0  0  0
 45 47  1  0  0  0
 45 48  1  0  0  0
 46 49  1  0  0  0
 17 26  1  0  0  0
 53 55  1  0  0  0
 53 56  1  0  0  0
 21 27  1  0  0  0
M  END
> <minimizedAffinity>
-3.99685

> <CNNscore>
0.4154419303

> <CNNaffinity>
6.3284764290

> <CNN_VS>
2.6291143894

> <CNNaffinity_variance>
0.7934937477

$$$$
[H]N=C(N([H])[H])N([H])C([H])([H])C([H])([H])C([H])([H])[C@@]1([H])C(=O)N2C([H])([H])C([H])([H])C([H])([H])[C@@]2([H])C(=O)N([H])[C@]([H])(C([H])([H])c2c([H])c([H])c([H])c([H])c2[H])C(=O)N([H])[C@@]([H])([C@@]([H])(C([H])([H])[H])C([H])([H])C([H])([H])[H])C(=O)N([H])[C@@]([H])(C([H])([H])C([H])([H])C(=O)N([H])[H])C(=O)N1[H]


 56 58  0  0  0  0  0  0  0  0999 V2000
  -17.9968   14.1901  -23.1622 C   0  0  0  0  0  0  0  0  0  0  0  0
  -19.0515   13.7519  -22.2763 N   0  0  0  0  0  0  0  0  0  0  0  0
  -19.1781   12.6904  -21.4271 C   0  0  0  0  0  0  0  0  0  0  0  0
  -20.1897   11.8995  -21.6943 O   0  0  0  0  0  0  0  0  0  0  0  0
  -18.4144   12.2226  -20.2450 C   0  0  0  0  0  0  0  0  0  0  0  0
  -19.2461   12.1704  -19.0754 N   0  0  0  0  0  0  0  0  0  0  0  0
  -19.4321   13.0666  -18.0178 C   0  0  0  0  0  0  0  0  0  0  0  0
  -19.5274   12.5289  -16.8393 O   0  0  0  0  0  0  0  0  0  0  0  0
  -19.5392   14.5352  -18.0150 C   0  0  0  0  0  0  0  0  0  0  0  0
  -19.3799   15.0948  -16.6045 C   0  0  0  0  0  0  0  0  0  0  0  0
  -20.6951   14.8054  -15.9635 C   0  0  0  0  0  0  0  0  0  0  0  0
  -21.6592   14.6861  -17.1223 C   0  0  0  0  0  0  0  0  0  0  0  0
  -20.8575   15.0642  -18.3058 N   0  0  0  0  0  0  0  0  0  0  0  0
  -21.2158   15.7811  -19.4665 C   0  0  0  0  0  0  0  0  0  0  0  0
  -22.3999   15.5688  -19.9070 O   0  0  0  0  0  0  0  0  0  0  0  0
  -20.3304   16.7445  -20.1976 C   0  0  0  0  0  0  0  0  0  0  0  0
  -20.8408   17.1033  -21.4892 N   0  0  0  0  0  0  0  0  0  0  0  0
  -20.0573   17.6176  -22.5475 C   0  0  0  0  0  0  0  0  0  0  0  0
  -20.6273   18.3105  -23.4248 O   0  0  0  0  0  0  0  0  0  0  0  0
  -18.5886   17.3915  -22.6932 C   0  0  0  0  0  0  0  0  0  0  0  0
  -18.3418   16.6353  -23.8940 N   0  0  0  0  0  0  0  0  0  0  0  0
  -18.4871   15.2532  -24.0902 C   0  0  0  0  0  0  0  0  0  0  0  0
  -19.0939   14.8786  -25.1611 O   0  0  0  0  0  0  0  0  0  0  0  0
  -19.9148   14.4186  -22.3251 H   0  0  0  0  0  0  0  0  0  0  0  0
  -19.8471   11.2615  -19.0159 H   0  0  0  0  0  0  0  0  0  0  0  0
  -21.8809   16.9632  -21.6546 H   0  0  0  0  0  0  0  0  0  0  0  0
  -18.0144   17.2048  -24.7422 H   0  0  0  0  0  0  0  0  0  0  0  0
  -17.3874   13.0584  -23.9815 C   0  0  0  0  0  0  0  0  0  0  0  0
  -18.3725   12.0931  -24.5290 C   0  0  0  0  0  0  0  0  0  0  0  0
  -15.3750   14.4876  -24.4009 C   0  0  0  0  0  0  0  0  0  0  0  0
  -16.4762   13.6743  -25.0271 C   0  0  0  0  0  0  0  0  0  0  0  0
  -17.0323   12.7189  -20.1113 C   0  0  0  0  0  0  0  0  0  0  0  0
  -15.9856   12.0243  -20.8555 C   0  0  0  0  0  0  0  0  0  0  0  0
  -15.7763   10.6842  -20.7296 C   0  0  0  0  0  0  0  0  0  0  0  0
  -14.8157    9.9698  -21.4230 C   0  0  0  0  0  0  0  0  0  0  0  0
  -14.0266   10.6881  -22.2959 C   0  0  0  0  0  0  0  0  0  0  0  0
  -14.2113   12.0535  -22.4488 C   0  0  0  0  0  0  0  0  0  0  0  0
  -15.1741   12.7395  -21.7478 C   0  0  0  0  0  0  0  0  0  0  0  0
  -19.8212   17.8583  -19.3580 C   0  0  0  0  0  0  0  0  0  0  0  0
  -20.7478   18.5646  -18.4612 C   0  0  0  0  0  0  0  0  0  0  0  0
  -21.9185   19.2175  -19.1535 C   0  0  0  0  0  0  0  0  0  0  0  0
  -23.1586   18.4979  -18.8597 N   0  0  0  0  0  0  0  0  0  0  0  0
  -23.2663   17.5293  -19.1674 H   0  0  0  0  0  0  0  0  0  0  0  0
  -24.1683   19.1868  -18.1501 C   0  0  0  0  0  0  0  0  0  0  0  0
  -25.4305   19.4772  -18.7764 N   0  0  0  0  0  0  0  0  0  0  0  0
  -24.0143   19.5786  -16.9393 N   0  0  0  0  0  0  0  0  0  0  0  0
  -26.0530   18.6822  -19.0069 H   0  0  0  0  0  0  0  0  0  0  0  0
  -25.7271   20.4519  -18.9996 H   0  0  0  0  0  0  0  0  0  0  0  0
  -24.7515   20.0864  -16.4089 H   0  0  0  0  0  0  0  0  0  0  0  0
  -17.9638   18.7802  -22.9087 C   0  0  0  0  0  0  0  0  0  0  0  0
  -17.9287   19.6068  -21.6718 C   0  0  0  0  0  0  0  0  0  0  0  0
  -18.9144   20.7052  -21.7869 C   0  0  0  0  0  0  0  0  0  0  0  0
  -19.6024   21.2007  -20.6605 N   0  0  0  0  0  0  0  0  0  0  0  0
  -19.1390   21.2034  -22.9134 O   0  0  0  0  0  0  0  0  0  0  0  0
  -19.1116   21.6882  -19.9034 H   0  0  0  0  0  0  0  0  0  0  0  0
  -20.6388   21.0702  -20.5946 H   0  0  0  0  0  0  0  0  0  0  0  0
 30 31  1  0  0  0
 31 28  1  0  0  0
 28 29  1  0  0  0
 28  1  1  0  0  0
  1  2  1  0  0  0
  2  3  1  0  0  0
  3  4  2  0  0  0
  3  5  1  0  0  0
  5 32  1  0  0  0
 32 33  1  0  0  0
 33 34  2  0  0  0
 34 35  1  0  0  0
 35 36  2  0  0  0
 36 37  1  0  0  0
 37 38  2  0  0  0
  5  6  1  0  0  0
  6  7  1  0  0  0
  7  8  2  0  0  0
  7  9  1  0  0  0
  9 10  1  0  0  0
 10 11  1  0  0  0
 11 12  1  0  0  0
 12 13  1  0  0  0
 13 14  1  0  0  0
 14 15  2  0  0  0
 14 16  1  0  0  0
 16 39  1  0  0  0
 39 40  1  0  0  0
 40 41  1  0  0  0
 41 42  1  0  0  0
 42 44  1  0  0  0
 44 45  1  0  0  0
 44 46  2  0  0  0
 16 17  1  0  0  0
 17 18  1  0  0  0
 18 19  2  0  0  0
 18 20  1  0  0  0
 20 50  1  0  0  0
 50 51  1  0  0  0
 51 52  1  0  0  0
 52 53  1  0  0  0
 52 54  2  0  0  0
 20 21  1  0  0  0
 21 22  1  0  0  0
 22 23  2  0  0  0
 22  1  1  0  0  0
 38 33  1  0  0  0
 13  9  1  0  0  0
  2 24  1  0  0  0
  6 25  1  0  0  0
 42 43  1  0  0  0
 45 47  1  0  0  0
 45 48  1  0  0  0
 46 49  1  0  0  0
 17 26  1  0  0  0
 53 55  1  0  0  0
 53 56  1  0  0  0
 21 27  1  0  0  0
M  END
> <minimizedAffinity>
1.47686

> <CNNscore>
0.4053240418

> <CNNaffinity>
7.0150666237

> <CNN_VS>
2.8433752060

> <CNNaffinity_variance>
1.1001913548

$$$$
[H]N=C(N([H])[H])N([H])C([H])([H])C([H])([H])C([H])([H])[C@@]1([H])C(=O)N2C([H])([H])C([H])([H])C([H])([H])[C@@]2([H])C(=O)N([H])[C@]([H])(C([H])([H])c2c([H])c([H])c([H])c([H])c2[H])C(=O)N([H])[C@@]([H])([C@@]([H])(C([H])([H])[H])C([H])([H])C([H])([H])[H])C(=O)N([H])[C@@]([H])(C([H])([H])C([H])([H])C(=O)N([H])[H])C(=O)N1[H]


 56 58  0  0  0  0  0  0  0  0999 V2000
  -17.9864   14.9162  -22.6557 C   0  0  0  0  0  0  0  0  0  0  0  0
  -18.9433   14.0830  -21.9634 N   0  0  0  0  0  0  0  0  0  0  0  0
  -18.9340   12.7744  -21.5740 C   0  0  0  0  0  0  0  0  0  0  0  0
  -19.9015   12.0499  -22.0832 O   0  0  0  0  0  0  0  0  0  0  0  0
  -18.0591   11.9725  -20.6845 C   0  0  0  0  0  0  0  0  0  0  0  0
  -18.8027   11.4105  -19.5920 N   0  0  0  0  0  0  0  0  0  0  0  0
  -18.9803   11.8259  -18.2683 C   0  0  0  0  0  0  0  0  0  0  0  0
  -18.9553   10.8809  -17.3775 O   0  0  0  0  0  0  0  0  0  0  0  0
  -19.1933   13.1705  -17.7071 C   0  0  0  0  0  0  0  0  0  0  0  0
  -18.9787   13.1756  -16.1966 C   0  0  0  0  0  0  0  0  0  0  0  0
  -20.2224   12.5468  -15.6652 C   0  0  0  0  0  0  0  0  0  0  0  0
  -21.2524   12.7793  -16.7475 C   0  0  0  0  0  0  0  0  0  0  0  0
  -20.5633   13.6446  -17.7287 N   0  0  0  0  0  0  0  0  0  0  0  0
  -21.0515   14.7061  -18.5190 C   0  0  0  0  0  0  0  0  0  0  0  0
  -22.2445   14.5644  -18.9638 O   0  0  0  0  0  0  0  0  0  0  0  0
  -20.2906   15.9507  -18.8635 C   0  0  0  0  0  0  0  0  0  0  0  0
  -20.9130   16.7163  -19.9046 N   0  0  0  0  0  0  0  0  0  0  0  0
  -20.2434   17.6589  -20.7179 C   0  0  0  0  0  0  0  0  0  0  0  0
  -20.9210   18.5728  -21.2473 O   0  0  0  0  0  0  0  0  0  0  0  0
  -18.7756   17.6413  -20.9912 C   0  0  0  0  0  0  0  0  0  0  0  0
  -18.5575   17.4143  -22.3968 N   0  0  0  0  0  0  0  0  0  0  0  0
  -18.6151   16.1981  -23.0950 C   0  0  0  0  0  0  0  0  0  0  0  0
  -19.2651   16.1955  -24.2054 O   0  0  0  0  0  0  0  0  0  0  0  0
  -19.8540   14.6362  -21.7255 H   0  0  0  0  0  0  0  0  0  0  0  0
  -19.3306   10.4934  -19.8585 H   0  0  0  0  0  0  0  0  0  0  0  0
  -21.9492   16.5520  -20.0729 H   0  0  0  0  0  0  0  0  0  0  0  0
  -18.3312   18.2870  -22.9784 H   0  0  0  0  0  0  0  0  0  0  0  0
  -17.3541   14.2340  -23.8632 C   0  0  0  0  0  0  0  0  0  0  0  0
  -18.3254   13.6451  -24.8181 C   0  0  0  0  0  0  0  0  0  0  0  0
  -16.4176   15.1464  -25.9983 C   0  0  0  0  0  0  0  0  0  0  0  0
  -16.3775   15.2088  -24.4946 C   0  0  0  0  0  0  0  0  0  0  0  0
  -16.7108   12.5095  -20.4234 C   0  0  0  0  0  0  0  0  0  0  0  0
  -15.6493   12.1696  -21.3667 C   0  0  0  0  0  0  0  0  0  0  0  0
  -15.0293   10.9568  -21.3516 C   0  0  0  0  0  0  0  0  0  0  0  0
  -14.0339   10.5717  -22.2318 C   0  0  0  0  0  0  0  0  0  0  0  0
  -13.6602   11.4992  -23.1809 C   0  0  0  0  0  0  0  0  0  0  0  0
  -14.2694   12.7435  -23.2252 C   0  0  0  0  0  0  0  0  0  0  0  0
  -15.2571   13.1010  -22.3388 C   0  0  0  0  0  0  0  0  0  0  0  0
  -19.8072   16.7129  -17.6845 C   0  0  0  0  0  0  0  0  0  0  0  0
  -20.6369   17.7978  -17.1401 C   0  0  0  0  0  0  0  0  0  0  0  0
  -21.2899   17.4867  -15.8162 C   0  0  0  0  0  0  0  0  0  0  0  0
  -22.6199   16.9107  -16.0195 N   0  0  0  0  0  0  0  0  0  0  0  0
  -23.2907   17.3880  -16.6251 H   0  0  0  0  0  0  0  0  0  0  0  0
  -22.9214   15.6983  -15.3585 C   0  0  0  0  0  0  0  0  0  0  0  0
  -22.1581   15.2843  -14.2115 N   0  0  0  0  0  0  0  0  0  0  0  0
  -23.8694   14.9237  -15.7387 N   0  0  0  0  0  0  0  0  0  0  0  0
  -22.2401   15.8453  -13.3448 H   0  0  0  0  0  0  0  0  0  0  0  0
  -21.5356   14.4477  -14.2327 H   0  0  0  0  0  0  0  0  0  0  0  0
  -24.0986   14.0294  -15.2588 H   0  0  0  0  0  0  0  0  0  0  0  0
  -18.2695   19.0618  -20.6888 C   0  0  0  0  0  0  0  0  0  0  0  0
  -18.3701   19.4271  -19.2498 C   0  0  0  0  0  0  0  0  0  0  0  0
  -19.1968   20.6469  -19.1093 C   0  0  0  0  0  0  0  0  0  0  0  0
  -19.4884   21.1996  -17.8455 N   0  0  0  0  0  0  0  0  0  0  0  0
  -19.6454   21.1980  -20.1403 O   0  0  0  0  0  0  0  0  0  0  0  0
  -18.7539   21.6001  -17.2525 H   0  0  0  0  0  0  0  0  0  0  0  0
  -20.4777   21.2035  -17.5038 H   0  0  0  0  0  0  0  0  0  0  0  0
 30 31  1  0  0  0
 31 28  1  0  0  0
 28 29  1  0  0  0
 28  1  1  0  0  0
  1  2  1  0  0  0
  2  3  1  0  0  0
  3  4  2  0  0  0
  3  5  1  0  0  0
  5 32  1  0  0  0
 32 33  1  0  0  0
 33 34  2  0  0  0
 34 35  1  0  0  0
 35 36  2  0  0  0
 36 37  1  0  0  0
 37 38  2  0  0  0
  5  6  1  0  0  0
  6  7  1  0  0  0
  7  8  2  0  0  0
  7  9  1  0  0  0
  9 10  1  0  0  0
 10 11  1  0  0  0
 11 12  1  0  0  0
 12 13  1  0  0  0
 13 14  1  0  0  0
 14 15  2  0  0  0
 14 16  1  0  0  0
 16 39  1  0  0  0
 39 40  1  0  0  0
 40 41  1  0  0  0
 41 42  1  0  0  0
 42 44  1  0  0  0
 44 45  1  0  0  0
 44 46  2  0  0  0
 16 17  1  0  0  0
 17 18  1  0  0  0
 18 19  2  0  0  0
 18 20  1  0  0  0
 20 50  1  0  0  0
 50 51  1  0  0  0
 51 52  1  0  0  0
 52 53  1  0  0  0
 52 54  2  0  0  0
 20 21  1  0  0  0
 21 22  1  0  0  0
 22 23  2  0  0  0
 22  1  1  0  0  0
 38 33  1  0  0  0
 13  9  1  0  0  0
  2 24  1  0  0  0
  6 25  1  0  0  0
 42 43  1  0  0  0
 45 47  1  0  0  0
 45 48  1  0  0  0
 46 49  1  0  0  0
 17 26  1  0  0  0
 53 55  1  0  0  0
 53 56  1  0  0  0
 21 27  1  0  0  0
M  END
> <minimizedAffinity>
0.49974

> <CNNscore>
0.4022757411

> <CNNaffinity>
7.0168180466

> <CNN_VS>
2.8226957321

> <CNNaffinity_variance>
0.6339747906

$$$$
[H]N=C(N([H])[H])N([H])C([H])([H])C([H])([H])C([H])([H])[C@@]1([H])C(=O)N2C([H])([H])C([H])([H])C([H])([H])[C@@]2([H])C(=O)N([H])[C@]([H])(C([H])([H])c2c([H])c([H])c([H])c([H])c2[H])C(=O)N([H])[C@@]([H])([C@@]([H])(C([H])([H])[H])C([H])([H])C([H])([H])[H])C(=O)N([H])[C@@]([H])(C([H])([H])C([H])([H])C(=O)N([H])[H])C(=O)N1[H]


 56 58  0  0  0  0  0  0  0  0999 V2000
  -19.1191   13.8361  -20.0693 C   0  0  0  0  0  0  0  0  0  0  0  0
  -20.2370   14.6009  -20.5738 N   0  0  0  0  0  0  0  0  0  0  0  0
  -21.2169   15.3343  -19.9687 C   0  0  0  0  0  0  0  0  0  0  0  0
  -22.4365   14.9236  -20.2216 O   0  0  0  0  0  0  0  0  0  0  0  0
  -21.2117   16.5167  -19.0734 C   0  0  0  0  0  0  0  0  0  0  0  0
  -21.9280   17.6154  -19.6581 N   0  0  0  0  0  0  0  0  0  0  0  0
  -21.4991   18.7381  -20.3736 C   0  0  0  0  0  0  0  0  0  0  0  0
  -22.1035   19.8507  -20.0834 O   0  0  0  0  0  0  0  0  0  0  0  0
  -20.4650   18.8734  -21.4131 C   0  0  0  0  0  0  0  0  0  0  0  0
  -20.1065   20.3384  -21.6439 C   0  0  0  0  0  0  0  0  0  0  0  0
  -21.2529   20.8562  -22.4453 C   0  0  0  0  0  0  0  0  0  0  0  0
  -21.8322   19.6274  -23.1090 C   0  0  0  0  0  0  0  0  0  0  0  0
  -20.8887   18.5436  -22.7599 N   0  0  0  0  0  0  0  0  0  0  0  0
  -20.4462   17.4344  -23.5105 C   0  0  0  0  0  0  0  0  0  0  0  0
  -21.3225   16.8947  -24.2734 O   0  0  0  0  0  0  0  0  0  0  0  0
  -19.0616   16.8616  -23.4755 C   0  0  0  0  0  0  0  0  0  0  0  0
  -18.9715   15.5777  -24.1089 N   0  0  0  0  0  0  0  0  0  0  0  0
  -17.9521   14.6301  -23.8613 C   0  0  0  0  0  0  0  0  0  0  0  0
  -17.6982   13.7854  -24.7538 O   0  0  0  0  0  0  0  0  0  0  0  0
  -17.1518   14.5657  -22.6024 C   0  0  0  0  0  0  0  0  0  0  0  0
  -17.4191   13.3183  -21.9336 N   0  0  0  0  0  0  0  0  0  0  0  0
  -18.5293   12.9818  -21.1436 C   0  0  0  0  0  0  0  0  0  0  0  0
  -19.0790   11.8406  -21.3692 O   0  0  0  0  0  0  0  0  0  0  0  0
  -20.2904   14.5561  -21.6634 H   0  0  0  0  0  0  0  0  0  0  0  0
  -23.0081   17.5463  -19.5197 H   0  0  0  0  0  0  0  0  0  0  0  0
  -19.7323   15.3281  -24.8072 H   0  0  0  0  0  0  0  0  0  0  0  0
  -16.6790   12.5529  -22.0654 H   0  0  0  0  0  0  0  0  0  0  0  0
  -19.4781   12.9569  -18.8770 C   0  0  0  0  0  0  0  0  0  0  0  0
  -18.7538   11.6629  -18.8242 C   0  0  0  0  0  0  0  0  0  0  0  0
  -20.3332   13.3822  -16.5627 C   0  0  0  0  0  0  0  0  0  0  0  0
  -19.3429   13.7946  -17.6189 C   0  0  0  0  0  0  0  0  0  0  0  0
  -19.9573   16.7924  -18.3488 C   0  0  0  0  0  0  0  0  0  0  0  0
  -20.0571   17.2397  -16.9625 C   0  0  0  0  0  0  0  0  0  0  0  0
  -21.0721   16.8423  -16.1455 C   0  0  0  0  0  0  0  0  0  0  0  0
  -21.2070   17.2160  -14.8204 C   0  0  0  0  0  0  0  0  0  0  0  0
  -20.2332   18.0509  -14.3152 C   0  0  0  0  0  0  0  0  0  0  0  0
  -19.1861   18.4757  -15.1182 C   0  0  0  0  0  0  0  0  0  0  0  0
  -19.0751   18.0888  -16.4324 C   0  0  0  0  0  0  0  0  0  0  0  0
  -17.9924   17.8367  -23.8084 C   0  0  0  0  0  0  0  0  0  0  0  0
  -17.2894   18.5324  -22.7205 C   0  0  0  0  0  0  0  0  0  0  0  0
  -16.2884   17.6850  -21.9751 C   0  0  0  0  0  0  0  0  0  0  0  0
  -16.9436   16.9368  -20.9013 N   0  0  0  0  0  0  0  0  0  0  0  0
  -17.3436   16.0169  -21.0969 H   0  0  0  0  0  0  0  0  0  0  0  0
  -16.9932   17.5303  -19.6194 C   0  0  0  0  0  0  0  0  0  0  0  0
  -16.6133   16.7786  -18.4532 N   0  0  0  0  0  0  0  0  0  0  0  0
  -17.3703   18.7416  -19.4353 N   0  0  0  0  0  0  0  0  0  0  0  0
  -15.6191   16.5062  -18.3531 H   0  0  0  0  0  0  0  0  0  0  0  0
  -17.3036   16.5067  -17.7200 H   0  0  0  0  0  0  0  0  0  0  0  0
  -17.4102   19.1870  -18.4958 H   0  0  0  0  0  0  0  0  0  0  0  0
  -15.6771   14.5273  -23.0373 C   0  0  0  0  0  0  0  0  0  0  0  0
  -15.3852   13.4578  -24.0300 C   0  0  0  0  0  0  0  0  0  0  0  0
  -14.7737   12.3002  -23.3392 C   0  0  0  0  0  0  0  0  0  0  0  0
  -15.5517   11.2142  -22.8885 N   0  0  0  0  0  0  0  0  0  0  0  0
  -13.5355   12.2891  -23.1532 O   0  0  0  0  0  0  0  0  0  0  0  0
  -16.0404   10.5954  -23.5442 H   0  0  0  0  0  0  0  0  0  0  0  0
  -15.6321   11.0329  -21.8608 H   0  0  0  0  0  0  0  0  0  0  0  0
 30 31  1  0  0  0
 31 28  1  0  0  0
 28 29  1  0  0  0
 28  1  1  0  0  0
  1  2  1  0  0  0
  2  3  1  0  0  0
  3  4  2  0  0  0
  3  5  1  0  0  0
  5 32  1  0  0  0
 32 33  1  0  0  0
 33 34  2  0  0  0
 34 35  1  0  0  0
 35 36  2  0  0  0
 36 37  1  0  0  0
 37 38  2  0  0  0
  5  6  1  0  0  0
  6  7  1  0  0  0
  7  8  2  0  0  0
  7  9  1  0  0  0
  9 10  1  0  0  0
 10 11  1  0  0  0
 11 12  1  0  0  0
 12 13  1  0  0  0
 13 14  1  0  0  0
 14 15  2  0  0  0
 14 16  1  0  0  0
 16 39  1  0  0  0
 39 40  1  0  0  0
 40 41  1  0  0  0
 41 42  1  0  0  0
 42 44  1  0  0  0
 44 45  1  0  0  0
 44 46  2  0  0  0
 16 17  1  0  0  0
 17 18  1  0  0  0
 18 19  2  0  0  0
 18 20  1  0  0  0
 20 50  1  0  0  0
 50 51  1  0  0  0
 51 52  1  0  0  0
 52 53  1  0  0  0
 52 54  2  0  0  0
 20 21  1  0  0  0
 21 22  1  0  0  0
 22 23  2  0  0  0
 22  1  1  0  0  0
 38 33  1  0  0  0
 13  9  1  0  0  0
  2 24  1  0  0  0
  6 25  1  0  0  0
 42 43  1  0  0  0
 45 47  1  0  0  0
 45 48  1  0  0  0
 46 49  1  0  0  0
 17 26  1  0  0  0
 53 55  1  0  0  0
 53 56  1  0  0  0
 21 27  1  0  0  0
M  END
> <minimizedAffinity>
-4.52976

> <CNNscore>
0.3885607719

> <CNNaffinity>
6.9759635925

> <CNN_VS>
2.7105858326

> <CNNaffinity_variance>
0.4374813437

$$$$
[H]N=C(N([H])[H])N([H])C([H])([H])C([H])([H])C([H])([H])[C@@]1([H])C(=O)N2C([H])([H])C([H])([H])C([H])([H])[C@@]2([H])C(=O)N([H])[C@]([H])(C([H])([H])c2c([H])c([H])c([H])c([H])c2[H])C(=O)N([H])[C@@]([H])([C@@]([H])(C([H])([H])[H])C([H])([H])C([H])([H])[H])C(=O)N([H])[C@@]([H])(C([H])([H])C([H])([H])C(=O)N([H])[H])C(=O)N1[H]


 56 58  0  0  0  0  0  0  0  0999 V2000
  -21.2412   13.7391  -15.9469 C   0  0  0  0  0  0  0  0  0  0  0  0
  -22.1936   14.5787  -16.6377 N   0  0  0  0  0  0  0  0  0  0  0  0
  -23.0350   15.5720  -16.2261 C   0  0  0  0  0  0  0  0  0  0  0  0
  -24.3043   15.3402  -16.4616 O   0  0  0  0  0  0  0  0  0  0  0  0
  -22.8317   16.8819  -15.5610 C   0  0  0  0  0  0  0  0  0  0  0  0
  -23.3274   17.9593  -16.3709 N   0  0  0  0  0  0  0  0  0  0  0  0
  -22.6904   18.8355  -17.2556 C   0  0  0  0  0  0  0  0  0  0  0  0
  -23.0887   20.0708  -17.2031 O   0  0  0  0  0  0  0  0  0  0  0  0
  -21.6311   18.5910  -18.2488 C   0  0  0  0  0  0  0  0  0  0  0  0
  -21.0099   19.9013  -18.7232 C   0  0  0  0  0  0  0  0  0  0  0  0
  -22.0299   20.4514  -19.6621 C   0  0  0  0  0  0  0  0  0  0  0  0
  -22.8102   19.2400  -20.1203 C   0  0  0  0  0  0  0  0  0  0  0  0
  -22.0843   18.0934  -19.5331 N   0  0  0  0  0  0  0  0  0  0  0  0
  -21.8366   16.8033  -20.0465 C   0  0  0  0  0  0  0  0  0  0  0  0
  -22.7828   16.2912  -20.7422 O   0  0  0  0  0  0  0  0  0  0  0  0
  -20.5791   16.0147  -19.8383 C   0  0  0  0  0  0  0  0  0  0  0  0
  -20.7116   14.6391  -20.2228 N   0  0  0  0  0  0  0  0  0  0  0  0
  -19.8847   13.5918  -19.7560 C   0  0  0  0  0  0  0  0  0  0  0  0
  -19.7723   12.5636  -20.4665 O   0  0  0  0  0  0  0  0  0  0  0  0
  -19.1311   13.6262  -18.4676 C   0  0  0  0  0  0  0  0  0  0  0  0
  -19.6309   12.5925  -17.5979 N   0  0  0  0  0  0  0  0  0  0  0  0
  -20.7970   12.6090  -16.8171 C   0  0  0  0  0  0  0  0  0  0  0  0
  -21.5399   11.5593  -16.8593 O   0  0  0  0  0  0  0  0  0  0  0  0
  -22.2354   14.3403  -17.7023 H   0  0  0  0  0  0  0  0  0  0  0  0
  -24.4045   18.1067  -16.2770 H   0  0  0  0  0  0  0  0  0  0  0  0
  -21.4929   14.3994  -20.9017 H   0  0  0  0  0  0  0  0  0  0  0  0
  -19.0391   11.6988  -17.5510 H   0  0  0  0  0  0  0  0  0  0  0  0
  -21.7736   13.1755  -14.6345 C   0  0  0  0  0  0  0  0  0  0  0  0
  -23.2085   12.7981  -14.6621 C   0  0  0  0  0  0  0  0  0  0  0  0
  -21.4862   11.1788  -13.1518 C   0  0  0  0  0  0  0  0  0  0  0  0
  -20.8471   12.0574  -14.1939 C   0  0  0  0  0  0  0  0  0  0  0  0
  -21.5608   17.0657  -14.8361 C   0  0  0  0  0  0  0  0  0  0  0  0
  -21.6166   17.6718  -13.5089 C   0  0  0  0  0  0  0  0  0  0  0  0
  -20.5860   18.4065  -13.0052 C   0  0  0  0  0  0  0  0  0  0  0  0
  -20.5905   19.0207  -11.7656 C   0  0  0  0  0  0  0  0  0  0  0  0
  -21.7296   18.8620  -11.0053 C   0  0  0  0  0  0  0  0  0  0  0  0
  -22.7975   18.1205  -11.4860 C   0  0  0  0  0  0  0  0  0  0  0  0
  -22.7676   17.5207  -12.7223 C   0  0  0  0  0  0  0  0  0  0  0  0
  -19.3457   16.7084  -20.2881 C   0  0  0  0  0  0  0  0  0  0  0  0
  -19.2813   17.2468  -21.6548 C   0  0  0  0  0  0  0  0  0  0  0  0
  -18.0237   16.8958  -22.4105 C   0  0  0  0  0  0  0  0  0  0  0  0
  -18.3476   16.2004  -23.6569 N   0  0  0  0  0  0  0  0  0  0  0  0
  -18.7322   16.7262  -24.4443 H   0  0  0  0  0  0  0  0  0  0  0  0
  -18.1085   14.8085  -23.7166 C   0  0  0  0  0  0  0  0  0  0  0  0
  -18.1175   14.1211  -24.9803 N   0  0  0  0  0  0  0  0  0  0  0  0
  -17.8762   14.1041  -22.6711 N   0  0  0  0  0  0  0  0  0  0  0  0
  -17.3647   14.3390  -25.6574 H   0  0  0  0  0  0  0  0  0  0  0  0
  -18.8514   13.4217  -25.2255 H   0  0  0  0  0  0  0  0  0  0  0  0
  -17.6992   13.0794  -22.7051 H   0  0  0  0  0  0  0  0  0  0  0  0
  -17.6803   13.2503  -18.8132 C   0  0  0  0  0  0  0  0  0  0  0  0
  -17.3613   11.8235  -18.5361 C   0  0  0  0  0  0  0  0  0  0  0  0
  -16.7175   11.2240  -19.7267 C   0  0  0  0  0  0  0  0  0  0  0  0
  -17.1243   11.5606  -21.0340 N   0  0  0  0  0  0  0  0  0  0  0  0
  -15.7896   10.3992  -19.5642 O   0  0  0  0  0  0  0  0  0  0  0  0
  -16.9944   12.5058  -21.4099 H   0  0  0  0  0  0  0  0  0  0  0  0
  -17.5681   10.8291  -21.6369 H   0  0  0  0  0  0  0  0  0  0  0  0
 30 31  1  0  0  0
 31 28  1  0  0  0
 28 29  1  0  0  0
 28  1  1  0  0  0
  1  2  1  0  0  0
  2  3  1  0  0  0
  3  4  2  0  0  0
  3  5  1  0  0  0
  5 32  1  0  0  0
 32 33  1  0  0  0
 33 34  2  0  0  0
 34 35  1  0  0  0
 35 36  2  0  0  0
 36 37  1  0  0  0
 37 38  2  0  0  0
  5  6  1  0  0  0
  6  7  1  0  0  0
  7  8  2  0  0  0
  7  9  1  0  0  0
  9 10  1  0  0  0
 10 11  1  0  0  0
 11 12  1  0  0  0
 12 13  1  0  0  0
 13 14  1  0  0  0
 14 15  2  0  0  0
 14 16  1  0  0  0
 16 39  1  0  0  0
 39 40  1  0  0  0
 40 41  1  0  0  0
 41 42  1  0  0  0
 42 44  1  0  0  0
 44 45  1  0  0  0
 44 46  2  0  0  0
 16 17  1  0  0  0
 17 18  1  0  0  0
 18 19  2  0  0  0
 18 20  1  0  0  0
 20 50  1  0  0  0
 50 51  1  0  0  0
 51 52  1  0  0  0
 52 53  1  0  0  0
 52 54  2  0  0  0
 20 21  1  0  0  0
 21 22  1  0  0  0
 22 23  2  0  0  0
 22  1  1  0  0  0
 38 33  1  0  0  0
 13  9  1  0  0  0
  2 24  1  0  0  0
  6 25  1  0  0  0
 42 43  1  0  0  0
 45 47  1  0  0  0
 45 48  1  0  0  0
 46 49  1  0  0  0
 17 26  1  0  0  0
 53 55  1  0  0  0
 53 56  1  0  0  0
 21 27  1  0  0  0
M  END
> <minimizedAffinity>
-5.52751

> <CNNscore>
0.3445675075

> <CNNaffinity>
6.4533052444

> <CNN_VS>
2.2235991955

> <CNNaffinity_variance>
0.6742246151

$$$$
[H]N=C(N([H])[H])N([H])C([H])([H])C([H])([H])C([H])([H])[C@@]1([H])C(=O)N2C([H])([H])C([H])([H])C([H])([H])[C@@]2([H])C(=O)N([H])[C@]([H])(C([H])([H])c2c([H])c([H])c([H])c([H])c2[H])C(=O)N([H])[C@@]([H])([C@@]([H])(C([H])([H])[H])C([H])([H])C([H])([H])[H])C(=O)N([H])[C@@]([H])(C([H])([H])C([H])([H])C(=O)N([H])[H])C(=O)N1[H]


 56 58  0  0  0  0  0  0  0  0999 V2000
  -18.3491   13.5685  -21.4562 C   0  0  0  0  0  0  0  0  0  0  0  0
  -19.5477   14.1487  -20.8940 N   0  0  0  0  0  0  0  0  0  0  0  0
  -20.2811   13.8777  -19.7748 C   0  0  0  0  0  0  0  0  0  0  0  0
  -21.5301   13.5538  -20.0098 O   0  0  0  0  0  0  0  0  0  0  0  0
  -19.9770   13.8695  -18.3232 C   0  0  0  0  0  0  0  0  0  0  0  0
  -20.8086   14.7995  -17.6120 N   0  0  0  0  0  0  0  0  0  0  0  0
  -20.5873   16.1100  -17.1762 C   0  0  0  0  0  0  0  0  0  0  0  0
  -21.0483   16.3920  -15.9951 O   0  0  0  0  0  0  0  0  0  0  0  0
  -19.9114   17.2380  -17.8388 C   0  0  0  0  0  0  0  0  0  0  0  0
  -19.6027   18.3538  -16.8450 C   0  0  0  0  0  0  0  0  0  0  0  0
  -20.9240   19.0150  -16.6410 C   0  0  0  0  0  0  0  0  0  0  0  0
  -21.7068   18.6829  -17.8913 C   0  0  0  0  0  0  0  0  0  0  0  0
  -20.7293   17.9978  -18.7640 N   0  0  0  0  0  0  0  0  0  0  0  0
  -20.5611   18.0392  -20.1639 C   0  0  0  0  0  0  0  0  0  0  0  0
  -21.6398   18.1171  -20.8508 O   0  0  0  0  0  0  0  0  0  0  0  0
  -19.2450   17.9984  -20.8799 C   0  0  0  0  0  0  0  0  0  0  0  0
  -19.3819   17.7654  -22.2886 N   0  0  0  0  0  0  0  0  0  0  0  0
  -18.3593   17.2561  -23.1212 C   0  0  0  0  0  0  0  0  0  0  0  0
  -18.4072   17.5186  -24.3473 O   0  0  0  0  0  0  0  0  0  0  0  0
  -17.2188   16.4224  -22.6380 C   0  0  0  0  0  0  0  0  0  0  0  0
  -17.3032   15.1130  -23.2321 N   0  0  0  0  0  0  0  0  0  0  0  0
  -18.1318   14.0447  -22.8554 C   0  0  0  0  0  0  0  0  0  0  0  0
  -18.7521   13.4290  -23.7996 O   0  0  0  0  0  0  0  0  0  0  0  0
  -19.9279   14.9595  -21.5185 H   0  0  0  0  0  0  0  0  0  0  0  0
  -21.7982   14.4017  -17.3817 H   0  0  0  0  0  0  0  0  0  0  0  0
  -20.3238   17.9884  -22.7268 H   0  0  0  0  0  0  0  0  0  0  0  0
  -16.6564   14.9411  -24.0707 H   0  0  0  0  0  0  0  0  0  0  0  0
  -18.3541   12.0442  -21.4457 C   0  0  0  0  0  0  0  0  0  0  0  0
  -19.6860   11.4299  -21.6706 C   0  0  0  0  0  0  0  0  0  0  0  0
  -15.9070   12.0041  -21.9732 C   0  0  0  0  0  0  0  0  0  0  0  0
  -17.2806   11.5651  -22.4053 C   0  0  0  0  0  0  0  0  0  0  0  0
  -18.5561   13.7552  -17.9456 C   0  0  0  0  0  0  0  0  0  0  0  0
  -17.9210   12.4470  -18.0763 C   0  0  0  0  0  0  0  0  0  0  0  0
  -18.6204   11.2862  -17.9377 C   0  0  0  0  0  0  0  0  0  0  0  0
  -18.0778   10.0207  -18.0710 C   0  0  0  0  0  0  0  0  0  0  0  0
  -16.7321    9.9567  -18.3636 C   0  0  0  0  0  0  0  0  0  0  0  0
  -15.9892   11.1177  -18.5110 C   0  0  0  0  0  0  0  0  0  0  0  0
  -16.5533   12.3636  -18.3740 C   0  0  0  0  0  0  0  0  0  0  0  0
  -18.3019   19.0728  -20.4787 C   0  0  0  0  0  0  0  0  0  0  0  0
  -18.3683   20.3772  -21.1540 C   0  0  0  0  0  0  0  0  0  0  0  0
  -19.7520   20.7895  -21.5913 C   0  0  0  0  0  0  0  0  0  0  0  0
  -19.8270   20.8787  -23.0502 N   0  0  0  0  0  0  0  0  0  0  0  0
  -19.0152   21.2030  -23.5796 H   0  0  0  0  0  0  0  0  0  0  0  0
  -21.0398   20.5042  -23.6722 C   0  0  0  0  0  0  0  0  0  0  0  0
  -21.2067   20.6540  -25.0932 N   0  0  0  0  0  0  0  0  0  0  0  0
  -22.0301   20.0223  -23.0162 N   0  0  0  0  0  0  0  0  0  0  0  0
  -20.6346   20.0557  -25.7155 H   0  0  0  0  0  0  0  0  0  0  0  0
  -21.8780   21.3390  -25.5031 H   0  0  0  0  0  0  0  0  0  0  0  0
  -22.9266   19.7441  -23.4650 H   0  0  0  0  0  0  0  0  0  0  0  0
  -15.9450   17.0799  -23.1954 C   0  0  0  0  0  0  0  0  0  0  0  0
  -15.0514   16.1229  -23.9025 C   0  0  0  0  0  0  0  0  0  0  0  0
  -15.1710   16.3272  -25.3638 C   0  0  0  0  0  0  0  0  0  0  0  0
  -14.0342   16.3986  -26.1946 N   0  0  0  0  0  0  0  0  0  0  0  0
  -16.3109   16.4383  -25.8698 O   0  0  0  0  0  0  0  0  0  0  0  0
  -13.4195   15.5896  -26.3338 H   0  0  0  0  0  0  0  0  0  0  0  0
  -13.8119   17.2972  -26.6830 H   0  0  0  0  0  0  0  0  0  0  0  0
 30 31  1  0  0  0
 31 28  1  0  0  0
 28 29  1  0  0  0
 28  1  1  0  0  0
  1  2  1  0  0  0
  2  3  1  0  0  0
  3  4  2  0  0  0
  3  5  1  0  0  0
  5 32  1  0  0  0
 32 33  1  0  0  0
 33 34  2  0  0  0
 34 35  1  0  0  0
 35 36  2  0  0  0
 36 37  1  0  0  0
 37 38  2  0  0  0
  5  6  1  0  0  0
  6  7  1  0  0  0
  7  8  2  0  0  0
  7  9  1  0  0  0
  9 10  1  0  0  0
 10 11  1  0  0  0
 11 12  1  0  0  0
 12 13  1  0  0  0
 13 14  1  0  0  0
 14 15  2  0  0  0
 14 16  1  0  0  0
 16 39  1  0  0  0
 39 40  1  0  0  0
 40 41  1  0  0  0
 41 42  1  0  0  0
 42 44  1  0  0  0
 44 45  1  0  0  0
 44 46  2  0  0  0
 16 17  1  0  0  0
 17 18  1  0  0  0
 18 19  2  0  0  0
 18 20  1  0  0  0
 20 50  1  0  0  0
 50 51  1  0  0  0
 51 52  1  0  0  0
 52 53  1  0  0  0
 52 54  2  0  0  0
 20 21  1  0  0  0
 21 22  1  0  0  0
 22 23  2  0  0  0
 22  1  1  0  0  0
 38 33  1  0  0  0
 13  9  1  0  0  0
  2 24  1  0  0  0
  6 25  1  0  0  0
 42 43  1  0  0  0
 45 47  1  0  0  0
 45 48  1  0  0  0
 46 49  1  0  0  0
 17 26  1  0  0  0
 53 55  1  0  0  0
 53 56  1  0  0  0
 21 27  1  0  0  0
M  END
> <minimizedAffinity>
-3.31441

> <CNNscore>
0.3436681032

> <CNNaffinity>
7.0082349777

> <CNN_VS>
2.4085068703

> <CNNaffinity_variance>
0.4418721795

$$$$
[H]N=C(N([H])[H])N([H])C([H])([H])C([H])([H])C([H])([H])[C@@]1([H])C(=O)N2C([H])([H])C([H])([H])C([H])([H])[C@@]2([H])C(=O)N([H])[C@]([H])(C([H])([H])c2c([H])c([H])c([H])c([H])c2[H])C(=O)N([H])[C@@]([H])([C@@]([H])(C([H])([H])[H])C([H])([H])C([H])([H])[H])C(=O)N([H])[C@@]([H])(C([H])([H])C([H])([H])C(=O)N([H])[H])C(=O)N1[H]


 56 58  0  0  0  0  0  0  0  0999 V2000
  -22.0835   14.0510  -15.2895 C   0  0  0  0  0  0  0  0  0  0  0  0
  -23.2551   14.8217  -15.6396 N   0  0  0  0  0  0  0  0  0  0  0  0
  -24.1877   15.4922  -14.9016 C   0  0  0  0  0  0  0  0  0  0  0  0
  -25.4184   15.0714  -15.0708 O   0  0  0  0  0  0  0  0  0  0  0  0
  -24.1205   16.6139  -13.9337 C   0  0  0  0  0  0  0  0  0  0  0  0
  -24.9051   17.7319  -14.3774 N   0  0  0  0  0  0  0  0  0  0  0  0
  -24.5617   18.9079  -15.0522 C   0  0  0  0  0  0  0  0  0  0  0  0
  -25.1555   19.9854  -14.6357 O   0  0  0  0  0  0  0  0  0  0  0  0
  -23.6289   19.1333  -16.1691 C   0  0  0  0  0  0  0  0  0  0  0  0
  -23.3172   20.6178  -16.3332 C   0  0  0  0  0  0  0  0  0  0  0  0
  -24.5401   21.1606  -16.9922 C   0  0  0  0  0  0  0  0  0  0  0  0
  -25.1571   19.9646  -17.6816 C   0  0  0  0  0  0  0  0  0  0  0  0
  -24.1681   18.8820  -17.4914 N   0  0  0  0  0  0  0  0  0  0  0  0
  -23.7774   17.8339  -18.3507 C   0  0  0  0  0  0  0  0  0  0  0  0
  -24.7106   17.3252  -19.0661 O   0  0  0  0  0  0  0  0  0  0  0  0
  -22.3861   17.2912  -18.4784 C   0  0  0  0  0  0  0  0  0  0  0  0
  -22.3329   16.0534  -19.2012 N   0  0  0  0  0  0  0  0  0  0  0  0
  -21.2798   15.1148  -19.1096 C   0  0  0  0  0  0  0  0  0  0  0  0
  -21.0943   14.3356  -20.0755 O   0  0  0  0  0  0  0  0  0  0  0  0
  -20.3672   14.9871  -17.9348 C   0  0  0  0  0  0  0  0  0  0  0  0
  -20.5519   13.6933  -17.3291 N   0  0  0  0  0  0  0  0  0  0  0  0
  -21.5799   13.2816  -16.4667 C   0  0  0  0  0  0  0  0  0  0  0  0
  -22.1289   12.1453  -16.7175 O   0  0  0  0  0  0  0  0  0  0  0  0
  -23.4067   14.8463  -16.7206 H   0  0  0  0  0  0  0  0  0  0  0  0
  -25.9669   17.6297  -14.1475 H   0  0  0  0  0  0  0  0  0  0  0  0
  -23.1500   15.8324  -19.8434 H   0  0  0  0  0  0  0  0  0  0  0  0
  -19.8144   12.9549  -17.5774 H   0  0  0  0  0  0  0  0  0  0  0  0
  -22.3179   13.0887  -14.1308 C   0  0  0  0  0  0  0  0  0  0  0  0
  -23.6110   12.3627  -14.1837 C   0  0  0  0  0  0  0  0  0  0  0  0
  -21.4402   10.8755  -13.3565 C   0  0  0  0  0  0  0  0  0  0  0  0
  -21.1040   12.1851  -14.0187 C   0  0  0  0  0  0  0  0  0  0  0  0
  -22.8101   16.8702  -13.3080 C   0  0  0  0  0  0  0  0  0  0  0  0
  -22.6935   18.0262  -12.4236 C   0  0  0  0  0  0  0  0  0  0  0  0
  -21.9626   19.1248  -12.7616 C   0  0  0  0  0  0  0  0  0  0  0  0
  -21.8330   20.2555  -11.9751 C   0  0  0  0  0  0  0  0  0  0  0  0
  -22.4996   20.2443  -10.7683 C   0  0  0  0  0  0  0  0  0  0  0  0
  -23.2523   19.1429  -10.3917 C   0  0  0  0  0  0  0  0  0  0  0  0
  -23.3651   18.0316  -11.1926 C   0  0  0  0  0  0  0  0  0  0  0  0
  -21.3680   18.3096  -18.8403 C   0  0  0  0  0  0  0  0  0  0  0  0
  -21.0364   18.5232  -20.2567 C   0  0  0  0  0  0  0  0  0  0  0  0
  -19.8854   19.4682  -20.4979 C   0  0  0  0  0  0  0  0  0  0  0  0
  -18.9470   18.9016  -21.4676 N   0  0  0  0  0  0  0  0  0  0  0  0
  -18.8715   19.3146  -22.3993 H   0  0  0  0  0  0  0  0  0  0  0  0
  -18.1727   17.7901  -21.0639 C   0  0  0  0  0  0  0  0  0  0  0  0
  -18.4372   16.4831  -21.6038 N   0  0  0  0  0  0  0  0  0  0  0  0
  -17.2168   17.8881  -20.2156 N   0  0  0  0  0  0  0  0  0  0  0  0
  -18.2466   16.3250  -22.6095 H   0  0  0  0  0  0  0  0  0  0  0  0
  -18.8097   15.7058  -21.0165 H   0  0  0  0  0  0  0  0  0  0  0  0
  -16.6416   17.0759  -19.9122 H   0  0  0  0  0  0  0  0  0  0  0  0
  -18.9378   15.0100  -18.5019 C   0  0  0  0  0  0  0  0  0  0  0  0
  -17.9658   15.7070  -17.6166 C   0  0  0  0  0  0  0  0  0  0  0  0
  -18.6362   16.8482  -16.9535 C   0  0  0  0  0  0  0  0  0  0  0  0
  -19.2442   16.7136  -15.6886 N   0  0  0  0  0  0  0  0  0  0  0  0
  -18.6610   17.9577  -17.5332 O   0  0  0  0  0  0  0  0  0  0  0  0
  -18.6932   16.5168  -14.8464 H   0  0  0  0  0  0  0  0  0  0  0  0
  -20.2823   16.8183  -15.6052 H   0  0  0  0  0  0  0  0  0  0  0  0
 30 31  1  0  0  0
 31 28  1  0  0  0
 28 29  1  0  0  0
 28  1  1  0  0  0
  1  2  1  0  0  0
  2  3  1  0  0  0
  3  4  2  0  0  0
  3  5  1  0  0  0
  5 32  1  0  0  0
 32 33  1  0  0  0
 33 34  2  0  0  0
 34 35  1  0  0  0
 35 36  2  0  0  0
 36 37  1  0  0  0
 37 38  2  0  0  0
  5  6  1  0  0  0
  6  7  1  0  0  0
  7  8  2  0  0  0
  7  9  1  0  0  0
  9 10  1  0  0  0
 10 11  1  0  0  0
 11 12  1  0  0  0
 12 13  1  0  0  0
 13 14  1  0  0  0
 14 15  2  0  0  0
 14 16  1  0  0  0
 16 39  1  0  0  0
 39 40  1  0  0  0
 40 41  1  0  0  0
 41 42  1  0  0  0
 42 44  1  0  0  0
 44 45  1  0  0  0
 44 46  2  0  0  0
 16 17  1  0  0  0
 17 18  1  0  0  0
 18 19  2  0  0  0
 18 20  1  0  0  0
 20 50  1  0  0  0
 50 51  1  0  0  0
 51 52  1  0  0  0
 52 53  1  0  0  0
 52 54  2  0  0  0
 20 21  1  0  0  0
 21 22  1  0  0  0
 22 23  2  0  0  0
 22  1  1  0  0  0
 38 33  1  0  0  0
 13  9  1  0  0  0
  2 24  1  0  0  0
  6 25  1  0  0  0
 42 43  1  0  0  0
 45 47  1  0  0  0
 45 48  1  0  0  0
 46 49  1  0  0  0
 17 26  1  0  0  0
 53 55  1  0  0  0
 53 56  1  0  0  0
 21 27  1  0  0  0
M  END
> <minimizedAffinity>
-3.43786

> <CNNscore>
0.3390454650

> <CNNaffinity>
6.1028051376

> <CNN_VS>
2.0691285133

> <CNNaffinity_variance>
0.6087906361

$$$$
[H]N=C(N([H])[H])N([H])C([H])([H])C([H])([H])C([H])([H])[C@@]1([H])C(=O)N2C([H])([H])C([H])([H])C([H])([H])[C@@]2([H])C(=O)N([H])[C@]([H])(C([H])([H])c2c([H])c([H])c([H])c([H])c2[H])C(=O)N([H])[C@@]([H])([C@@]([H])(C([H])([H])[H])C([H])([H])C([H])([H])[H])C(=O)N([H])[C@@]([H])(C([H])([H])C([H])([H])C(=O)N([H])[H])C(=O)N1[H]


 56 58  0  0  0  0  0  0  0  0999 V2000
  -18.1559   15.2472  -22.0112 C   0  0  0  0  0  0  0  0  0  0  0  0
  -17.9980   16.6176  -21.5797 N   0  0  0  0  0  0  0  0  0  0  0  0
  -18.1762   17.8199  -22.2017 C   0  0  0  0  0  0  0  0  0  0  0  0
  -17.1015   18.5701  -22.2505 O   0  0  0  0  0  0  0  0  0  0  0  0
  -19.3364   18.4824  -22.8456 C   0  0  0  0  0  0  0  0  0  0  0  0
  -19.6467   19.7286  -22.2030 N   0  0  0  0  0  0  0  0  0  0  0  0
  -20.5879   20.0697  -21.2262 C   0  0  0  0  0  0  0  0  0  0  0  0
  -21.1953   21.2036  -21.4065 O   0  0  0  0  0  0  0  0  0  0  0  0
  -21.0118   19.3511  -20.0128 C   0  0  0  0  0  0  0  0  0  0  0  0
  -22.3059   19.9342  -19.4531 C   0  0  0  0  0  0  0  0  0  0  0  0
  -21.8621   21.1921  -18.7858 C   0  0  0  0  0  0  0  0  0  0  0  0
  -20.4008   20.9573  -18.4764 C   0  0  0  0  0  0  0  0  0  0  0  0
  -20.1703   19.5448  -18.8482 N   0  0  0  0  0  0  0  0  0  0  0  0
  -19.3568   18.5593  -18.2510 C   0  0  0  0  0  0  0  0  0  0  0  0
  -18.2442   18.9741  -17.7701 O   0  0  0  0  0  0  0  0  0  0  0  0
  -19.6962   17.1032  -18.1457 C   0  0  0  0  0  0  0  0  0  0  0  0
  -18.5767   16.2949  -17.7569 N   0  0  0  0  0  0  0  0  0  0  0  0
  -18.4700   14.9050  -17.9918 C   0  0  0  0  0  0  0  0  0  0  0  0
  -17.7218   14.2326  -17.2417 O   0  0  0  0  0  0  0  0  0  0  0  0
  -19.1917   14.1780  -19.0781 C   0  0  0  0  0  0  0  0  0  0  0  0
  -18.2317   13.6347  -20.0043 N   0  0  0  0  0  0  0  0  0  0  0  0
  -17.5431   14.3045  -21.0276 C   0  0  0  0  0  0  0  0  0  0  0  0
  -16.2792   14.0823  -21.1199 O   0  0  0  0  0  0  0  0  0  0  0  0
  -17.6547   16.6718  -20.5447 H   0  0  0  0  0  0  0  0  0  0  0  0
  -19.0189   20.5544  -22.5415 H   0  0  0  0  0  0  0  0  0  0  0  0
  -17.7735   16.7855  -17.2639 H   0  0  0  0  0  0  0  0  0  0  0  0
  -18.0140   12.5906  -19.8881 H   0  0  0  0  0  0  0  0  0  0  0  0
  -17.5671   14.9770  -23.3909 C   0  0  0  0  0  0  0  0  0  0  0  0
  -16.2203   15.5596  -23.6120 C   0  0  0  0  0  0  0  0  0  0  0  0
  -18.0270   13.1835  -25.0761 C   0  0  0  0  0  0  0  0  0  0  0  0
  -17.6468   13.4841  -23.6508 C   0  0  0  0  0  0  0  0  0  0  0  0
  -20.4450   17.6082  -23.2715 C   0  0  0  0  0  0  0  0  0  0  0  0
  -21.7592   17.8391  -22.6786 C   0  0  0  0  0  0  0  0  0  0  0  0
  -22.2115   17.1147  -21.6174 C   0  0  0  0  0  0  0  0  0  0  0  0
  -23.4362   17.3022  -21.0021 C   0  0  0  0  0  0  0  0  0  0  0  0
  -24.2375   18.2980  -21.5189 C   0  0  0  0  0  0  0  0  0  0  0  0
  -23.8096   19.0546  -22.5987 C   0  0  0  0  0  0  0  0  0  0  0  0
  -22.5869   18.8481  -23.1917 C   0  0  0  0  0  0  0  0  0  0  0  0
  -20.9799   16.8275  -17.4523 C   0  0  0  0  0  0  0  0  0  0  0  0
  -21.8943   15.8182  -18.0065 C   0  0  0  0  0  0  0  0  0  0  0  0
  -23.3060   15.8914  -17.4798 C   0  0  0  0  0  0  0  0  0  0  0  0
  -23.3078   16.2018  -16.0495 N   0  0  0  0  0  0  0  0  0  0  0  0
  -23.5047   17.1554  -15.7391 H   0  0  0  0  0  0  0  0  0  0  0  0
  -23.0336   15.1498  -15.1462 C   0  0  0  0  0  0  0  0  0  0  0  0
  -22.1933   15.3737  -14.0002 N   0  0  0  0  0  0  0  0  0  0  0  0
  -23.5096   13.9694  -15.2986 N   0  0  0  0  0  0  0  0  0  0  0  0
  -22.5449   16.0008  -13.2547 H   0  0  0  0  0  0  0  0  0  0  0  0
  -21.2554   14.9274  -13.9051 H   0  0  0  0  0  0  0  0  0  0  0  0
  -23.3134   13.1888  -14.6393 H   0  0  0  0  0  0  0  0  0  0  0  0
  -19.8818   12.9807  -18.4031 C   0  0  0  0  0  0  0  0  0  0  0  0
  -19.2767   11.6714  -18.7687 C   0  0  0  0  0  0  0  0  0  0  0  0
  -18.9991   10.8976  -17.5377 C   0  0  0  0  0  0  0  0  0  0  0  0
  -18.0475    9.8575  -17.5184 N   0  0  0  0  0  0  0  0  0  0  0  0
  -19.6263   11.1773  -16.4907 O   0  0  0  0  0  0  0  0  0  0  0  0
  -17.0482   10.0416  -17.6567 H   0  0  0  0  0  0  0  0  0  0  0  0
  -18.3667    8.8738  -17.3574 H   0  0  0  0  0  0  0  0  0  0  0  0
 30 31  1  0  0  0
 31 28  1  0  0  0
 28 29  1  0  0  0
 28  1  1  0  0  0
  1  2  1  0  0  0
  2  3  1  0  0  0
  3  4  2  0  0  0
  3  5  1  0  0  0
  5 32  1  0  0  0
 32 33  1  0  0  0
 33 34  2  0  0  0
 34 35  1  0  0  0
 35 36  2  0  0  0
 36 37  1  0  0  0
 37 38  2  0  0  0
  5  6  1  0  0  0
  6  7  1  0  0  0
  7  8  2  0  0  0
  7  9  1  0  0  0
  9 10  1  0  0  0
 10 11  1  0  0  0
 11 12  1  0  0  0
 12 13  1  0  0  0
 13 14  1  0  0  0
 14 15  2  0  0  0
 14 16  1  0  0  0
 16 39  1  0  0  0
 39 40  1  0  0  0
 40 41  1  0  0  0
 41 42  1  0  0  0
 42 44  1  0  0  0
 44 45  1  0  0  0
 44 46  2  0  0  0
 16 17  1  0  0  0
 17 18  1  0  0  0
 18 19  2  0  0  0
 18 20  1  0  0  0
 20 50  1  0  0  0
 50 51  1  0  0  0
 51 52  1  0  0  0
 52 53  1  0  0  0
 52 54  2  0  0  0
 20 21  1  0  0  0
 21 22  1  0  0  0
 22 23  2  0  0  0
 22  1  1  0  0  0
 38 33  1  0  0  0
 13  9  1  0  0  0
  2 24  1  0  0  0
  6 25  1  0  0  0
 42 43  1  0  0  0
 45 47  1  0  0  0
 45 48  1  0  0  0
 46 49  1  0  0  0
 17 26  1  0  0  0
 53 55  1  0  0  0
 53 56  1  0  0  0
 21 27  1  0  0  0
M  END
> <minimizedAffinity>
-5.18915

> <CNNscore>
0.2900377810

> <CNNaffinity>
6.6113615036

> <CNN_VS>
1.9175446033

> <CNNaffinity_variance>
0.3307580054

$$$$
[H]c1c([H])c([H])c(-c2c([H])c([H])c([H])c([H])c2OC([H])(C2=NC([H])([H])C([H])([H])N2[H])C([H])([H])[H])c([H])c1[H]


 21 23  0  0  0  0  0  0  0  0999 V2000
  -17.5262   11.2560  -19.2814 C   0  0  0  0  0  0  0  0  0  0  0  0
  -16.5794   10.3294  -19.6979 C   0  0  0  0  0  0  0  0  0  0  0  0
  -15.9590   10.3761  -20.9329 C   0  0  0  0  0  0  0  0  0  0  0  0
  -16.3275   11.4132  -21.7662 C   0  0  0  0  0  0  0  0  0  0  0  0
  -17.2652   12.3378  -21.3637 C   0  0  0  0  0  0  0  0  0  0  0  0
  -17.8871   12.2887  -20.1222 C   0  0  0  0  0  0  0  0  0  0  0  0
  -18.8704   13.3208  -19.7853 C   0  0  0  0  0  0  0  0  0  0  0  0
  -18.4081   14.4415  -19.0848 C   0  0  0  0  0  0  0  0  0  0  0  0
  -19.2187   15.4714  -18.7150 C   0  0  0  0  0  0  0  0  0  0  0  0
  -20.5500   15.4228  -19.0362 C   0  0  0  0  0  0  0  0  0  0  0  0
  -21.0346   14.3311  -19.7264 C   0  0  0  0  0  0  0  0  0  0  0  0
  -20.1906   13.2844  -20.0976 C   0  0  0  0  0  0  0  0  0  0  0  0
  -18.1257   11.1948  -18.0619 O   0  0  0  0  0  0  0  0  0  0  0  0
  -18.7014    9.0753  -17.0288 C   0  0  0  0  0  0  0  0  0  0  0  0
  -19.1576   10.4000  -17.6038 C   0  0  0  0  0  0  0  0  0  0  0  0
  -20.0290   11.1172  -16.6039 C   0  0  0  0  0  0  0  0  0  0  0  0
  -20.5396   12.2897  -16.6842 N   0  0  0  0  0  0  0  0  0  0  0  0
  -21.3251   12.6524  -15.5327 C   0  0  0  0  0  0  0  0  0  0  0  0
  -20.8564   11.6681  -14.4852 C   0  0  0  0  0  0  0  0  0  0  0  0
  -20.4417   10.5678  -15.3367 N   0  0  0  0  0  0  0  0  0  0  0  0
  -20.4237    9.5619  -15.1286 H   0  0  0  0  0  0  0  0  0  0  0  0
 14 15  1  0  0  0
 15 13  1  0  0  0
 13  1  1  0  0  0
  1  2  2  0  0  0
  2  3  1  0  0  0
  3  4  2  0  0  0
  4  5  1  0  0  0
  5  6  2  0  0  0
  6  7  1  0  0  0
  7  8  2  0  0  0
  8  9  1  0  0  0
  9 10  2  0  0  0
 10 11  1  0  0  0
 11 12  2  0  0  0
 15 16  1  0  0  0
 16 17  2  0  0  0
 17 18  1  0  0  0
 18 19  1  0  0  0
 19 20  1  0  0  0
  6  1  1  0  0  0
 12  7  1  0  0  0
 20 16  1  0  0  0
 20 21  1  0  0  0
M  END
> <minimizedAffinity>
-6.81437

> <CNNscore>
0.4636964798

> <CNNaffinity>
4.8279180527

> <CNN_VS>
2.2386887074

> <CNNaffinity_variance>
0.3160886168

$$$$
[H]c1c([H])c([H])c(-c2c([H])c([H])c([H])c([H])c2OC([H])(C2=NC([H])([H])C([H])([H])N2[H])C([H])([H])[H])c([H])c1[H]


 21 23  0  0  0  0  0  0  0  0999 V2000
  -18.1226   13.4914  -20.6271 C   0  0  0  0  0  0  0  0  0  0  0  0
  -17.5441   13.9773  -21.7923 C   0  0  0  0  0  0  0  0  0  0  0  0
  -16.6969   13.2314  -22.5911 C   0  0  0  0  0  0  0  0  0  0  0  0
  -16.4377   11.9411  -22.1742 C   0  0  0  0  0  0  0  0  0  0  0  0
  -17.0059   11.4487  -21.0206 C   0  0  0  0  0  0  0  0  0  0  0  0
  -17.8569   12.2003  -20.2197 C   0  0  0  0  0  0  0  0  0  0  0  0
  -18.4136   11.5858  -19.0121 C   0  0  0  0  0  0  0  0  0  0  0  0
  -17.9823   10.2921  -18.6948 C   0  0  0  0  0  0  0  0  0  0  0  0
  -18.4204    9.6119  -17.5993 C   0  0  0  0  0  0  0  0  0  0  0  0
  -19.3249   10.2081  -16.7599 C   0  0  0  0  0  0  0  0  0  0  0  0
  -19.7681   11.4826  -17.0468 C   0  0  0  0  0  0  0  0  0  0  0  0
  -19.3092   12.1654  -18.1733 C   0  0  0  0  0  0  0  0  0  0  0  0
  -18.9548   14.2396  -19.8539 O   0  0  0  0  0  0  0  0  0  0  0  0
  -20.2120   16.1621  -20.6379 C   0  0  0  0  0  0  0  0  0  0  0  0
  -19.1095   15.6085  -19.7595 C   0  0  0  0  0  0  0  0  0  0  0  0
  -19.3147   16.0623  -18.3363 C   0  0  0  0  0  0  0  0  0  0  0  0
  -20.2863   15.7960  -17.5443 N   0  0  0  0  0  0  0  0  0  0  0  0
  -20.1503   16.4049  -16.2461 C   0  0  0  0  0  0  0  0  0  0  0  0
  -19.1275   17.4907  -16.4920 C   0  0  0  0  0  0  0  0  0  0  0  0
  -18.4043   16.9115  -17.6097 N   0  0  0  0  0  0  0  0  0  0  0  0
  -17.4231   17.0457  -17.8828 H   0  0  0  0  0  0  0  0  0  0  0  0
 14 15  1  0  0  0
 15 13  1  0  0  0
 13  1  1  0  0  0
  1  2  2  0  0  0
  2  3  1  0  0  0
  3  4  2  0  0  0
  4  5  1  0  0  0
  5  6  2  0  0  0
  6  7  1  0  0  0
  7  8  2  0  0  0
  8  9  1  0  0  0
  9 10  2  0  0  0
 10 11  1  0  0  0
 11 12  2  0  0  0
 15 16  1  0  0  0
 16 17  2  0  0  0
 17 18  1  0  0  0
 18 19  1  0  0  0
 19 20  1  0  0  0
  6  1  1  0  0  0
 12  7  1  0  0  0
 20 16  1  0  0  0
 20 21  1  0  0  0
M  END
> <minimizedAffinity>
-6.71144

> <CNNscore>
0.4120647013

> <CNNaffinity>
5.0414152145

> <CNN_VS>
2.0773892403

> <CNNaffinity_variance>
0.1451845020

$$$$
[H]c1c([H])c([H])c(-c2c([H])c([H])c([H])c([H])c2OC([H])(C2=NC([H])([H])C([H])([H])N2[H])C([H])([H])[H])c([H])c1[H]


 21 23  0  0  0  0  0  0  0  0999 V2000
  -17.5778   13.9016  -21.0238 C   0  0  0  0  0  0  0  0  0  0  0  0
  -17.8785   13.3158  -19.8011 C   0  0  0  0  0  0  0  0  0  0  0  0
  -17.7191   11.9667  -19.5426 C   0  0  0  0  0  0  0  0  0  0  0  0
  -17.2333   11.1960  -20.5797 C   0  0  0  0  0  0  0  0  0  0  0  0
  -16.9317   11.7661  -21.7963 C   0  0  0  0  0  0  0  0  0  0  0  0
  -17.0927   13.1219  -22.0536 C   0  0  0  0  0  0  0  0  0  0  0  0
  -16.7411   13.6341  -23.3802 C   0  0  0  0  0  0  0  0  0  0  0  0
  -15.3856   13.8751  -23.6350 C   0  0  0  0  0  0  0  0  0  0  0  0
  -14.9275   14.3476  -24.8272 C   0  0  0  0  0  0  0  0  0  0  0  0
  -15.8224   14.6037  -25.8331 C   0  0  0  0  0  0  0  0  0  0  0  0
  -17.1647   14.3758  -25.6114 C   0  0  0  0  0  0  0  0  0  0  0  0
  -17.6173   13.8914  -24.3840 C   0  0  0  0  0  0  0  0  0  0  0  0
  -17.7401   15.2313  -21.2600 O   0  0  0  0  0  0  0  0  0  0  0  0
  -16.3736   17.0970  -21.9964 C   0  0  0  0  0  0  0  0  0  0  0  0
  -16.9898   16.3170  -20.8540 C   0  0  0  0  0  0  0  0  0  0  0  0
  -17.7713   17.2489  -19.9628 C   0  0  0  0  0  0  0  0  0  0  0  0
  -18.8266   17.0034  -19.2786 N   0  0  0  0  0  0  0  0  0  0  0  0
  -19.3055   18.1411  -18.5363 C   0  0  0  0  0  0  0  0  0  0  0  0
  -18.6207   19.3005  -19.2236 C   0  0  0  0  0  0  0  0  0  0  0  0
  -17.4368   18.6321  -19.7327 N   0  0  0  0  0  0  0  0  0  0  0  0
  -16.5040   19.0217  -19.9160 H   0  0  0  0  0  0  0  0  0  0  0  0
 14 15  1  0  0  0
 15 13  1  0  0  0
 13  1  1  0  0  0
  1  2  2  0  0  0
  2  3  1  0  0  0
  3  4  2  0  0  0
  4  5  1  0  0  0
  5  6  2  0  0  0
  6  7  1  0  0  0
  7  8  2  0  0  0
  8  9  1  0  0  0
  9 10  2  0  0  0
 10 11  1  0  0  0
 11 12  2  0  0  0
 15 16  1  0  0  0
 16 17  2  0  0  0
 17 18  1  0  0  0
 18 19  1  0  0  0
 19 20  1  0  0  0
  6  1  1  0  0  0
 12  7  1  0  0  0
 20 16  1  0  0  0
 20 21  1  0  0  0
M  END
> <minimizedAffinity>
-7.46820

> <CNNscore>
0.3992171288

> <CNNaffinity>
5.3080325127

> <CNN_VS>
2.1190574169

> <CNNaffinity_variance>
0.2292811424

$$$$
[H]c1c([H])c([H])c(-c2c([H])c([H])c([H])c([H])c2OC([H])(C2=NC([H])([H])C([H])([H])N2[H])C([H])([H])[H])c([H])c1[H]


 21 23  0  0  0  0  0  0  0  0999 V2000
  -17.2271   12.1507  -21.5378 C   0  0  0  0  0  0  0  0  0  0  0  0
  -16.3303   11.0906  -21.5586 C   0  0  0  0  0  0  0  0  0  0  0  0
  -16.0045   10.3458  -20.4400 C   0  0  0  0  0  0  0  0  0  0  0  0
  -16.6243   10.7065  -19.2604 C   0  0  0  0  0  0  0  0  0  0  0  0
  -17.5151   11.7559  -19.2279 C   0  0  0  0  0  0  0  0  0  0  0  0
  -17.8410   12.5027  -20.3533 C   0  0  0  0  0  0  0  0  0  0  0  0
  -18.8027   13.5991  -20.2173 C   0  0  0  0  0  0  0  0  0  0  0  0
  -18.2922   14.9029  -20.2200 C   0  0  0  0  0  0  0  0  0  0  0  0
  -19.0795   16.0080  -20.1042 C   0  0  0  0  0  0  0  0  0  0  0  0
  -20.4353   15.8527  -19.9786 C   0  0  0  0  0  0  0  0  0  0  0  0
  -20.9675   14.5801  -19.9729 C   0  0  0  0  0  0  0  0  0  0  0  0
  -20.1467   13.4585  -20.0924 C   0  0  0  0  0  0  0  0  0  0  0  0
  -17.5365   12.8720  -22.6488 O   0  0  0  0  0  0  0  0  0  0  0  0
  -17.5455   12.6886  -25.0690 C   0  0  0  0  0  0  0  0  0  0  0  0
  -16.8174   13.0980  -23.8058 C   0  0  0  0  0  0  0  0  0  0  0  0
  -16.3596   14.5299  -23.9219 C   0  0  0  0  0  0  0  0  0  0  0  0
  -16.2223   15.4032  -22.9943 N   0  0  0  0  0  0  0  0  0  0  0  0
  -15.7601   16.6803  -23.4739 C   0  0  0  0  0  0  0  0  0  0  0  0
  -16.0558   16.6079  -24.9548 C   0  0  0  0  0  0  0  0  0  0  0  0
  -15.9891   15.1720  -25.1582 N   0  0  0  0  0  0  0  0  0  0  0  0
  -15.7316   14.6514  -26.0057 H   0  0  0  0  0  0  0  0  0  0  0  0
 14 15  1  0  0  0
 15 13  1  0  0  0
 13  1  1  0  0  0
  1  2  2  0  0  0
  2  3  1  0  0  0
  3  4  2  0  0  0
  4  5  1  0  0  0
  5  6  2  0  0  0
  6  7  1  0  0  0
  7  8  2  0  0  0
  8  9  1  0  0  0
  9 10  2  0  0  0
 10 11  1  0  0  0
 11 12  2  0  0  0
 15 16  1  0  0  0
 16 17  2  0  0  0
 17 18  1  0  0  0
 18 19  1  0  0  0
 19 20  1  0  0  0
  6  1  1  0  0  0
 12  7  1  0  0  0
 20 16  1  0  0  0
 20 21  1  0  0  0
M  END
> <minimizedAffinity>
-7.39618

> <CNNscore>
0.3844763935

> <CNNaffinity>
5.4228811264

> <CNN_VS>
2.0849697590

> <CNNaffinity_variance>
0.1349951476

$$$$
[H]c1c([H])c([H])c(-c2c([H])c([H])c([H])c([H])c2OC([H])(C2=NC([H])([H])C([H])([H])N2[H])C([H])([H])[H])c([H])c1[H]


 21 23  0  0  0  0  0  0  0  0999 V2000
  -16.6204   14.8080  -23.0341 C   0  0  0  0  0  0  0  0  0  0  0  0
  -16.4928   15.4730  -24.2465 C   0  0  0  0  0  0  0  0  0  0  0  0
  -16.8572   14.9206  -25.4608 C   0  0  0  0  0  0  0  0  0  0  0  0
  -17.3704   13.6397  -25.4232 C   0  0  0  0  0  0  0  0  0  0  0  0
  -17.5016   12.9708  -24.2268 C   0  0  0  0  0  0  0  0  0  0  0  0
  -17.1347   13.5280  -23.0080 C   0  0  0  0  0  0  0  0  0  0  0  0
  -17.3155   12.7368  -21.7886 C   0  0  0  0  0  0  0  0  0  0  0  0
  -18.3785   13.0893  -20.9482 C   0  0  0  0  0  0  0  0  0  0  0  0
  -18.6561   12.4325  -19.7880 C   0  0  0  0  0  0  0  0  0  0  0  0
  -17.8678   11.3762  -19.4128 C   0  0  0  0  0  0  0  0  0  0  0  0
  -16.8129   11.0055  -20.2208 C   0  0  0  0  0  0  0  0  0  0  0  0
  -16.5423   11.6892  -21.4062 C   0  0  0  0  0  0  0  0  0  0  0  0
  -16.2574   15.3677  -21.8486 O   0  0  0  0  0  0  0  0  0  0  0  0
  -16.0622   17.1903  -20.2578 C   0  0  0  0  0  0  0  0  0  0  0  0
  -16.9474   16.2125  -21.0020 C   0  0  0  0  0  0  0  0  0  0  0  0
  -18.0470   16.9594  -21.7136 C   0  0  0  0  0  0  0  0  0  0  0  0
  -19.2740   16.6225  -21.8653 N   0  0  0  0  0  0  0  0  0  0  0  0
  -20.0455   17.5873  -22.6059 C   0  0  0  0  0  0  0  0  0  0  0  0
  -18.9800   18.4050  -23.3000 C   0  0  0  0  0  0  0  0  0  0  0  0
  -17.8792   18.2321  -22.3694 N   0  0  0  0  0  0  0  0  0  0  0  0
  -17.0953   18.8661  -22.1718 H   0  0  0  0  0  0  0  0  0  0  0  0
 14 15  1  0  0  0
 15 13  1  0  0  0
 13  1  1  0  0  0
  1  2  2  0  0  0
  2  3  1  0  0  0
  3  4  2  0  0  0
  4  5  1  0  0  0
  5  6  2  0  0  0
  6  7  1  0  0  0
  7  8  2  0  0  0
  8  9  1  0  0  0
  9 10  2  0  0  0
 10 11  1  0  0  0
 11 12  2  0  0  0
 15 16  1  0  0  0
 16 17  2  0  0  0
 17 18  1  0  0  0
 18 19  1  0  0  0
 19 20  1  0  0  0
  6  1  1  0  0  0
 12  7  1  0  0  0
 20 16  1  0  0  0
 20 21  1  0  0  0
M  END
> <minimizedAffinity>
-6.84986

> <CNNscore>
0.3834952712

> <CNNaffinity>
5.2771759033

> <CNN_VS>
2.0237720013

> <CNNaffinity_variance>
0.2030593455

$$$$
[H]c1c([H])c([H])c(-c2c([H])c([H])c([H])c([H])c2OC([H])(C2=NC([H])([H])C([H])([H])N2[H])C([H])([H])[H])c([H])c1[H]


 21 23  0  0  0  0  0  0  0  0999 V2000
  -17.4182   12.5862  -21.0889 C   0  0  0  0  0  0  0  0  0  0  0  0
  -17.5526   11.7966  -19.9544 C   0  0  0  0  0  0  0  0  0  0  0  0
  -16.8695   10.6089  -19.7672 C   0  0  0  0  0  0  0  0  0  0  0  0
  -16.0194   10.2227  -20.7841 C   0  0  0  0  0  0  0  0  0  0  0  0
  -15.8783   10.9977  -21.9134 C   0  0  0  0  0  0  0  0  0  0  0  0
  -16.5657   12.1908  -22.0991 C   0  0  0  0  0  0  0  0  0  0  0  0
  -16.3457   12.9458  -23.3349 C   0  0  0  0  0  0  0  0  0  0  0  0
  -17.3576   12.9009  -24.3017 C   0  0  0  0  0  0  0  0  0  0  0  0
  -17.2776   13.5606  -25.4903 C   0  0  0  0  0  0  0  0  0  0  0  0
  -16.1618   14.3065  -25.7671 C   0  0  0  0  0  0  0  0  0  0  0  0
  -15.1481   14.3698  -24.8336 C   0  0  0  0  0  0  0  0  0  0  0  0
  -15.2460   13.6879  -23.6207 C   0  0  0  0  0  0  0  0  0  0  0  0
  -18.0979   13.7526  -21.2556 O   0  0  0  0  0  0  0  0  0  0  0  0
  -18.1681   15.9653  -22.2506 C   0  0  0  0  0  0  0  0  0  0  0  0
  -17.6813   15.0636  -21.1355 C   0  0  0  0  0  0  0  0  0  0  0  0
  -18.0499   15.6589  -19.8002 C   0  0  0  0  0  0  0  0  0  0  0  0
  -18.3647   15.0547  -18.7149 N   0  0  0  0  0  0  0  0  0  0  0  0
  -18.6591   15.9500  -17.6256 C   0  0  0  0  0  0  0  0  0  0  0  0
  -18.9175   17.2615  -18.3319 C   0  0  0  0  0  0  0  0  0  0  0  0
  -18.1110   17.0724  -19.5241 N   0  0  0  0  0  0  0  0  0  0  0  0
  -17.6440   17.7785  -20.1063 H   0  0  0  0  0  0  0  0  0  0  0  0
 14 15  1  0  0  0
 15 13  1  0  0  0
 13  1  1  0  0  0
  1  2  2  0  0  0
  2  3  1  0  0  0
  3  4  2  0  0  0
  4  5  1  0  0  0
  5  6  2  0  0  0
  6  7  1  0  0  0
  7  8  2  0  0  0
  8  9  1  0  0  0
  9 10  2  0  0  0
 10 11  1  0  0  0
 11 12  2  0  0  0
 15 16  1  0  0  0
 16 17  2  0  0  0
 17 18  1  0  0  0
 18 19  1  0  0  0
 19 20  1  0  0  0
  6  1  1  0  0  0
 12  7  1  0  0  0
 20 16  1  0  0  0
 20 21  1  0  0  0
M  END
> <minimizedAffinity>
-7.33712

> <CNNscore>
0.3805340827

> <CNNaffinity>
5.4857220650

> <CNN_VS>
2.0875041485

> <CNNaffinity_variance>
0.1753938943

$$$$
[H]c1c([H])c([H])c(-c2c([H])c([H])c([H])c([H])c2OC([H])(C2=NC([H])([H])C([H])([H])N2[H])C([H])([H])[H])c([H])c1[H]


 21 23  0  0  0  0  0  0  0  0999 V2000
  -17.8417   12.0018  -19.0435 C   0  0  0  0  0  0  0  0  0  0  0  0
  -17.3397   10.7138  -18.9111 C   0  0  0  0  0  0  0  0  0  0  0  0
  -16.6864   10.0422  -19.9282 C   0  0  0  0  0  0  0  0  0  0  0  0
  -16.5461   10.7217  -21.1216 C   0  0  0  0  0  0  0  0  0  0  0  0
  -17.0399   11.9991  -21.2642 C   0  0  0  0  0  0  0  0  0  0  0  0
  -17.6960   12.6719  -20.2407 C   0  0  0  0  0  0  0  0  0  0  0  0
  -18.1831   14.0307  -20.4896 C   0  0  0  0  0  0  0  0  0  0  0  0
  -17.2337   15.0598  -20.4984 C   0  0  0  0  0  0  0  0  0  0  0  0
  -17.5557   16.3642  -20.7207 C   0  0  0  0  0  0  0  0  0  0  0  0
  -18.8648   16.7003  -20.9476 C   0  0  0  0  0  0  0  0  0  0  0  0
  -19.8228   15.7077  -20.9450 C   0  0  0  0  0  0  0  0  0  0  0  0
  -19.4759   14.3762  -20.7156 C   0  0  0  0  0  0  0  0  0  0  0  0
  -18.4811   12.6476  -18.0314 O   0  0  0  0  0  0  0  0  0  0  0  0
  -19.8938   11.6210  -16.3458 C   0  0  0  0  0  0  0  0  0  0  0  0
  -19.7715   12.5232  -17.5559 C   0  0  0  0  0  0  0  0  0  0  0  0
  -20.4019   13.8608  -17.2610 C   0  0  0  0  0  0  0  0  0  0  0  0
  -21.4818   14.3584  -17.7386 N   0  0  0  0  0  0  0  0  0  0  0  0
  -21.7825   15.6711  -17.2276 C   0  0  0  0  0  0  0  0  0  0  0  0
  -20.4531   16.1240  -16.6678 C   0  0  0  0  0  0  0  0  0  0  0  0
  -19.8581   14.8381  -16.3516 N   0  0  0  0  0  0  0  0  0  0  0  0
  -19.1702   14.6064  -15.6245 H   0  0  0  0  0  0  0  0  0  0  0  0
 14 15  1  0  0  0
 15 13  1  0  0  0
 13  1  1  0  0  0
  1  2  2  0  0  0
  2  3  1  0  0  0
  3  4  2  0  0  0
  4  5  1  0  0  0
  5  6  2  0  0  0
  6  7  1  0  0  0
  7  8  2  0  0  0
  8  9  1  0  0  0
  9 10  2  0  0  0
 10 11  1  0  0  0
 11 12  2  0  0  0
 15 16  1  0  0  0
 16 17  2  0  0  0
 17 18  1  0  0  0
 18 19  1  0  0  0
 19 20  1  0  0  0
  6  1  1  0  0  0
 12  7  1  0  0  0
 20 16  1  0  0  0
 20 21  1  0  0  0
M  END
> <minimizedAffinity>
-6.54405

> <CNNscore>
0.3781459033

> <CNNaffinity>
4.7935495377

> <CNN_VS>
1.8126611710

> <CNNaffinity_variance>
0.3046171963

$$$$
[H]c1c([H])c([H])c(-c2c([H])c([H])c([H])c([H])c2OC([H])(C2=NC([H])([H])C([H])([H])N2[H])C([H])([H])[H])c([H])c1[H]


 21 23  0  0  0  0  0  0  0  0999 V2000
  -17.5161   12.3914  -21.4553 C   0  0  0  0  0  0  0  0  0  0  0  0
  -17.6436   11.5778  -20.3371 C   0  0  0  0  0  0  0  0  0  0  0  0
  -16.7760   10.5412  -20.0459 C   0  0  0  0  0  0  0  0  0  0  0  0
  -15.7422   10.3369  -20.9377 C   0  0  0  0  0  0  0  0  0  0  0  0
  -15.6060   11.1374  -22.0497 C   0  0  0  0  0  0  0  0  0  0  0  0
  -16.4791   12.1785  -22.3401 C   0  0  0  0  0  0  0  0  0  0  0  0
  -16.2484   12.9758  -23.5470 C   0  0  0  0  0  0  0  0  0  0  0  0
  -17.2288   12.9248  -24.5454 C   0  0  0  0  0  0  0  0  0  0  0  0
  -17.1361   13.6208  -25.7122 C   0  0  0  0  0  0  0  0  0  0  0  0
  -16.0388   14.4114  -25.9337 C   0  0  0  0  0  0  0  0  0  0  0  0
  -15.0562   14.4817  -24.9680 C   0  0  0  0  0  0  0  0  0  0  0  0
  -15.1667   13.7622  -23.7780 C   0  0  0  0  0  0  0  0  0  0  0  0
  -18.3790   13.4076  -21.7254 O   0  0  0  0  0  0  0  0  0  0  0  0
  -17.7199   14.8484  -19.8867 C   0  0  0  0  0  0  0  0  0  0  0  0
  -18.4734   14.6765  -21.1891 C   0  0  0  0  0  0  0  0  0  0  0  0
  -18.0500   15.7422  -22.1680 C   0  0  0  0  0  0  0  0  0  0  0  0
  -18.5568   16.0255  -23.3103 N   0  0  0  0  0  0  0  0  0  0  0  0
  -17.8913   17.1145  -23.9780 C   0  0  0  0  0  0  0  0  0  0  0  0
  -16.5667   17.1911  -23.2532 C   0  0  0  0  0  0  0  0  0  0  0  0
  -16.9515   16.6525  -21.9612 N   0  0  0  0  0  0  0  0  0  0  0  0
  -16.5509   16.8472  -21.0354 H   0  0  0  0  0  0  0  0  0  0  0  0
 14 15  1  0  0  0
 15 13  1  0  0  0
 13  1  1  0  0  0
  1  2  2  0  0  0
  2  3  1  0  0  0
  3  4  2  0  0  0
  4  5  1  0  0  0
  5  6  2  0  0  0
  6  7  1  0  0  0
  7  8  2  0  0  0
  8  9  1  0  0  0
  9 10  2  0  0  0
 10 11  1  0  0  0
 11 12  2  0  0  0
 15 16  1  0  0  0
 16 17  2  0  0  0
 17 18  1  0  0  0
 18 19  1  0  0  0
 19 20  1  0  0  0
  6  1  1  0  0  0
 12  7  1  0  0  0
 20 16  1  0  0  0
 20 21  1  0  0  0
M  END
> <minimizedAffinity>
-7.28798

> <CNNscore>
0.3750666678

> <CNNaffinity>
5.4982438087

> <CNN_VS>
2.0622079372

> <CNNaffinity_variance>
0.2190779746

$$$$
[H]c1c([H])c([H])c(-c2c([H])c([H])c([H])c([H])c2OC([H])(C2=NC([H])([H])C([H])([H])N2[H])C([H])([H])[H])c([H])c1[H]


 21 23  0  0  0  0  0  0  0  0999 V2000
  -17.5584   12.4211  -21.4101 C   0  0  0  0  0  0  0  0  0  0  0  0
  -17.6646   11.6382  -20.2680 C   0  0  0  0  0  0  0  0  0  0  0  0
  -16.7964   10.6041  -19.9695 C   0  0  0  0  0  0  0  0  0  0  0  0
  -15.7850   10.3695  -20.8793 C   0  0  0  0  0  0  0  0  0  0  0  0
  -15.6701   11.1394  -22.0151 C   0  0  0  0  0  0  0  0  0  0  0  0
  -16.5437   12.1781  -22.3128 C   0  0  0  0  0  0  0  0  0  0  0  0
  -16.3365   12.9416  -23.5456 C   0  0  0  0  0  0  0  0  0  0  0  0
  -15.1489   13.6755  -23.6524 C   0  0  0  0  0  0  0  0  0  0  0  0
  -14.8349   14.4233  -24.7464 C   0  0  0  0  0  0  0  0  0  0  0  0
  -15.7116   14.4693  -25.7987 C   0  0  0  0  0  0  0  0  0  0  0  0
  -16.8901   13.7563  -25.7222 C   0  0  0  0  0  0  0  0  0  0  0  0
  -17.1964   12.9952  -24.5941 C   0  0  0  0  0  0  0  0  0  0  0  0
  -18.4214   13.4354  -21.6871 O   0  0  0  0  0  0  0  0  0  0  0  0
  -17.7552   14.9019  -19.8716 C   0  0  0  0  0  0  0  0  0  0  0  0
  -18.5014   14.7156  -21.1761 C   0  0  0  0  0  0  0  0  0  0  0  0
  -18.0553   15.7560  -22.1722 C   0  0  0  0  0  0  0  0  0  0  0  0
  -18.5516   16.0267  -23.3221 N   0  0  0  0  0  0  0  0  0  0  0  0
  -17.8646   17.0920  -24.0061 C   0  0  0  0  0  0  0  0  0  0  0  0
  -16.5426   17.1597  -23.2758 C   0  0  0  0  0  0  0  0  0  0  0  0
  -16.9427   16.6514  -21.9762 N   0  0  0  0  0  0  0  0  0  0  0  0
  -16.5435   16.8564  -21.0520 H   0  0  0  0  0  0  0  0  0  0  0  0
 14 15  1  0  0  0
 15 13  1  0  0  0
 13  1  1  0  0  0
  1  2  2  0  0  0
  2  3  1  0  0  0
  3  4  2  0  0  0
  4  5  1  0  0  0
  5  6  2  0  0  0
  6  7  1  0  0  0
  7  8  2  0  0  0
  8  9  1  0  0  0
  9 10  2  0  0  0
 10 11  1  0  0  0
 11 12  2  0  0  0
 15 16  1  0  0  0
 16 17  2  0  0  0
 17 18  1  0  0  0
 18 19  1  0  0  0
 19 20  1  0  0  0
  6  1  1  0  0  0
 12  7  1  0  0  0
 20 16  1  0  0  0
 20 21  1  0  0  0
M  END
> <minimizedAffinity>
-7.29621

> <CNNscore>
0.3710978627

> <CNNaffinity>
5.4862804413

> <CNN_VS>
2.0359468460

> <CNNaffinity_variance>
0.2235401869

$$$$
[H]c1nc([C@@]2([H])C([H])([H])[C@]2([H])C([H])([H])Oc2nc(C([H])([H])[H])nc([H])c2-c2c([H])c([H])c(=O)n(C([H])([H])[H])c2[H])c([H])c([H])c1OC([H])([H])[H]


 28 31  0  0  0  0  0  0  0  0999 V2000
  -17.7253   12.9905  -21.6905 C   0  0  0  0  0  0  0  0  0  0  0  0
  -17.8236   12.3764  -20.4958 N   0  0  0  0  0  0  0  0  0  0  0  0
  -17.0687   11.3347  -20.1133 C   0  0  0  0  0  0  0  0  0  0  0  0
  -17.2079   10.6842  -18.7852 C   0  0  0  0  0  0  0  0  0  0  0  0
  -16.1542   10.8775  -20.9857 N   0  0  0  0  0  0  0  0  0  0  0  0
  -16.0044   11.4452  -22.1950 C   0  0  0  0  0  0  0  0  0  0  0  0
  -16.7917   12.5316  -22.5937 C   0  0  0  0  0  0  0  0  0  0  0  0
  -16.6329   13.1497  -23.8930 C   0  0  0  0  0  0  0  0  0  0  0  0
  -17.5533   12.9067  -24.8872 C   0  0  0  0  0  0  0  0  0  0  0  0
  -17.4216   13.4881  -26.1500 C   0  0  0  0  0  0  0  0  0  0  0  0
  -16.3547   14.3156  -26.3999 C   0  0  0  0  0  0  0  0  0  0  0  0
  -16.2632   14.8285  -27.5571 O   0  0  0  0  0  0  0  0  0  0  0  0
  -15.4646   14.5489  -25.4333 N   0  0  0  0  0  0  0  0  0  0  0  0
  -14.3436   15.4247  -25.7119 C   0  0  0  0  0  0  0  0  0  0  0  0
  -15.5854   13.9873  -24.2027 C   0  0  0  0  0  0  0  0  0  0  0  0
  -18.5174   14.0541  -22.0446 O   0  0  0  0  0  0  0  0  0  0  0  0
  -18.2322   15.4085  -21.9024 C   0  0  0  0  0  0  0  0  0  0  0  0
  -18.4271   17.1295  -20.0455 C   0  0  0  0  0  0  0  0  0  0  0  0
  -16.9464   17.0077  -20.3155 C   0  0  0  0  0  0  0  0  0  0  0  0
  -17.8452   15.8372  -20.5176 C   0  0  0  0  0  0  0  0  0  0  0  0
  -19.3768   17.4909  -15.8965 C   0  0  0  0  0  0  0  0  0  0  0  0
  -19.0845   16.2683  -16.4629 C   0  0  0  0  0  0  0  0  0  0  0  0
  -18.7794   16.1459  -17.7918 C   0  0  0  0  0  0  0  0  0  0  0  0
  -18.7571   17.2572  -18.6047 C   0  0  0  0  0  0  0  0  0  0  0  0
  -19.0443   18.4447  -18.0396 N   0  0  0  0  0  0  0  0  0  0  0  0
  -19.3478   18.6006  -16.7392 C   0  0  0  0  0  0  0  0  0  0  0  0
  -20.6628   18.5895  -14.1963 C   0  0  0  0  0  0  0  0  0  0  0  0
  -19.6883   17.6354  -14.5518 O   0  0  0  0  0  0  0  0  0  0  0  0
 27 28  1  0  0  0
 28 21  1  0  0  0
 21 22  2  0  0  0
 22 23  1  0  0  0
 23 24  2  0  0  0
 24 25  1  0  0  0
 25 26  2  0  0  0
 24 18  1  0  0  0
 18 19  1  0  0  0
 19 20  1  0  0  0
 20 17  1  0  0  0
 17 16  1  0  0  0
 16  1  1  0  0  0
  1  2  2  0  0  0
  2  3  1  0  0  0
  3  4  1  0  0  0
  3  5  2  0  0  0
  5  6  1  0  0  0
  6  7  2  0  0  0
  7  8  1  0  0  0
  8  9  1  0  0  0
  9 10  2  0  0  0
 10 11  1  0  0  0
 11 12  2  0  0  0
 11 13  1  0  0  0
 13 14  1  0  0  0
 13 15  1  0  0  0
 26 21  1  0  0  0
 20 18  1  0  0  0
  7  1  1  0  0  0
 15  8  2  0  0  0
M  END
> <minimizedAffinity>
-7.92068

> <CNNscore>
0.6313328147

> <CNNaffinity>
7.2249174118

> <CNN_VS>
4.5613274574

> <CNNaffinity_variance>
0.2961558998

$$$$
[H]c1nc([C@@]2([H])C([H])([H])[C@]2([H])C([H])([H])Oc2nc(C([H])([H])[H])nc([H])c2-c2c([H])c([H])c(=O)n(C([H])([H])[H])c2[H])c([H])c([H])c1OC([H])([H])[H]


 28 31  0  0  0  0  0  0  0  0999 V2000
  -18.1029   12.3846  -19.6670 C   0  0  0  0  0  0  0  0  0  0  0  0
  -17.1767   11.9022  -20.5177 N   0  0  0  0  0  0  0  0  0  0  0  0
  -16.5857   10.7033  -20.3963 C   0  0  0  0  0  0  0  0  0  0  0  0
  -15.5672   10.2068  -21.3569 C   0  0  0  0  0  0  0  0  0  0  0  0
  -16.9463    9.9363  -19.3532 N   0  0  0  0  0  0  0  0  0  0  0  0
  -17.8652   10.3580  -18.4670 C   0  0  0  0  0  0  0  0  0  0  0  0
  -18.4815   11.6081  -18.5938 C   0  0  0  0  0  0  0  0  0  0  0  0
  -19.4742   12.0665  -17.6452 C   0  0  0  0  0  0  0  0  0  0  0  0
  -20.2241   11.1532  -16.9393 C   0  0  0  0  0  0  0  0  0  0  0  0
  -21.1900   11.5690  -16.0206 C   0  0  0  0  0  0  0  0  0  0  0  0
  -21.3920   12.9125  -15.8210 C   0  0  0  0  0  0  0  0  0  0  0  0
  -22.2769   13.2582  -14.9796 O   0  0  0  0  0  0  0  0  0  0  0  0
  -20.6628   13.7949  -16.5072 N   0  0  0  0  0  0  0  0  0  0  0  0
  -20.8873   15.2097  -16.2857 C   0  0  0  0  0  0  0  0  0  0  0  0
  -19.7216   13.3986  -17.4024 C   0  0  0  0  0  0  0  0  0  0  0  0
  -18.6842   13.6179  -19.8257 O   0  0  0  0  0  0  0  0  0  0  0  0
  -18.0498   14.8555  -19.8674 C   0  0  0  0  0  0  0  0  0  0  0  0
  -16.5993   15.3254  -21.8980 C   0  0  0  0  0  0  0  0  0  0  0  0
  -17.0921   16.6788  -21.4446 C   0  0  0  0  0  0  0  0  0  0  0  0
  -17.9297   15.4653  -21.2331 C   0  0  0  0  0  0  0  0  0  0  0  0
  -16.5198   14.8790  -26.1455 C   0  0  0  0  0  0  0  0  0  0  0  0
  -15.5496   15.5983  -25.4803 C   0  0  0  0  0  0  0  0  0  0  0  0
  -15.5696   15.7450  -24.1194 C   0  0  0  0  0  0  0  0  0  0  0  0
  -16.5735   15.1691  -23.3731 C   0  0  0  0  0  0  0  0  0  0  0  0
  -17.5144   14.4695  -24.0345 N   0  0  0  0  0  0  0  0  0  0  0  0
  -17.5251   14.3057  -25.3688 C   0  0  0  0  0  0  0  0  0  0  0  0
  -15.6573   15.5372  -28.2842 C   0  0  0  0  0  0  0  0  0  0  0  0
  -16.5169   14.7189  -27.5241 O   0  0  0  0  0  0  0  0  0  0  0  0
 27 28  1  0  0  0
 28 21  1  0  0  0
 21 22  2  0  0  0
 22 23  1  0  0  0
 23 24  2  0  0  0
 24 25  1  0  0  0
 25 26  2  0  0  0
 24 18  1  0  0  0
 18 19  1  0  0  0
 19 20  1  0  0  0
 20 17  1  0  0  0
 17 16  1  0  0  0
 16  1  1  0  0  0
  1  2  2  0  0  0
  2  3  1  0  0  0
  3  4  1  0  0  0
  3  5  2  0  0  0
  5  6  1  0  0  0
  6  7  2  0  0  0
  7  8  1  0  0  0
  8  9  1  0  0  0
  9 10  2  0  0  0
 10 11  1  0  0  0
 11 12  2  0  0  0
 11 13  1  0  0  0
 13 14  1  0  0  0
 13 15  1  0  0  0
 26 21  1  0  0  0
 20 18  1  0  0  0
  7  1  1  0  0  0
 15  8  2  0  0  0
M  END
> <minimizedAffinity>
-7.87289

> <CNNscore>
0.5983826518

> <CNNaffinity>
6.9623923302

> <CNN_VS>
4.1661748886

> <CNNaffinity_variance>
0.1166710109

$$$$
[H]c1nc([C@@]2([H])C([H])([H])[C@]2([H])C([H])([H])Oc2nc(C([H])([H])[H])nc([H])c2-c2c([H])c([H])c(=O)n(C([H])([H])[H])c2[H])c([H])c([H])c1OC([H])([H])[H]


 28 31  0  0  0  0  0  0  0  0999 V2000
  -17.8959   12.6037  -20.9599 C   0  0  0  0  0  0  0  0  0  0  0  0
  -18.1706   11.9038  -19.8424 N   0  0  0  0  0  0  0  0  0  0  0  0
  -17.5129   10.7989  -19.4578 C   0  0  0  0  0  0  0  0  0  0  0  0
  -17.8466   10.0543  -18.2166 C   0  0  0  0  0  0  0  0  0  0  0  0
  -16.5132   10.3660  -20.2451 N   0  0  0  0  0  0  0  0  0  0  0  0
  -16.1876   11.0184  -21.3745 C   0  0  0  0  0  0  0  0  0  0  0  0
  -16.8735   12.1707  -21.7754 C   0  0  0  0  0  0  0  0  0  0  0  0
  -16.5254   12.8798  -22.9884 C   0  0  0  0  0  0  0  0  0  0  0  0
  -15.5925   13.8912  -22.9500 C   0  0  0  0  0  0  0  0  0  0  0  0
  -15.2411   14.5928  -24.1052 C   0  0  0  0  0  0  0  0  0  0  0  0
  -15.8386   14.2649  -25.2973 C   0  0  0  0  0  0  0  0  0  0  0  0
  -15.4978   14.9209  -26.3289 O   0  0  0  0  0  0  0  0  0  0  0  0
  -16.7424   13.2836  -25.3305 N   0  0  0  0  0  0  0  0  0  0  0  0
  -17.3645   12.9488  -26.5962 C   0  0  0  0  0  0  0  0  0  0  0  0
  -17.0897   12.5966  -24.2116 C   0  0  0  0  0  0  0  0  0  0  0  0
  -18.5933   13.7301  -21.3191 O   0  0  0  0  0  0  0  0  0  0  0  0
  -18.9089   14.8237  -20.5188 C   0  0  0  0  0  0  0  0  0  0  0  0
  -20.7794   15.9597  -19.2310 C   0  0  0  0  0  0  0  0  0  0  0  0
  -21.1896   14.5093  -19.3236 C   0  0  0  0  0  0  0  0  0  0  0  0
  -20.3734   15.1293  -20.4045 C   0  0  0  0  0  0  0  0  0  0  0  0
  -24.0287   18.6845  -19.7452 C   0  0  0  0  0  0  0  0  0  0  0  0
  -23.3353   18.1810  -20.8254 C   0  0  0  0  0  0  0  0  0  0  0  0
  -22.2932   17.3075  -20.6672 C   0  0  0  0  0  0  0  0  0  0  0  0
  -21.9083   16.9061  -19.4074 C   0  0  0  0  0  0  0  0  0  0  0  0
  -22.5932   17.4048  -18.3614 N   0  0  0  0  0  0  0  0  0  0  0  0
  -23.6207   18.2635  -18.4808 C   0  0  0  0  0  0  0  0  0  0  0  0
  -24.8011   20.9505  -19.8858 C   0  0  0  0  0  0  0  0  0  0  0  0
  -25.0876   19.5706  -19.8850 O   0  0  0  0  0  0  0  0  0  0  0  0
 27 28  1  0  0  0
 28 21  1  0  0  0
 21 22  2  0  0  0
 22 23  1  0  0  0
 23 24  2  0  0  0
 24 25  1  0  0  0
 25 26  2  0  0  0
 24 18  1  0  0  0
 18 19  1  0  0  0
 19 20  1  0  0  0
 20 17  1  0  0  0
 17 16  1  0  0  0
 16  1  1  0  0  0
  1  2  2  0  0  0
  2  3  1  0  0  0
  3  4  1  0  0  0
  3  5  2  0  0  0
  5  6  1  0  0  0
  6  7  2  0  0  0
  7  8  1  0  0  0
  8  9  1  0  0  0
  9 10  2  0  0  0
 10 11  1  0  0  0
 11 12  2  0  0  0
 11 13  1  0  0  0
 13 14  1  0  0  0
 13 15  1  0  0  0
 26 21  1  0  0  0
 20 18  1  0  0  0
  7  1  1  0  0  0
 15  8  2  0  0  0
M  END
> <minimizedAffinity>
-6.89940

> <CNNscore>
0.5282495022

> <CNNaffinity>
6.7160882950

> <CNN_VS>
3.5477702618

> <CNNaffinity_variance>
0.2086811811

$$$$
[H]c1nc([C@@]2([H])C([H])([H])[C@]2([H])C([H])([H])Oc2nc(C([H])([H])[H])nc([H])c2-c2c([H])c([H])c(=O)n(C([H])([H])[H])c2[H])c([H])c([H])c1OC([H])([H])[H]


 28 31  0  0  0  0  0  0  0  0999 V2000
  -19.3135   13.3907  -17.7885 C   0  0  0  0  0  0  0  0  0  0  0  0
  -20.2260   13.6913  -16.8445 N   0  0  0  0  0  0  0  0  0  0  0  0
  -20.8875   12.7823  -16.1114 C   0  0  0  0  0  0  0  0  0  0  0  0
  -21.8879   13.1546  -15.0783 C   0  0  0  0  0  0  0  0  0  0  0  0
  -20.6171   11.4855  -16.3390 N   0  0  0  0  0  0  0  0  0  0  0  0
  -19.7170   11.1172  -17.2671 C   0  0  0  0  0  0  0  0  0  0  0  0
  -19.0271   12.0652  -18.0314 C   0  0  0  0  0  0  0  0  0  0  0  0
  -18.0540   11.6753  -19.0296 C   0  0  0  0  0  0  0  0  0  0  0  0
  -16.9933   10.8713  -18.6787 C   0  0  0  0  0  0  0  0  0  0  0  0
  -16.0392   10.4833  -19.6217 C   0  0  0  0  0  0  0  0  0  0  0  0
  -16.1652   10.9131  -20.9198 C   0  0  0  0  0  0  0  0  0  0  0  0
  -15.2821   10.5433  -21.7528 O   0  0  0  0  0  0  0  0  0  0  0  0
  -17.1951   11.6923  -21.2561 N   0  0  0  0  0  0  0  0  0  0  0  0
  -17.3148   12.1381  -22.6302 C   0  0  0  0  0  0  0  0  0  0  0  0
  -18.1271   12.0741  -20.3450 C   0  0  0  0  0  0  0  0  0  0  0  0
  -18.6581   14.3510  -18.5182 O   0  0  0  0  0  0  0  0  0  0  0  0
  -19.1281   15.6099  -18.8791 C   0  0  0  0  0  0  0  0  0  0  0  0
  -17.2679   15.4861  -20.6032 C   0  0  0  0  0  0  0  0  0  0  0  0
  -17.0762   16.8149  -19.9120 C   0  0  0  0  0  0  0  0  0  0  0  0
  -18.4402   16.2341  -20.0575 C   0  0  0  0  0  0  0  0  0  0  0  0
  -16.5878   15.6438  -24.8174 C   0  0  0  0  0  0  0  0  0  0  0  0
  -17.8575   15.7479  -24.2901 C   0  0  0  0  0  0  0  0  0  0  0  0
  -18.0820   15.6981  -22.9406 C   0  0  0  0  0  0  0  0  0  0  0  0
  -17.0295   15.5406  -22.0665 C   0  0  0  0  0  0  0  0  0  0  0  0
  -15.7951   15.4402  -22.5940 N   0  0  0  0  0  0  0  0  0  0  0  0
  -15.5392   15.4851  -23.9130 C   0  0  0  0  0  0  0  0  0  0  0  0
  -15.0059   15.5635  -26.6181 C   0  0  0  0  0  0  0  0  0  0  0  0
  -16.3399   15.6920  -26.1821 O   0  0  0  0  0  0  0  0  0  0  0  0
 27 28  1  0  0  0
 28 21  1  0  0  0
 21 22  2  0  0  0
 22 23  1  0  0  0
 23 24  2  0  0  0
 24 25  1  0  0  0
 25 26  2  0  0  0
 24 18  1  0  0  0
 18 19  1  0  0  0
 19 20  1  0  0  0
 20 17  1  0  0  0
 17 16  1  0  0  0
 16  1  1  0  0  0
  1  2  2  0  0  0
  2  3  1  0  0  0
  3  4  1  0  0  0
  3  5  2  0  0  0
  5  6  1  0  0  0
  6  7  2  0  0  0
  7  8  1  0  0  0
  8  9  1  0  0  0
  9 10  2  0  0  0
 10 11  1  0  0  0
 11 12  2  0  0  0
 11 13  1  0  0  0
 13 14  1  0  0  0
 13 15  1  0  0  0
 26 21  1  0  0  0
 20 18  1  0  0  0
  7  1  1  0  0  0
 15  8  2  0  0  0
M  END
> <minimizedAffinity>
-7.74617

> <CNNscore>
0.4742425084

> <CNNaffinity>
6.8784089088

> <CNN_VS>
3.2620339394

> <CNNaffinity_variance>
0.1458669007

$$$$
[H]c1nc([C@@]2([H])C([H])([H])[C@]2([H])C([H])([H])Oc2nc(C([H])([H])[H])nc([H])c2-c2c([H])c([H])c(=O)n(C([H])([H])[H])c2[H])c([H])c([H])c1OC([H])([H])[H]


 28 31  0  0  0  0  0  0  0  0999 V2000
  -17.9379   12.8899  -20.1406 C   0  0  0  0  0  0  0  0  0  0  0  0
  -18.1466   12.0103  -19.1421 N   0  0  0  0  0  0  0  0  0  0  0  0
  -17.6947   10.7465  -19.1370 C   0  0  0  0  0  0  0  0  0  0  0  0
  -17.9464    9.8060  -18.0150 C   0  0  0  0  0  0  0  0  0  0  0  0
  -16.9866   10.3362  -20.2031 N   0  0  0  0  0  0  0  0  0  0  0  0
  -16.7423   11.1639  -21.2339 C   0  0  0  0  0  0  0  0  0  0  0  0
  -17.2135   12.4818  -21.2390 C   0  0  0  0  0  0  0  0  0  0  0  0
  -16.9507   13.3792  -22.3441 C   0  0  0  0  0  0  0  0  0  0  0  0
  -16.4802   14.6498  -22.1012 C   0  0  0  0  0  0  0  0  0  0  0  0
  -16.2215   15.5359  -23.1490 C   0  0  0  0  0  0  0  0  0  0  0  0
  -16.4415   15.1288  -24.4419 C   0  0  0  0  0  0  0  0  0  0  0  0
  -16.1968   15.9572  -25.3717 O   0  0  0  0  0  0  0  0  0  0  0  0
  -16.8975   13.8961  -24.6733 N   0  0  0  0  0  0  0  0  0  0  0  0
  -17.1248   13.4807  -26.0433 C   0  0  0  0  0  0  0  0  0  0  0  0
  -17.1516   13.0285  -23.6599 C   0  0  0  0  0  0  0  0  0  0  0  0
  -18.4180   14.1754  -20.1083 O   0  0  0  0  0  0  0  0  0  0  0  0
  -19.6492   14.6092  -19.6266 C   0  0  0  0  0  0  0  0  0  0  0  0
  -21.1072   14.0830  -17.6153 C   0  0  0  0  0  0  0  0  0  0  0  0
  -20.7147   15.5317  -17.4488 C   0  0  0  0  0  0  0  0  0  0  0  0
  -19.7970   14.5790  -18.1338 C   0  0  0  0  0  0  0  0  0  0  0  0
  -21.1003   11.8827  -13.9540 C   0  0  0  0  0  0  0  0  0  0  0  0
  -20.1780   11.6284  -14.9468 C   0  0  0  0  0  0  0  0  0  0  0  0
  -20.1750   12.3301  -16.1223 C   0  0  0  0  0  0  0  0  0  0  0  0
  -21.1065   13.3200  -16.3429 C   0  0  0  0  0  0  0  0  0  0  0  0
  -22.0012   13.5584  -15.3659 N   0  0  0  0  0  0  0  0  0  0  0  0
  -22.0326   12.8890  -14.2004 C   0  0  0  0  0  0  0  0  0  0  0  0
  -21.6589   11.8235  -11.6225 C   0  0  0  0  0  0  0  0  0  0  0  0
  -21.1195   11.1825  -12.7559 O   0  0  0  0  0  0  0  0  0  0  0  0
 27 28  1  0  0  0
 28 21  1  0  0  0
 21 22  2  0  0  0
 22 23  1  0  0  0
 23 24  2  0  0  0
 24 25  1  0  0  0
 25 26  2  0  0  0
 24 18  1  0  0  0
 18 19  1  0  0  0
 19 20  1  0  0  0
 20 17  1  0  0  0
 17 16  1  0  0  0
 16  1  1  0  0  0
  1  2  2  0  0  0
  2  3  1  0  0  0
  3  4  1  0  0  0
  3  5  2  0  0  0
  5  6  1  0  0  0
  6  7  2  0  0  0
  7  8  1  0  0  0
  8  9  1  0  0  0
  9 10  2  0  0  0
 10 11  1  0  0  0
 11 12  2  0  0  0
 11 13  1  0  0  0
 13 14  1  0  0  0
 13 15  1  0  0  0
 26 21  1  0  0  0
 20 18  1  0  0  0
  7  1  1  0  0  0
 15  8  2  0  0  0
M  END
> <minimizedAffinity>
-6.83303

> <CNNscore>
0.4343895614

> <CNNaffinity>
6.8086662292

> <CNN_VS>
2.9576134682

> <CNNaffinity_variance>
0.2179458588

$$$$
[H]c1nc([C@@]2([H])C([H])([H])[C@]2([H])C([H])([H])Oc2nc(C([H])([H])[H])nc([H])c2-c2c([H])c([H])c(=O)n(C([H])([H])[H])c2[H])c([H])c([H])c1OC([H])([H])[H]


 28 31  0  0  0  0  0  0  0  0999 V2000
  -18.4199   11.4922  -18.4596 C   0  0  0  0  0  0  0  0  0  0  0  0
  -18.2615   10.2790  -17.8964 N   0  0  0  0  0  0  0  0  0  0  0  0
  -19.0529    9.7797  -16.9342 C   0  0  0  0  0  0  0  0  0  0  0  0
  -18.8449    8.4352  -16.3378 C   0  0  0  0  0  0  0  0  0  0  0  0
  -20.0707   10.5467  -16.5075 N   0  0  0  0  0  0  0  0  0  0  0  0
  -20.2847   11.7677  -17.0278 C   0  0  0  0  0  0  0  0  0  0  0  0
  -19.4595   12.2882  -18.0312 C   0  0  0  0  0  0  0  0  0  0  0  0
  -19.6867   13.6007  -18.5982 C   0  0  0  0  0  0  0  0  0  0  0  0
  -20.5484   13.7508  -19.6610 C   0  0  0  0  0  0  0  0  0  0  0  0
  -20.7828   15.0052  -20.2281 C   0  0  0  0  0  0  0  0  0  0  0  0
  -20.1409   16.1047  -19.7138 C   0  0  0  0  0  0  0  0  0  0  0  0
  -20.3750   17.2304  -20.2510 O   0  0  0  0  0  0  0  0  0  0  0  0
  -19.3063   15.9551  -18.6832 N   0  0  0  0  0  0  0  0  0  0  0  0
  -18.6360   17.1250  -18.1510 C   0  0  0  0  0  0  0  0  0  0  0  0
  -19.0729   14.7387  -18.1261 C   0  0  0  0  0  0  0  0  0  0  0  0
  -17.5875   11.9675  -19.4422 O   0  0  0  0  0  0  0  0  0  0  0  0
  -17.4695   11.5071  -20.7499 C   0  0  0  0  0  0  0  0  0  0  0  0
  -16.4600   13.1326  -22.4192 C   0  0  0  0  0  0  0  0  0  0  0  0
  -17.3666   13.9722  -21.5511 C   0  0  0  0  0  0  0  0  0  0  0  0
  -17.6912   12.5422  -21.8132 C   0  0  0  0  0  0  0  0  0  0  0  0
  -16.5884   14.2038  -26.5524 C   0  0  0  0  0  0  0  0  0  0  0  0
  -17.4218   13.2348  -26.0350 C   0  0  0  0  0  0  0  0  0  0  0  0
  -17.3855   12.8871  -24.7114 C   0  0  0  0  0  0  0  0  0  0  0  0
  -16.5031   13.5062  -23.8544 C   0  0  0  0  0  0  0  0  0  0  0  0
  -15.6951   14.4503  -24.3719 N   0  0  0  0  0  0  0  0  0  0  0  0
  -15.7045   14.8159  -25.6656 C   0  0  0  0  0  0  0  0  0  0  0  0
  -15.7457   15.6013  -28.3096 C   0  0  0  0  0  0  0  0  0  0  0  0
  -16.6103   14.5701  -27.8908 O   0  0  0  0  0  0  0  0  0  0  0  0
 27 28  1  0  0  0
 28 21  1  0  0  0
 21 22  2  0  0  0
 22 23  1  0  0  0
 23 24  2  0  0  0
 24 25  1  0  0  0
 25 26  2  0  0  0
 24 18  1  0  0  0
 18 19  1  0  0  0
 19 20  1  0  0  0
 20 17  1  0  0  0
 17 16  1  0  0  0
 16  1  1  0  0  0
  1  2  2  0  0  0
  2  3  1  0  0  0
  3  4  1  0  0  0
  3  5  2  0  0  0
  5  6  1  0  0  0
  6  7  2  0  0  0
  7  8  1  0  0  0
  8  9  1  0  0  0
  9 10  2  0  0  0
 10 11  1  0  0  0
 11 12  2  0  0  0
 11 13  1  0  0  0
 13 14  1  0  0  0
 13 15  1  0  0  0
 26 21  1  0  0  0
 20 18  1  0  0  0
  7  1  1  0  0  0
 15  8  2  0  0  0
M  END
> <minimizedAffinity>
-8.29682

> <CNNscore>
0.4042916894

> <CNNaffinity>
6.8061318398

> <CNN_VS>
2.7516624928

> <CNNaffinity_variance>
0.0968882442

$$$$
[H]c1nc([C@@]2([H])C([H])([H])[C@]2([H])C([H])([H])Oc2nc(C([H])([H])[H])nc([H])c2-c2c([H])c([H])c(=O)n(C([H])([H])[H])c2[H])c([H])c([H])c1OC([H])([H])[H]


 28 31  0  0  0  0  0  0  0  0999 V2000
  -17.6078   13.6324  -21.3955 C   0  0  0  0  0  0  0  0  0  0  0  0
  -17.8312   13.0606  -20.1966 N   0  0  0  0  0  0  0  0  0  0  0  0
  -17.4038   11.8372  -19.8476 C   0  0  0  0  0  0  0  0  0  0  0  0
  -17.6711   11.2411  -18.5135 C   0  0  0  0  0  0  0  0  0  0  0  0
  -16.7060   11.1397  -20.7603 N   0  0  0  0  0  0  0  0  0  0  0  0
  -16.4480   11.6522  -21.9761 C   0  0  0  0  0  0  0  0  0  0  0  0
  -16.8937   12.9281  -22.3399 C   0  0  0  0  0  0  0  0  0  0  0  0
  -16.6160   13.4871  -23.6460 C   0  0  0  0  0  0  0  0  0  0  0  0
  -17.5972   13.4998  -24.6112 C   0  0  0  0  0  0  0  0  0  0  0  0
  -17.3544   14.0304  -25.8799 C   0  0  0  0  0  0  0  0  0  0  0  0
  -16.1145   14.5472  -26.1651 C   0  0  0  0  0  0  0  0  0  0  0  0
  -15.9254   15.0219  -27.3267 O   0  0  0  0  0  0  0  0  0  0  0  0
  -15.1659   14.5332  -25.2265 N   0  0  0  0  0  0  0  0  0  0  0  0
  -13.8621   15.0823  -25.5422 C   0  0  0  0  0  0  0  0  0  0  0  0
  -15.3941   14.0189  -23.9904 C   0  0  0  0  0  0  0  0  0  0  0  0
  -18.0630   14.8875  -21.7144 O   0  0  0  0  0  0  0  0  0  0  0  0
  -17.5429   16.1093  -21.2989 C   0  0  0  0  0  0  0  0  0  0  0  0
  -18.3453   18.0590  -22.7141 C   0  0  0  0  0  0  0  0  0  0  0  0
  -17.9389   18.6712  -21.3949 C   0  0  0  0  0  0  0  0  0  0  0  0
  -18.4696   17.2802  -21.4454 C   0  0  0  0  0  0  0  0  0  0  0  0
  -21.8968   19.7654  -24.3639 C   0  0  0  0  0  0  0  0  0  0  0  0
  -21.8728   18.4684  -23.8966 C   0  0  0  0  0  0  0  0  0  0  0  0
  -20.7379   17.9158  -23.3668 C   0  0  0  0  0  0  0  0  0  0  0  0
  -19.5778   18.6535  -23.2874 C   0  0  0  0  0  0  0  0  0  0  0  0
  -19.6144   19.9182  -23.7470 N   0  0  0  0  0  0  0  0  0  0  0  0
  -20.7108   20.4917  -24.2728 C   0  0  0  0  0  0  0  0  0  0  0  0
  -24.1929   19.5452  -25.0201 C   0  0  0  0  0  0  0  0  0  0  0  0
  -23.0371   20.3433  -24.9042 O   0  0  0  0  0  0  0  0  0  0  0  0
 27 28  1  0  0  0
 28 21  1  0  0  0
 21 22  2  0  0  0
 22 23  1  0  0  0
 23 24  2  0  0  0
 24 25  1  0  0  0
 25 26  2  0  0  0
 24 18  1  0  0  0
 18 19  1  0  0  0
 19 20  1  0  0  0
 20 17  1  0  0  0
 17 16  1  0  0  0
 16  1  1  0  0  0
  1  2  2  0  0  0
  2  3  1  0  0  0
  3  4  1  0  0  0
  3  5  2  0  0  0
  5  6  1  0  0  0
  6  7  2  0  0  0
  7  8  1  0  0  0
  8  9  1  0  0  0
  9 10  2  0  0  0
 10 11  1  0  0  0
 11 12  2  0  0  0
 11 13  1  0  0  0
 13 14  1  0  0  0
 13 15  1  0  0  0
 26 21  1  0  0  0
 20 18  1  0  0  0
  7  1  1  0  0  0
 15  8  2  0  0  0
M  END
> <minimizedAffinity>
-8.04306

> <CNNscore>
0.3549359441

> <CNNaffinity>
6.8080620766

> <CNN_VS>
2.4164259434

> <CNNaffinity_variance>
0.2224030495

$$$$
[H]c1nc([C@@]2([H])C([H])([H])[C@]2([H])C([H])([H])Oc2nc(C([H])([H])[H])nc([H])c2-c2c([H])c([H])c(=O)n(C([H])([H])[H])c2[H])c([H])c([H])c1OC([H])([H])[H]


 28 31  0  0  0  0  0  0  0  0999 V2000
  -17.0409   13.1193  -21.9938 C   0  0  0  0  0  0  0  0  0  0  0  0
  -16.1146   13.1507  -22.9712 N   0  0  0  0  0  0  0  0  0  0  0  0
  -15.6031   14.2750  -23.4963 C   0  0  0  0  0  0  0  0  0  0  0  0
  -14.5815   14.2676  -24.5748 C   0  0  0  0  0  0  0  0  0  0  0  0
  -16.0489   15.4460  -23.0101 N   0  0  0  0  0  0  0  0  0  0  0  0
  -16.9727   15.4852  -22.0343 C   0  0  0  0  0  0  0  0  0  0  0  0
  -17.5061   14.3128  -21.4867 C   0  0  0  0  0  0  0  0  0  0  0  0
  -18.4983   14.3481  -20.4332 C   0  0  0  0  0  0  0  0  0  0  0  0
  -19.7854   13.9314  -20.6867 C   0  0  0  0  0  0  0  0  0  0  0  0
  -20.7621   13.9583  -19.6889 C   0  0  0  0  0  0  0  0  0  0  0  0
  -20.4285   14.4085  -18.4353 C   0  0  0  0  0  0  0  0  0  0  0  0
  -21.3382   14.4206  -17.5505 O   0  0  0  0  0  0  0  0  0  0  0  0
  -19.1794   14.8115  -18.1934 N   0  0  0  0  0  0  0  0  0  0  0  0
  -18.8423   15.2841  -16.8653 C   0  0  0  0  0  0  0  0  0  0  0  0
  -18.2239   14.7886  -19.1583 C   0  0  0  0  0  0  0  0  0  0  0  0
  -17.5401   11.9471  -21.4833 O   0  0  0  0  0  0  0  0  0  0  0  0
  -16.8306   10.7987  -21.1458 C   0  0  0  0  0  0  0  0  0  0  0  0
  -17.8456   11.2067  -18.8542 C   0  0  0  0  0  0  0  0  0  0  0  0
  -16.3563   11.1292  -18.6170 C   0  0  0  0  0  0  0  0  0  0  0  0
  -16.9821   10.3505  -19.7219 C   0  0  0  0  0  0  0  0  0  0  0  0
  -20.1590    9.2920  -15.8163 C   0  0  0  0  0  0  0  0  0  0  0  0
  -20.3803   10.6071  -16.1663 C   0  0  0  0  0  0  0  0  0  0  0  0
  -19.6424   11.2263  -17.1389 C   0  0  0  0  0  0  0  0  0  0  0  0
  -18.6480   10.5398  -17.7994 C   0  0  0  0  0  0  0  0  0  0  0  0
  -18.4420    9.2567  -17.4484 N   0  0  0  0  0  0  0  0  0  0  0  0
  -19.1476    8.6183  -16.4987 C   0  0  0  0  0  0  0  0  0  0  0  0
  -21.5358    7.4373  -15.1713 C   0  0  0  0  0  0  0  0  0  0  0  0
  -20.8963    8.6469  -14.8332 O   0  0  0  0  0  0  0  0  0  0  0  0
 27 28  1  0  0  0
 28 21  1  0  0  0
 21 22  2  0  0  0
 22 23  1  0  0  0
 23 24  2  0  0  0
 24 25  1  0  0  0
 25 26  2  0  0  0
 24 18  1  0  0  0
 18 19  1  0  0  0
 19 20  1  0  0  0
 20 17  1  0  0  0
 17 16  1  0  0  0
 16  1  1  0  0  0
  1  2  2  0  0  0
  2  3  1  0  0  0
  3  4  1  0  0  0
  3  5  2  0  0  0
  5  6  1  0  0  0
  6  7  2  0  0  0
  7  8  1  0  0  0
  8  9  1  0  0  0
  9 10  2  0  0  0
 10 11  1  0  0  0
 11 12  2  0  0  0
 11 13  1  0  0  0
 13 14  1  0  0  0
 13 15  1  0  0  0
 26 21  1  0  0  0
 20 18  1  0  0  0
  7  1  1  0  0  0
 15  8  2  0  0  0
M  END
> <minimizedAffinity>
-8.25209

> <CNNscore>
0.3211150765

> <CNNaffinity>
6.4111032486

> <CNN_VS>
2.0587019920

> <CNNaffinity_variance>
0.2102249414

$$$$
[H]c1nc([C@@]2([H])C([H])([H])[C@]2([H])C([H])([H])Oc2nc(C([H])([H])[H])nc([H])c2-c2c([H])c([H])c(=O)n(C([H])([H])[H])c2[H])c([H])c([H])c1OC([H])([H])[H]


 28 31  0  0  0  0  0  0  0  0999 V2000
  -17.4264   13.7206  -21.1765 C   0  0  0  0  0  0  0  0  0  0  0  0
  -17.7063   13.1273  -20.0001 N   0  0  0  0  0  0  0  0  0  0  0  0
  -17.5695   11.8137  -19.7609 C   0  0  0  0  0  0  0  0  0  0  0  0
  -17.8893   11.1969  -18.4479 C   0  0  0  0  0  0  0  0  0  0  0  0
  -17.1226   11.0428  -20.7671 N   0  0  0  0  0  0  0  0  0  0  0  0
  -16.8248   11.5717  -21.9666 C   0  0  0  0  0  0  0  0  0  0  0  0
  -16.9673   12.9415  -22.2159 C   0  0  0  0  0  0  0  0  0  0  0  0
  -16.6449   13.5178  -23.5041 C   0  0  0  0  0  0  0  0  0  0  0  0
  -17.6200   13.6352  -24.4684 C   0  0  0  0  0  0  0  0  0  0  0  0
  -17.3345   14.1847  -25.7200 C   0  0  0  0  0  0  0  0  0  0  0  0
  -16.0582   14.6140  -25.9891 C   0  0  0  0  0  0  0  0  0  0  0  0
  -15.8307   15.1086  -27.1355 O   0  0  0  0  0  0  0  0  0  0  0  0
  -15.1155   14.4986  -25.0515 N   0  0  0  0  0  0  0  0  0  0  0  0
  -13.7730   14.9562  -25.3501 C   0  0  0  0  0  0  0  0  0  0  0  0
  -15.3851   13.9653  -23.8319 C   0  0  0  0  0  0  0  0  0  0  0  0
  -17.5804   15.0690  -21.3817 O   0  0  0  0  0  0  0  0  0  0  0  0
  -17.1395   16.1068  -20.5664 C   0  0  0  0  0  0  0  0  0  0  0  0
  -19.4959   16.3533  -19.6528 C   0  0  0  0  0  0  0  0  0  0  0  0
  -18.8248   17.6768  -19.3732 C   0  0  0  0  0  0  0  0  0  0  0  0
  -18.0256   16.4200  -19.3968 C   0  0  0  0  0  0  0  0  0  0  0  0
  -22.0155   15.0141  -16.4740 C   0  0  0  0  0  0  0  0  0  0  0  0
  -20.7984   14.4173  -16.7263 C   0  0  0  0  0  0  0  0  0  0  0  0
  -19.9865   14.8418  -17.7434 C   0  0  0  0  0  0  0  0  0  0  0  0
  -20.3724   15.8897  -18.5492 C   0  0  0  0  0  0  0  0  0  0  0  0
  -21.5626   16.4637  -18.2925 N   0  0  0  0  0  0  0  0  0  0  0  0
  -22.3840   16.0724  -17.3027 C   0  0  0  0  0  0  0  0  0  0  0  0
  -22.3375   13.6926  -14.4989 C   0  0  0  0  0  0  0  0  0  0  0  0
  -22.8524   14.5983  -15.4480 O   0  0  0  0  0  0  0  0  0  0  0  0
 27 28  1  0  0  0
 28 21  1  0  0  0
 21 22  2  0  0  0
 22 23  1  0  0  0
 23 24  2  0  0  0
 24 25  1  0  0  0
 25 26  2  0  0  0
 24 18  1  0  0  0
 18 19  1  0  0  0
 19 20  1  0  0  0
 20 17  1  0  0  0
 17 16  1  0  0  0
 16  1  1  0  0  0
  1  2  2  0  0  0
  2  3  1  0  0  0
  3  4  1  0  0  0
  3  5  2  0  0  0
  5  6  1  0  0  0
  6  7  2  0  0  0
  7  8  1  0  0  0
  8  9  1  0  0  0
  9 10  2  0  0  0
 10 11  1  0  0  0
 11 12  2  0  0  0
 11 13  1  0  0  0
 13 14  1  0  0  0
 13 15  1  0  0  0
 26 21  1  0  0  0
 20 18  1  0  0  0
  7  1  1  0  0  0
 15  8  2  0  0  0
M  END
> <minimizedAffinity>
-7.28603

> <CNNscore>
0.3097772896

> <CNNaffinity>
6.8294000626

> <CNN_VS>
2.1155929565

> <CNNaffinity_variance>
0.4080521166

$$$$
[H]c1nc(N([H])c2c([H])c(N3C([H])([H])C([H])([H])OC([H])([H])C3([H])[H])c([H])c(N3C([H])([H])C([H])([H])OC([H])([H])C3([H])[H])c2[H])nc(N(c2c([H])c(C#N)c([H])c(C(F)(F)F)c2[H])C([H])([H])[H])c1[H]


 40 44  0  0  0  0  0  0  0  0999 V2000
  -17.0399   12.1104  -20.6431 C   0  0  0  0  0  0  0  0  0  0  0  0
  -16.1929   11.3181  -21.3740 C   0  0  0  0  0  0  0  0  0  0  0  0
  -15.8652   10.0390  -20.9395 C   0  0  0  0  0  0  0  0  0  0  0  0
  -16.4221    9.6509  -19.7914 N   0  0  0  0  0  0  0  0  0  0  0  0
  -17.2578   10.4218  -19.0587 C   0  0  0  0  0  0  0  0  0  0  0  0
  -17.5719   11.6440  -19.4672 N   0  0  0  0  0  0  0  0  0  0  0  0
  -18.0171   14.2838  -20.0361 C   0  0  0  0  0  0  0  0  0  0  0  0
  -17.4874   13.3665  -21.0838 N   0  0  0  0  0  0  0  0  0  0  0  0
  -17.4741   13.8671  -22.3992 C   0  0  0  0  0  0  0  0  0  0  0  0
  -17.4330   13.1118  -23.5462 C   0  0  0  0  0  0  0  0  0  0  0  0
  -17.4068   13.6518  -24.8263 C   0  0  0  0  0  0  0  0  0  0  0  0
  -17.4234   15.0248  -24.9319 C   0  0  0  0  0  0  0  0  0  0  0  0
  -17.4628   15.8402  -23.8167 C   0  0  0  0  0  0  0  0  0  0  0  0
  -17.4881   15.2647  -22.5789 C   0  0  0  0  0  0  0  0  0  0  0  0
  -17.4633   17.3229  -23.9711 C   0  0  0  0  0  0  0  0  0  0  0  0
  -16.9261   17.9704  -22.8696 F   0  0  0  0  0  0  0  0  0  0  0  0
  -16.7420   17.6878  -25.0699 F   0  0  0  0  0  0  0  0  0  0  0  0
  -18.7597   17.7879  -24.1230 F   0  0  0  0  0  0  0  0  0  0  0  0
  -17.3776   12.8353  -26.0187 C   0  0  0  0  0  0  0  0  0  0  0  0
  -17.3777   12.1840  -26.9813 N   0  0  0  0  0  0  0  0  0  0  0  0
  -17.9156    9.8471  -17.9066 N   0  0  0  0  0  0  0  0  0  0  0  0
  -17.5623    8.9653  -17.5323 H   0  0  0  0  0  0  0  0  0  0  0  0
  -19.0151   10.5708  -17.3762 C   0  0  0  0  0  0  0  0  0  0  0  0
  -19.9563    9.8072  -16.6962 C   0  0  0  0  0  0  0  0  0  0  0  0
  -21.0430   10.4095  -16.0468 C   0  0  0  0  0  0  0  0  0  0  0  0
  -21.1546   11.7730  -16.1032 C   0  0  0  0  0  0  0  0  0  0  0  0
  -20.2254   12.5631  -16.7797 C   0  0  0  0  0  0  0  0  0  0  0  0
  -19.1444   11.9065  -17.4194 C   0  0  0  0  0  0  0  0  0  0  0  0
  -20.2965   13.9619  -16.8488 N   0  0  0  0  0  0  0  0  0  0  0  0
  -21.5341   14.6888  -16.9595 C   0  0  0  0  0  0  0  0  0  0  0  0
  -21.2882   15.8285  -17.9376 C   0  0  0  0  0  0  0  0  0  0  0  0
  -20.2665   16.6699  -17.5625 O   0  0  0  0  0  0  0  0  0  0  0  0
  -19.4078   16.1859  -16.6162 C   0  0  0  0  0  0  0  0  0  0  0  0
  -19.0628   14.7145  -16.7699 C   0  0  0  0  0  0  0  0  0  0  0  0
  -21.9298    9.5720  -15.3414 N   0  0  0  0  0  0  0  0  0  0  0  0
  -21.4382    8.4130  -14.5804 C   0  0  0  0  0  0  0  0  0  0  0  0
  -22.1304    7.2176  -15.2384 C   0  0  0  0  0  0  0  0  0  0  0  0
  -23.4956    7.3593  -15.2043 O   0  0  0  0  0  0  0  0  0  0  0  0
  -23.9868    8.4591  -15.8660 C   0  0  0  0  0  0  0  0  0  0  0  0
  -23.3653    9.7466  -15.3220 C   0  0  0  0  0  0  0  0  0  0  0  0
  7  8  1  0  0  0
  8  1  1  0  0  0
  1  2  2  0  0  0
  2  3  1  0  0  0
  3  4  2  0  0  0
  4  5  1  0  0  0
  5 21  1  0  0  0
 21 23  1  0  0  0
 23 24  2  0  0  0
 24 25  1  0  0  0
 25 26  2  0  0  0
 26 27  1  0  0  0
 27 28  2  0  0  0
 27 29  1  0  0  0
 29 30  1  0  0  0
 30 31  1  0  0  0
 31 32  1  0  0  0
 32 33  1  0  0  0
 33 34  1  0  0  0
 25 35  1  0  0  0
 35 36  1  0  0  0
 36 37  1  0  0  0
 37 38  1  0  0  0
 38 39  1  0  0  0
 39 40  1  0  0  0
  5  6  2  0  0  0
  8  9  1  0  0  0
  9 10  2  0  0  0
 10 11  1  0  0  0
 11 12  2  0  0  0
 12 13  1  0  0  0
 13 14  2  0  0  0
 13 15  1  0  0  0
 15 16  1  0  0  0
 15 17  1  0  0  0
 15 18  1  0  0  0
 11 19  1  0  0  0
 19 20  3  0  0  0
  6  1  1  0  0  0
 14  9  1  0  0  0
 28 23  1  0  0  0
 34 29  1  0  0  0
 40 35  1  0  0  0
 21 22  1  0  0  0
M  END
> <minimizedAffinity>
-9.47656

> <CNNscore>
0.8939210773

> <CNNaffinity>
7.8120970726

> <CNN_VS>
6.9833984375

> <CNNaffinity_variance>
0.0297511313

$$$$
[H]c1nc(N([H])c2c([H])c(N3C([H])([H])C([H])([H])OC([H])([H])C3([H])[H])c([H])c(N3C([H])([H])C([H])([H])OC([H])([H])C3([H])[H])c2[H])nc(N(c2c([H])c(C#N)c([H])c(C(F)(F)F)c2[H])C([H])([H])[H])c1[H]


 40 44  0  0  0  0  0  0  0  0999 V2000
  -17.3320   12.1420  -20.7559 C   0  0  0  0  0  0  0  0  0  0  0  0
  -16.3897   11.5553  -21.5603 C   0  0  0  0  0  0  0  0  0  0  0  0
  -15.7921   10.3547  -21.1948 C   0  0  0  0  0  0  0  0  0  0  0  0
  -16.1940    9.8305  -20.0361 N   0  0  0  0  0  0  0  0  0  0  0  0
  -17.1208   10.3984  -19.2312 C   0  0  0  0  0  0  0  0  0  0  0  0
  -17.6924   11.5452  -19.5738 N   0  0  0  0  0  0  0  0  0  0  0  0
  -19.4944   13.3126  -20.7876 C   0  0  0  0  0  0  0  0  0  0  0  0
  -18.0426   13.2965  -21.1224 N   0  0  0  0  0  0  0  0  0  0  0  0
  -17.5371   14.4496  -21.7516 C   0  0  0  0  0  0  0  0  0  0  0  0
  -17.9417   15.7401  -21.5096 C   0  0  0  0  0  0  0  0  0  0  0  0
  -17.4226   16.8487  -22.1672 C   0  0  0  0  0  0  0  0  0  0  0  0
  -16.4474   16.6215  -23.1128 C   0  0  0  0  0  0  0  0  0  0  0  0
  -15.9984   15.3473  -23.4036 C   0  0  0  0  0  0  0  0  0  0  0  0
  -16.5372   14.2881  -22.7314 C   0  0  0  0  0  0  0  0  0  0  0  0
  -14.9525   15.1400  -24.4455 C   0  0  0  0  0  0  0  0  0  0  0  0
  -15.2685   14.1081  -25.3153 F   0  0  0  0  0  0  0  0  0  0  0  0
  -14.7809   16.2759  -25.1810 F   0  0  0  0  0  0  0  0  0  0  0  0
  -13.7434   14.8147  -23.8519 F   0  0  0  0  0  0  0  0  0  0  0  0
  -17.8553   18.1986  -21.8848 C   0  0  0  0  0  0  0  0  0  0  0  0
  -18.2109   19.2861  -21.6809 N   0  0  0  0  0  0  0  0  0  0  0  0
  -17.5845    9.6713  -18.0708 N   0  0  0  0  0  0  0  0  0  0  0  0
  -17.1121    8.8019  -17.8188 H   0  0  0  0  0  0  0  0  0  0  0  0
  -18.6744   10.2377  -17.3599 C   0  0  0  0  0  0  0  0  0  0  0  0
  -18.7160   11.6267  -17.3444 C   0  0  0  0  0  0  0  0  0  0  0  0
  -19.7881   12.3112  -16.7550 C   0  0  0  0  0  0  0  0  0  0  0  0
  -20.7940   11.5732  -16.1909 C   0  0  0  0  0  0  0  0  0  0  0  0
  -20.7768   10.1786  -16.1911 C   0  0  0  0  0  0  0  0  0  0  0  0
  -19.6713    9.5338  -16.8001 C   0  0  0  0  0  0  0  0  0  0  0  0
  -21.7933    9.3874  -15.6368 N   0  0  0  0  0  0  0  0  0  0  0  0
  -23.1957    9.6659  -15.8040 C   0  0  0  0  0  0  0  0  0  0  0  0
  -23.8626    9.3821  -14.4658 C   0  0  0  0  0  0  0  0  0  0  0  0
  -23.6768    8.0954  -14.0160 O   0  0  0  0  0  0  0  0  0  0  0  0
  -22.6623    7.3948  -14.6052 C   0  0  0  0  0  0  0  0  0  0  0  0
  -21.4118    8.2101  -14.8864 C   0  0  0  0  0  0  0  0  0  0  0  0
  -19.7799   13.7188  -16.8187 N   0  0  0  0  0  0  0  0  0  0  0  0
  -21.0339   14.4838  -16.8979 C   0  0  0  0  0  0  0  0  0  0  0  0
  -20.9226   15.2408  -18.2228 C   0  0  0  0  0  0  0  0  0  0  0  0
  -19.7966   16.0260  -18.2481 O   0  0  0  0  0  0  0  0  0  0  0  0
  -18.6072   15.3479  -18.1286 C   0  0  0  0  0  0  0  0  0  0  0  0
  -18.5768   14.5209  -16.8421 C   0  0  0  0  0  0  0  0  0  0  0  0
  7  8  1  0  0  0
  8  1  1  0  0  0
  1  2  2  0  0  0
  2  3  1  0  0  0
  3  4  2  0  0  0
  4  5  1  0  0  0
  5 21  1  0  0  0
 21 23  1  0  0  0
 23 24  2  0  0  0
 24 25  1  0  0  0
 25 26  2  0  0  0
 26 27  1  0  0  0
 27 28  2  0  0  0
 27 29  1  0  0  0
 29 30  1  0  0  0
 30 31  1  0  0  0
 31 32  1  0  0  0
 32 33  1  0  0  0
 33 34  1  0  0  0
 25 35  1  0  0  0
 35 36  1  0  0  0
 36 37  1  0  0  0
 37 38  1  0  0  0
 38 39  1  0  0  0
 39 40  1  0  0  0
  5  6  2  0  0  0
  8  9  1  0  0  0
  9 10  2  0  0  0
 10 11  1  0  0  0
 11 12  2  0  0  0
 12 13  1  0  0  0
 13 14  2  0  0  0
 13 15  1  0  0  0
 15 16  1  0  0  0
 15 17  1  0  0  0
 15 18  1  0  0  0
 11 19  1  0  0  0
 19 20  3  0  0  0
  6  1  1  0  0  0
 14  9  1  0  0  0
 28 23  1  0  0  0
 34 29  1  0  0  0
 40 35  1  0  0  0
 21 22  1  0  0  0
M  END
> <minimizedAffinity>
-8.99215

> <CNNscore>
0.8328951001

> <CNNaffinity>
7.7348051071

> <CNN_VS>
6.4422812462

> <CNNaffinity_variance>
0.0139290141

$$$$
[H]c1nc(N([H])c2c([H])c(N3C([H])([H])C([H])([H])OC([H])([H])C3([H])[H])c([H])c(N3C([H])([H])C([H])([H])OC([H])([H])C3([H])[H])c2[H])nc(N(c2c([H])c(C#N)c([H])c(C(F)(F)F)c2[H])C([H])([H])[H])c1[H]


 40 44  0  0  0  0  0  0  0  0999 V2000
  -17.2783   12.1698  -20.7535 C   0  0  0  0  0  0  0  0  0  0  0  0
  -16.3667   11.5799  -21.5904 C   0  0  0  0  0  0  0  0  0  0  0  0
  -15.7834   10.3622  -21.2599 C   0  0  0  0  0  0  0  0  0  0  0  0
  -16.1674    9.8253  -20.1009 N   0  0  0  0  0  0  0  0  0  0  0  0
  -17.0639   10.3961  -19.2644 C   0  0  0  0  0  0  0  0  0  0  0  0
  -17.6217   11.5592  -19.5735 N   0  0  0  0  0  0  0  0  0  0  0  0
  -19.4288   13.3625  -20.7552 C   0  0  0  0  0  0  0  0  0  0  0  0
  -17.9755   13.3434  -21.0831 N   0  0  0  0  0  0  0  0  0  0  0  0
  -17.4552   14.5126  -21.6691 C   0  0  0  0  0  0  0  0  0  0  0  0
  -17.8029   15.8003  -21.3394 C   0  0  0  0  0  0  0  0  0  0  0  0
  -17.2719   16.9261  -21.9568 C   0  0  0  0  0  0  0  0  0  0  0  0
  -16.3452   16.7200  -22.9546 C   0  0  0  0  0  0  0  0  0  0  0  0
  -15.9545   15.4499  -23.3341 C   0  0  0  0  0  0  0  0  0  0  0  0
  -16.5029   14.3732  -22.6986 C   0  0  0  0  0  0  0  0  0  0  0  0
  -14.9605   15.2668  -24.4298 C   0  0  0  0  0  0  0  0  0  0  0  0
  -15.3448   14.2910  -25.3361 F   0  0  0  0  0  0  0  0  0  0  0  0
  -14.7848   16.4339  -25.1138 F   0  0  0  0  0  0  0  0  0  0  0  0
  -13.7381   14.8763  -23.9070 F   0  0  0  0  0  0  0  0  0  0  0  0
  -17.6438   18.2717  -21.5822 C   0  0  0  0  0  0  0  0  0  0  0  0
  -17.9249   19.3537  -21.2645 N   0  0  0  0  0  0  0  0  0  0  0  0
  -17.5136    9.6576  -18.1057 N   0  0  0  0  0  0  0  0  0  0  0  0
  -16.9717    8.8467  -17.8034 H   0  0  0  0  0  0  0  0  0  0  0  0
  -18.6894   10.1310  -17.4674 C   0  0  0  0  0  0  0  0  0  0  0  0
  -19.4093    9.1737  -16.7627 C   0  0  0  0  0  0  0  0  0  0  0  0
  -20.5399    9.5268  -16.0127 C   0  0  0  0  0  0  0  0  0  0  0  0
  -20.9188   10.8425  -15.9954 C   0  0  0  0  0  0  0  0  0  0  0  0
  -20.2155   11.8232  -16.6946 C   0  0  0  0  0  0  0  0  0  0  0  0
  -19.0792   11.4155  -17.4372 C   0  0  0  0  0  0  0  0  0  0  0  0
  -20.5627   13.1818  -16.6909 N   0  0  0  0  0  0  0  0  0  0  0  0
  -19.9816   14.1515  -17.5821 C   0  0  0  0  0  0  0  0  0  0  0  0
  -19.7562   15.4172  -16.7676 C   0  0  0  0  0  0  0  0  0  0  0  0
  -20.9013   15.9168  -16.1917 O   0  0  0  0  0  0  0  0  0  0  0  0
  -21.9588   15.0549  -16.1143 C   0  0  0  0  0  0  0  0  0  0  0  0
  -21.5838   13.6247  -15.7658 C   0  0  0  0  0  0  0  0  0  0  0  0
  -21.1902    8.5070  -15.2899 N   0  0  0  0  0  0  0  0  0  0  0  0
  -22.2633    8.8185  -14.3332 C   0  0  0  0  0  0  0  0  0  0  0  0
  -21.7306    8.2974  -12.9970 C   0  0  0  0  0  0  0  0  0  0  0  0
  -21.4333    6.9592  -13.0736 O   0  0  0  0  0  0  0  0  0  0  0  0
  -20.4672    6.6258  -13.9924 C   0  0  0  0  0  0  0  0  0  0  0  0
  -20.8566    7.1035  -15.3924 C   0  0  0  0  0  0  0  0  0  0  0  0
  7  8  1  0  0  0
  8  1  1  0  0  0
  1  2  2  0  0  0
  2  3  1  0  0  0
  3  4  2  0  0  0
  4  5  1  0  0  0
  5 21  1  0  0  0
 21 23  1  0  0  0
 23 24  2  0  0  0
 24 25  1  0  0  0
 25 26  2  0  0  0
 26 27  1  0  0  0
 27 28  2  0  0  0
 27 29  1  0  0  0
 29 30  1  0  0  0
 30 31  1  0  0  0
 31 32  1  0  0  0
 32 33  1  0  0  0
 33 34  1  0  0  0
 25 35  1  0  0  0
 35 36  1  0  0  0
 36 37  1  0  0  0
 37 38  1  0  0  0
 38 39  1  0  0  0
 39 40  1  0  0  0
  5  6  2  0  0  0
  8  9  1  0  0  0
  9 10  2  0  0  0
 10 11  1  0  0  0
 11 12  2  0  0  0
 12 13  1  0  0  0
 13 14  2  0  0  0
 13 15  1  0  0  0
 15 16  1  0  0  0
 15 17  1  0  0  0
 15 18  1  0  0  0
 11 19  1  0  0  0
 19 20  3  0  0  0
  6  1  1  0  0  0
 14  9  1  0  0  0
 28 23  1  0  0  0
 34 29  1  0  0  0
 40 35  1  0  0  0
 21 22  1  0  0  0
M  END
> <minimizedAffinity>
-9.14952

> <CNNscore>
0.8192390800

> <CNNaffinity>
7.8088798523

> <CNN_VS>
6.3973393440

> <CNNaffinity_variance>
0.0546909571

$$$$
[H]c1nc(N([H])c2c([H])c(N3C([H])([H])C([H])([H])OC([H])([H])C3([H])[H])c([H])c(N3C([H])([H])C([H])([H])OC([H])([H])C3([H])[H])c2[H])nc(N(c2c([H])c(C#N)c([H])c(C(F)(F)F)c2[H])C([H])([H])[H])c1[H]


 40 44  0  0  0  0  0  0  0  0999 V2000
  -17.1778   12.1065  -20.7811 C   0  0  0  0  0  0  0  0  0  0  0  0
  -16.2411   11.4719  -21.5551 C   0  0  0  0  0  0  0  0  0  0  0  0
  -15.7348   10.2318  -21.1835 C   0  0  0  0  0  0  0  0  0  0  0  0
  -16.2163    9.7195  -20.0500 N   0  0  0  0  0  0  0  0  0  0  0  0
  -17.1388   10.3344  -19.2753 C   0  0  0  0  0  0  0  0  0  0  0  0
  -17.6234   11.5189  -19.6237 N   0  0  0  0  0  0  0  0  0  0  0  0
  -19.2686   13.3930  -20.9250 C   0  0  0  0  0  0  0  0  0  0  0  0
  -17.7996   13.3076  -21.1590 N   0  0  0  0  0  0  0  0  0  0  0  0
  -17.1914   14.4488  -21.7148 C   0  0  0  0  0  0  0  0  0  0  0  0
  -16.5039   14.4947  -22.9036 C   0  0  0  0  0  0  0  0  0  0  0  0
  -15.9064   15.6440  -23.4066 C   0  0  0  0  0  0  0  0  0  0  0  0
  -16.0200   16.7935  -22.6567 C   0  0  0  0  0  0  0  0  0  0  0  0
  -16.6968   16.8128  -21.4519 C   0  0  0  0  0  0  0  0  0  0  0  0
  -17.2687   15.6594  -20.9976 C   0  0  0  0  0  0  0  0  0  0  0  0
  -16.7844   18.0733  -20.6608 C   0  0  0  0  0  0  0  0  0  0  0  0
  -17.4279   19.0883  -21.3512 F   0  0  0  0  0  0  0  0  0  0  0  0
  -17.4610   17.8587  -19.4960 F   0  0  0  0  0  0  0  0  0  0  0  0
  -15.5145   18.5340  -20.3521 F   0  0  0  0  0  0  0  0  0  0  0  0
  -15.2000   15.6700  -24.6674 C   0  0  0  0  0  0  0  0  0  0  0  0
  -14.6383   15.7144  -25.6838 N   0  0  0  0  0  0  0  0  0  0  0  0
  -17.6947    9.6235  -18.1457 N   0  0  0  0  0  0  0  0  0  0  0  0
  -17.2828    8.7270  -17.8827 H   0  0  0  0  0  0  0  0  0  0  0  0
  -18.7833   10.2428  -17.4784 C   0  0  0  0  0  0  0  0  0  0  0  0
  -19.5349    9.4048  -16.6634 C   0  0  0  0  0  0  0  0  0  0  0  0
  -20.5816    9.9083  -15.8784 C   0  0  0  0  0  0  0  0  0  0  0  0
  -20.8465   11.2503  -15.9385 C   0  0  0  0  0  0  0  0  0  0  0  0
  -20.1091   12.1135  -16.7487 C   0  0  0  0  0  0  0  0  0  0  0  0
  -19.0609   11.5557  -17.5226 C   0  0  0  0  0  0  0  0  0  0  0  0
  -20.3398   13.4944  -16.8275 N   0  0  0  0  0  0  0  0  0  0  0  0
  -19.4956   14.3991  -17.5631 C   0  0  0  0  0  0  0  0  0  0  0  0
  -19.3636   15.6599  -16.7210 C   0  0  0  0  0  0  0  0  0  0  0  0
  -20.5671   16.2566  -16.4244 O   0  0  0  0  0  0  0  0  0  0  0  0
  -21.6788   15.4796  -16.5905 C   0  0  0  0  0  0  0  0  0  0  0  0
  -21.5074   14.0322  -16.1625 C   0  0  0  0  0  0  0  0  0  0  0  0
  -21.2680    9.0032  -15.0447 N   0  0  0  0  0  0  0  0  0  0  0  0
  -21.8697    9.4436  -13.7767 C   0  0  0  0  0  0  0  0  0  0  0  0
  -21.1531    8.6054  -12.7162 C   0  0  0  0  0  0  0  0  0  0  0  0
  -21.3079    7.2634  -12.9619 O   0  0  0  0  0  0  0  0  0  0  0  0
  -20.7988    6.8252  -14.1607 C   0  0  0  0  0  0  0  0  0  0  0  0
  -21.4171    7.5933  -15.3302 C   0  0  0  0  0  0  0  0  0  0  0  0
  7  8  1  0  0  0
  8  1  1  0  0  0
  1  2  2  0  0  0
  2  3  1  0  0  0
  3  4  2  0  0  0
  4  5  1  0  0  0
  5 21  1  0  0  0
 21 23  1  0  0  0
 23 24  2  0  0  0
 24 25  1  0  0  0
 25 26  2  0  0  0
 26 27  1  0  0  0
 27 28  2  0  0  0
 27 29  1  0  0  0
 29 30  1  0  0  0
 30 31  1  0  0  0
 31 32  1  0  0  0
 32 33  1  0  0  0
 33 34  1  0  0  0
 25 35  1  0  0  0
 35 36  1  0  0  0
 36 37  1  0  0  0
 37 38  1  0  0  0
 38 39  1  0  0  0
 39 40  1  0  0  0
  5  6  2  0  0  0
  8  9  1  0  0  0
  9 10  2  0  0  0
 10 11  1  0  0  0
 11 12  2  0  0  0
 12 13  1  0  0  0
 13 14  2  0  0  0
 13 15  1  0  0  0
 15 16  1  0  0  0
 15 17  1  0  0  0
 15 18  1  0  0  0
 11 19  1  0  0  0
 19 20  3  0  0  0
  6  1  1  0  0  0
 14  9  1  0  0  0
 28 23  1  0  0  0
 34 29  1  0  0  0
 40 35  1  0  0  0
 21 22  1  0  0  0
M  END
> <minimizedAffinity>
-9.02069

> <CNNscore>
0.7699042559

> <CNNaffinity>
7.6898994446

> <CNN_VS>
5.9204864502

> <CNNaffinity_variance>
0.0307703130

$$$$
[H]c1nc(N([H])c2c([H])c(N3C([H])([H])C([H])([H])OC([H])([H])C3([H])[H])c([H])c(N3C([H])([H])C([H])([H])OC([H])([H])C3([H])[H])c2[H])nc(N(c2c([H])c(C#N)c([H])c(C(F)(F)F)c2[H])C([H])([H])[H])c1[H]


 40 44  0  0  0  0  0  0  0  0999 V2000
  -17.1673   12.0863  -20.7977 C   0  0  0  0  0  0  0  0  0  0  0  0
  -16.2154   11.4327  -21.5365 C   0  0  0  0  0  0  0  0  0  0  0  0
  -15.7188   10.2013  -21.1249 C   0  0  0  0  0  0  0  0  0  0  0  0
  -16.2248    9.7166  -19.9900 N   0  0  0  0  0  0  0  0  0  0  0  0
  -17.1626   10.3506  -19.2497 C   0  0  0  0  0  0  0  0  0  0  0  0
  -17.6381   11.5269  -19.6364 N   0  0  0  0  0  0  0  0  0  0  0  0
  -19.2574   13.3579  -21.0468 C   0  0  0  0  0  0  0  0  0  0  0  0
  -17.7794   13.2787  -21.2172 N   0  0  0  0  0  0  0  0  0  0  0  0
  -17.1546   14.4165  -21.7615 C   0  0  0  0  0  0  0  0  0  0  0  0
  -16.4515   14.4604  -22.9411 C   0  0  0  0  0  0  0  0  0  0  0  0
  -15.8381   15.6062  -23.4326 C   0  0  0  0  0  0  0  0  0  0  0  0
  -15.9518   16.7543  -22.6806 C   0  0  0  0  0  0  0  0  0  0  0  0
  -16.6439   16.7755  -21.4846 C   0  0  0  0  0  0  0  0  0  0  0  0
  -17.2311   15.6254  -21.0414 C   0  0  0  0  0  0  0  0  0  0  0  0
  -16.7313   18.0342  -20.6906 C   0  0  0  0  0  0  0  0  0  0  0  0
  -17.4309   17.8656  -19.5060 F   0  0  0  0  0  0  0  0  0  0  0  0
  -15.4834   18.4917  -20.3838 F   0  0  0  0  0  0  0  0  0  0  0  0
  -17.3914   19.0129  -21.4161 F   0  0  0  0  0  0  0  0  0  0  0  0
  -15.1152   15.6303  -24.6841 C   0  0  0  0  0  0  0  0  0  0  0  0
  -14.5473   15.6305  -25.6981 N   0  0  0  0  0  0  0  0  0  0  0  0
  -17.7431    9.6673  -18.1155 N   0  0  0  0  0  0  0  0  0  0  0  0
  -17.3626    8.7589  -17.8460 H   0  0  0  0  0  0  0  0  0  0  0  0
  -18.8100   10.3285  -17.4533 C   0  0  0  0  0  0  0  0  0  0  0  0
  -18.9445   11.6802  -17.7469 C   0  0  0  0  0  0  0  0  0  0  0  0
  -20.0112   12.4293  -17.2307 C   0  0  0  0  0  0  0  0  0  0  0  0
  -20.9174   11.7931  -16.4252 C   0  0  0  0  0  0  0  0  0  0  0  0
  -20.8055   10.4383  -16.1134 C   0  0  0  0  0  0  0  0  0  0  0  0
  -19.7098    9.7249  -16.6606 C   0  0  0  0  0  0  0  0  0  0  0  0
  -21.7194    9.7475  -15.3045 N   0  0  0  0  0  0  0  0  0  0  0  0
  -23.1092    9.5817  -15.6410 C   0  0  0  0  0  0  0  0  0  0  0  0
  -23.8973    9.7550  -14.3506 C   0  0  0  0  0  0  0  0  0  0  0  0
  -23.5335    8.8760  -13.3569 O   0  0  0  0  0  0  0  0  0  0  0  0
  -22.3272    8.2546  -13.5179 C   0  0  0  0  0  0  0  0  0  0  0  0
  -21.2311    9.1405  -14.0848 C   0  0  0  0  0  0  0  0  0  0  0  0
  -20.1037   13.7832  -17.6097 N   0  0  0  0  0  0  0  0  0  0  0  0
  -18.9079   14.6371  -17.6791 C   0  0  0  0  0  0  0  0  0  0  0  0
  -19.1891   15.7507  -16.6684 C   0  0  0  0  0  0  0  0  0  0  0  0
  -20.3542   16.4099  -16.9736 O   0  0  0  0  0  0  0  0  0  0  0  0
  -21.4868   15.6316  -16.9647 C   0  0  0  0  0  0  0  0  0  0  0  0
  -21.3462   14.4515  -17.9278 C   0  0  0  0  0  0  0  0  0  0  0  0
  7  8  1  0  0  0
  8  1  1  0  0  0
  1  2  2  0  0  0
  2  3  1  0  0  0
  3  4  2  0  0  0
  4  5  1  0  0  0
  5 21  1  0  0  0
 21 23  1  0  0  0
 23 24  2  0  0  0
 24 25  1  0  0  0
 25 26  2  0  0  0
 26 27  1  0  0  0
 27 28  2  0  0  0
 27 29  1  0  0  0
 29 30  1  0  0  0
 30 31  1  0  0  0
 31 32  1  0  0  0
 32 33  1  0  0  0
 33 34  1  0  0  0
 25 35  1  0  0  0
 35 36  1  0  0  0
 36 37  1  0  0  0
 37 38  1  0  0  0
 38 39  1  0  0  0
 39 40  1  0  0  0
  5  6  2  0  0  0
  8  9  1  0  0  0
  9 10  2  0  0  0
 10 11  1  0  0  0
 11 12  2  0  0  0
 12 13  1  0  0  0
 13 14  2  0  0  0
 13 15  1  0  0  0
 15 16  1  0  0  0
 15 17  1  0  0  0
 15 18  1  0  0  0
 11 19  1  0  0  0
 19 20  3  0  0  0
  6  1  1  0  0  0
 14  9  1  0  0  0
 28 23  1  0  0  0
 34 29  1  0  0  0
 40 35  1  0  0  0
 21 22  1  0  0  0
M  END
> <minimizedAffinity>
-9.07368

> <CNNscore>
0.7292336822

> <CNNaffinity>
7.6273660660

> <CNN_VS>
5.5621323586

> <CNNaffinity_variance>
0.0331222340

$$$$
[H]c1nc(N([H])c2c([H])c(N3C([H])([H])C([H])([H])OC([H])([H])C3([H])[H])c([H])c(N3C([H])([H])C([H])([H])OC([H])([H])C3([H])[H])c2[H])nc(N(c2c([H])c(C#N)c([H])c(C(F)(F)F)c2[H])C([H])([H])[H])c1[H]


 40 44  0  0  0  0  0  0  0  0999 V2000
  -18.1733   12.4938  -18.9968 C   0  0  0  0  0  0  0  0  0  0  0  0
  -17.0342   11.8131  -19.3407 C   0  0  0  0  0  0  0  0  0  0  0  0
  -16.8187   10.5159  -18.8902 C   0  0  0  0  0  0  0  0  0  0  0  0
  -17.7770    9.9973  -18.1210 N   0  0  0  0  0  0  0  0  0  0  0  0
  -18.9049   10.6570  -17.7718 C   0  0  0  0  0  0  0  0  0  0  0  0
  -19.1146   11.8959  -18.1968 N   0  0  0  0  0  0  0  0  0  0  0  0
  -19.1593   14.7044  -18.5633 C   0  0  0  0  0  0  0  0  0  0  0  0
  -18.4922   13.7631  -19.5060 N   0  0  0  0  0  0  0  0  0  0  0  0
  -18.2357   14.2562  -20.7991 C   0  0  0  0  0  0  0  0  0  0  0  0
  -18.7956   15.3803  -21.3564 C   0  0  0  0  0  0  0  0  0  0  0  0
  -18.5225   15.8216  -22.6454 C   0  0  0  0  0  0  0  0  0  0  0  0
  -17.6374   15.0767  -23.3926 C   0  0  0  0  0  0  0  0  0  0  0  0
  -17.0417   13.9352  -22.8905 C   0  0  0  0  0  0  0  0  0  0  0  0
  -17.3399   13.5402  -21.6181 C   0  0  0  0  0  0  0  0  0  0  0  0
  -16.1009   13.1461  -23.7358 C   0  0  0  0  0  0  0  0  0  0  0  0
  -16.6412   12.8244  -24.9710 F   0  0  0  0  0  0  0  0  0  0  0  0
  -14.9490   13.8455  -23.9470 F   0  0  0  0  0  0  0  0  0  0  0  0
  -15.7808   11.9523  -23.1094 F   0  0  0  0  0  0  0  0  0  0  0  0
  -19.1141   17.0161  -23.2045 C   0  0  0  0  0  0  0  0  0  0  0  0
  -19.6110   17.9645  -23.6565 N   0  0  0  0  0  0  0  0  0  0  0  0
  -19.9407    9.9479  -17.0544 N   0  0  0  0  0  0  0  0  0  0  0  0
  -20.3328    9.1029  -17.4724 H   0  0  0  0  0  0  0  0  0  0  0  0
  -20.3316   10.4900  -15.8025 C   0  0  0  0  0  0  0  0  0  0  0  0
  -19.7400    9.9031  -14.6903 C   0  0  0  0  0  0  0  0  0  0  0  0
  -19.9701   10.4031  -13.4010 C   0  0  0  0  0  0  0  0  0  0  0  0
  -20.7976   11.4856  -13.2658 C   0  0  0  0  0  0  0  0  0  0  0  0
  -21.4053   12.0929  -14.3646 C   0  0  0  0  0  0  0  0  0  0  0  0
  -21.1403   11.5504  -15.6469 C   0  0  0  0  0  0  0  0  0  0  0  0
  -22.2470   13.2104  -14.2695 N   0  0  0  0  0  0  0  0  0  0  0  0
  -23.2432   13.3682  -13.2424 C   0  0  0  0  0  0  0  0  0  0  0  0
  -24.4706   13.9718  -13.9098 C   0  0  0  0  0  0  0  0  0  0  0  0
  -24.2273   15.1732  -14.5342 O   0  0  0  0  0  0  0  0  0  0  0  0
  -22.9160   15.4634  -14.7861 C   0  0  0  0  0  0  0  0  0  0  0  0
  -22.0813   14.2761  -15.2347 C   0  0  0  0  0  0  0  0  0  0  0  0
  -19.2993    9.7817  -12.3289 N   0  0  0  0  0  0  0  0  0  0  0  0
  -18.8221    8.3941  -12.4322 C   0  0  0  0  0  0  0  0  0  0  0  0
  -19.5692    7.6616  -11.3159 C   0  0  0  0  0  0  0  0  0  0  0  0
  -19.3205    8.2396  -10.0955 O   0  0  0  0  0  0  0  0  0  0  0  0
  -19.7109    9.5520   -9.9788 C   0  0  0  0  0  0  0  0  0  0  0  0
  -19.0495   10.4164  -11.0536 C   0  0  0  0  0  0  0  0  0  0  0  0
  7  8  1  0  0  0
  8  1  1  0  0  0
  1  2  2  0  0  0
  2  3  1  0  0  0
  3  4  2  0  0  0
  4  5  1  0  0  0
  5 21  1  0  0  0
 21 23  1  0  0  0
 23 24  2  0  0  0
 24 25  1  0  0  0
 25 26  2  0  0  0
 26 27  1  0  0  0
 27 28  2  0  0  0
 27 29  1  0  0  0
 29 30  1  0  0  0
 30 31  1  0  0  0
 31 32  1  0  0  0
 32 33  1  0  0  0
 33 34  1  0  0  0
 25 35  1  0  0  0
 35 36  1  0  0  0
 36 37  1  0  0  0
 37 38  1  0  0  0
 38 39  1  0  0  0
 39 40  1  0  0  0
  5  6  2  0  0  0
  8  9  1  0  0  0
  9 10  2  0  0  0
 10 11  1  0  0  0
 11 12  2  0  0  0
 12 13  1  0  0  0
 13 14  2  0  0  0
 13 15  1  0  0  0
 15 16  1  0  0  0
 15 17  1  0  0  0
 15 18  1  0  0  0
 11 19  1  0  0  0
 19 20  3  0  0  0
  6  1  1  0  0  0
 14  9  1  0  0  0
 28 23  1  0  0  0
 34 29  1  0  0  0
 40 35  1  0  0  0
 21 22  1  0  0  0
M  END
> <minimizedAffinity>
-8.21849

> <CNNscore>
0.1425006092

> <CNNaffinity>
6.6301789284

> <CNN_VS>
0.9448045492

> <CNNaffinity_variance>
0.0430914722

$$$$
[H]c1nc(N([H])c2c([H])c(N3C([H])([H])C([H])([H])OC([H])([H])C3([H])[H])c([H])c(N3C([H])([H])C([H])([H])OC([H])([H])C3([H])[H])c2[H])nc(N(c2c([H])c(C#N)c([H])c(C(F)(F)F)c2[H])C([H])([H])[H])c1[H]


 40 44  0  0  0  0  0  0  0  0999 V2000
  -19.1097   11.5093  -17.9672 C   0  0  0  0  0  0  0  0  0  0  0  0
  -18.0894   10.6253  -17.7284 C   0  0  0  0  0  0  0  0  0  0  0  0
  -17.1717   10.3140  -18.7250 C   0  0  0  0  0  0  0  0  0  0  0  0
  -17.3525   10.9237  -19.8974 N   0  0  0  0  0  0  0  0  0  0  0  0
  -18.3549   11.7963  -20.1483 C   0  0  0  0  0  0  0  0  0  0  0  0
  -19.2349   12.0951  -19.2019 N   0  0  0  0  0  0  0  0  0  0  0  0
  -20.5651   13.3089  -17.1364 C   0  0  0  0  0  0  0  0  0  0  0  0
  -20.0010   11.9398  -16.9711 N   0  0  0  0  0  0  0  0  0  0  0  0
  -20.4392   11.2189  -15.8444 C   0  0  0  0  0  0  0  0  0  0  0  0
  -19.8666   11.2529  -14.5959 C   0  0  0  0  0  0  0  0  0  0  0  0
  -20.3264   10.5110  -13.5146 C   0  0  0  0  0  0  0  0  0  0  0  0
  -21.4197    9.7005  -13.7254 C   0  0  0  0  0  0  0  0  0  0  0  0
  -22.0396    9.6204  -14.9579 C   0  0  0  0  0  0  0  0  0  0  0  0
  -21.5532   10.3684  -15.9912 C   0  0  0  0  0  0  0  0  0  0  0  0
  -23.2112    8.7190  -15.1512 C   0  0  0  0  0  0  0  0  0  0  0  0
  -23.8499    8.9330  -16.3626 F   0  0  0  0  0  0  0  0  0  0  0  0
  -22.8205    7.4130  -15.1037 F   0  0  0  0  0  0  0  0  0  0  0  0
  -24.1494    8.9329  -14.1543 F   0  0  0  0  0  0  0  0  0  0  0  0
  -19.7149   10.5746  -12.2065 C   0  0  0  0  0  0  0  0  0  0  0  0
  -19.2450   10.6316  -11.1451 N   0  0  0  0  0  0  0  0  0  0  0  0
  -18.3702   12.5064  -21.4077 N   0  0  0  0  0  0  0  0  0  0  0  0
  -18.7047   12.0176  -22.2394 H   0  0  0  0  0  0  0  0  0  0  0  0
  -17.9165   13.8508  -21.3845 C   0  0  0  0  0  0  0  0  0  0  0  0
  -16.9684   14.1744  -22.3477 C   0  0  0  0  0  0  0  0  0  0  0  0
  -16.5045   15.4894  -22.4921 C   0  0  0  0  0  0  0  0  0  0  0  0
  -17.0091   16.4483  -21.6550 C   0  0  0  0  0  0  0  0  0  0  0  0
  -17.9601   16.1508  -20.6790 C   0  0  0  0  0  0  0  0  0  0  0  0
  -18.3974   14.8067  -20.5736 C   0  0  0  0  0  0  0  0  0  0  0  0
  -18.5112   17.1057  -19.8125 N   0  0  0  0  0  0  0  0  0  0  0  0
  -19.1004   18.3395  -20.2631 C   0  0  0  0  0  0  0  0  0  0  0  0
  -18.6691   19.4174  -19.2790 C   0  0  0  0  0  0  0  0  0  0  0  0
  -19.0316   19.1568  -17.9778 O   0  0  0  0  0  0  0  0  0  0  0  0
  -19.3742   17.8639  -17.6981 C   0  0  0  0  0  0  0  0  0  0  0  0
  -18.5186   16.8192  -18.3939 C   0  0  0  0  0  0  0  0  0  0  0  0
  -15.5763   15.7466  -23.5206 N   0  0  0  0  0  0  0  0  0  0  0  0
  -15.7732   16.8596  -24.4620 C   0  0  0  0  0  0  0  0  0  0  0  0
  -15.8589   16.1776  -25.8288 C   0  0  0  0  0  0  0  0  0  0  0  0
  -14.7308   15.4367  -26.0810 O   0  0  0  0  0  0  0  0  0  0  0  0
  -14.4897   14.4165  -25.1925 C   0  0  0  0  0  0  0  0  0  0  0  0
  -14.3941   14.9492  -23.7618 C   0  0  0  0  0  0  0  0  0  0  0  0
  7  8  1  0  0  0
  8  1  1  0  0  0
  1  2  2  0  0  0
  2  3  1  0  0  0
  3  4  2  0  0  0
  4  5  1  0  0  0
  5 21  1  0  0  0
 21 23  1  0  0  0
 23 24  2  0  0  0
 24 25  1  0  0  0
 25 26  2  0  0  0
 26 27  1  0  0  0
 27 28  2  0  0  0
 27 29  1  0  0  0
 29 30  1  0  0  0
 30 31  1  0  0  0
 31 32  1  0  0  0
 32 33  1  0  0  0
 33 34  1  0  0  0
 25 35  1  0  0  0
 35 36  1  0  0  0
 36 37  1  0  0  0
 37 38  1  0  0  0
 38 39  1  0  0  0
 39 40  1  0  0  0
  5  6  2  0  0  0
  8  9  1  0  0  0
  9 10  2  0  0  0
 10 11  1  0  0  0
 11 12  2  0  0  0
 12 13  1  0  0  0
 13 14  2  0  0  0
 13 15  1  0  0  0
 15 16  1  0  0  0
 15 17  1  0  0  0
 15 18  1  0  0  0
 11 19  1  0  0  0
 19 20  3  0  0  0
  6  1  1  0  0  0
 14  9  1  0  0  0
 28 23  1  0  0  0
 34 29  1  0  0  0
 40 35  1  0  0  0
 21 22  1  0  0  0
M  END
> <minimizedAffinity>
-7.89936

> <CNNscore>
0.1399505585

> <CNNaffinity>
6.9509572983

> <CNN_VS>
0.9727903605

> <CNNaffinity_variance>
0.0872300267

$$$$
[H]c1nc(N([H])c2c([H])c(N3C([H])([H])C([H])([H])OC([H])([H])C3([H])[H])c([H])c(N3C([H])([H])C([H])([H])OC([H])([H])C3([H])[H])c2[H])nc(N(c2c([H])c(C#N)c([H])c(C(F)(F)F)c2[H])C([H])([H])[H])c1[H]


 40 44  0  0  0  0  0  0  0  0999 V2000
  -16.6950   14.6744  -23.8659 C   0  0  0  0  0  0  0  0  0  0  0  0
  -16.3323   14.7123  -25.1874 C   0  0  0  0  0  0  0  0  0  0  0  0
  -16.3844   15.9022  -25.9042 C   0  0  0  0  0  0  0  0  0  0  0  0
  -16.8007   16.9741  -25.2285 N   0  0  0  0  0  0  0  0  0  0  0  0
  -17.1635   16.9518  -23.9257 C   0  0  0  0  0  0  0  0  0  0  0  0
  -17.1181   15.8188  -23.2376 N   0  0  0  0  0  0  0  0  0  0  0  0
  -15.4680   12.5873  -23.4354 C   0  0  0  0  0  0  0  0  0  0  0  0
  -16.5635   13.5273  -23.0666 N   0  0  0  0  0  0  0  0  0  0  0  0
  -17.3349   13.1729  -21.9438 C   0  0  0  0  0  0  0  0  0  0  0  0
  -18.5058   13.7748  -21.5507 C   0  0  0  0  0  0  0  0  0  0  0  0
  -19.2271   13.3993  -20.4239 C   0  0  0  0  0  0  0  0  0  0  0  0
  -18.7240   12.3624  -19.6699 C   0  0  0  0  0  0  0  0  0  0  0  0
  -17.5505   11.7171  -20.0108 C   0  0  0  0  0  0  0  0  0  0  0  0
  -16.8760   12.1200  -21.1273 C   0  0  0  0  0  0  0  0  0  0  0  0
  -17.0292   10.6093  -19.1603 C   0  0  0  0  0  0  0  0  0  0  0  0
  -17.9824   10.1254  -18.2780 F   0  0  0  0  0  0  0  0  0  0  0  0
  -16.6056    9.5710  -19.9370 F   0  0  0  0  0  0  0  0  0  0  0  0
  -15.9595   11.0528  -18.3992 F   0  0  0  0  0  0  0  0  0  0  0  0
  -20.4645   14.0394  -20.0388 C   0  0  0  0  0  0  0  0  0  0  0  0
  -21.4560   14.5463  -19.7061 N   0  0  0  0  0  0  0  0  0  0  0  0
  -17.4603   18.1988  -23.2571 N   0  0  0  0  0  0  0  0  0  0  0  0
  -16.9236   19.0291  -23.5123 H   0  0  0  0  0  0  0  0  0  0  0  0
  -18.4958   18.1689  -22.2872 C   0  0  0  0  0  0  0  0  0  0  0  0
  -19.7798   18.3616  -22.7829 C   0  0  0  0  0  0  0  0  0  0  0  0
  -20.8999   18.2656  -21.9453 C   0  0  0  0  0  0  0  0  0  0  0  0
  -20.6946   17.9796  -20.6221 C   0  0  0  0  0  0  0  0  0  0  0  0
  -19.4171   17.7831  -20.0981 C   0  0  0  0  0  0  0  0  0  0  0  0
  -18.3175   17.8900  -20.9860 C   0  0  0  0  0  0  0  0  0  0  0  0
  -19.1662   17.4750  -18.7533 N   0  0  0  0  0  0  0  0  0  0  0  0
  -18.2289   16.4669  -18.3318 C   0  0  0  0  0  0  0  0  0  0  0  0
  -18.8659   15.7384  -17.1572 C   0  0  0  0  0  0  0  0  0  0  0  0
  -19.1931   16.5625  -16.1055 O   0  0  0  0  0  0  0  0  0  0  0  0
  -19.2509   17.8986  -16.3861 C   0  0  0  0  0  0  0  0  0  0  0  0
  -19.8611   18.2346  -17.7360 C   0  0  0  0  0  0  0  0  0  0  0  0
  -22.1708   18.4299  -22.5310 N   0  0  0  0  0  0  0  0  0  0  0  0
  -23.3989   18.1222  -21.7820 C   0  0  0  0  0  0  0  0  0  0  0  0
  -24.0677   17.0192  -22.6048 C   0  0  0  0  0  0  0  0  0  0  0  0
  -24.2985   17.4367  -23.8923 O   0  0  0  0  0  0  0  0  0  0  0  0
  -23.1756   17.7781  -24.6072 C   0  0  0  0  0  0  0  0  0  0  0  0
  -22.3840   18.8736  -23.8909 C   0  0  0  0  0  0  0  0  0  0  0  0
  7  8  1  0  0  0
  8  1  1  0  0  0
  1  2  2  0  0  0
  2  3  1  0  0  0
  3  4  2  0  0  0
  4  5  1  0  0  0
  5 21  1  0  0  0
 21 23  1  0  0  0
 23 24  2  0  0  0
 24 25  1  0  0  0
 25 26  2  0  0  0
 26 27  1  0  0  0
 27 28  2  0  0  0
 27 29  1  0  0  0
 29 30  1  0  0  0
 30 31  1  0  0  0
 31 32  1  0  0  0
 32 33  1  0  0  0
 33 34  1  0  0  0
 25 35  1  0  0  0
 35 36  1  0  0  0
 36 37  1  0  0  0
 37 38  1  0  0  0
 38 39  1  0  0  0
 39 40  1  0  0  0
  5  6  2  0  0  0
  8  9  1  0  0  0
  9 10  2  0  0  0
 10 11  1  0  0  0
 11 12  2  0  0  0
 12 13  1  0  0  0
 13 14  2  0  0  0
 13 15  1  0  0  0
 15 16  1  0  0  0
 15 17  1  0  0  0
 15 18  1  0  0  0
 11 19  1  0  0  0
 19 20  3  0  0  0
  6  1  1  0  0  0
 14  9  1  0  0  0
 28 23  1  0  0  0
 34 29  1  0  0  0
 40 35  1  0  0  0
 21 22  1  0  0  0
M  END
> <minimizedAffinity>
-9.45219

> <CNNscore>
0.1371883750

> <CNNaffinity>
6.6206650734

> <CNN_VS>
0.9082782865

> <CNNaffinity_variance>
0.8600351214

$$$$
[H]c1nc(N([H])c2c([H])c(N3C([H])([H])C([H])([H])OC([H])([H])C3([H])[H])c([H])c(N3C([H])([H])C([H])([H])OC([H])([H])C3([H])[H])c2[H])nc(N(c2c([H])c(C#N)c([H])c(C(F)(F)F)c2[H])C([H])([H])[H])c1[H]


 40 44  0  0  0  0  0  0  0  0999 V2000
  -18.8828   12.0642  -18.2549 C   0  0  0  0  0  0  0  0  0  0  0  0
  -17.8972   11.1887  -18.6307 C   0  0  0  0  0  0  0  0  0  0  0  0
  -17.8531    9.9018  -18.1072 C   0  0  0  0  0  0  0  0  0  0  0  0
  -18.8153    9.5911  -17.2374 N   0  0  0  0  0  0  0  0  0  0  0  0
  -19.7928   10.4444  -16.8558 C   0  0  0  0  0  0  0  0  0  0  0  0
  -19.8383   11.6744  -17.3502 N   0  0  0  0  0  0  0  0  0  0  0  0
  -20.1129   14.1936  -18.2523 C   0  0  0  0  0  0  0  0  0  0  0  0
  -19.0379   13.3371  -18.8275 N   0  0  0  0  0  0  0  0  0  0  0  0
  -18.2810   13.9055  -19.8692 C   0  0  0  0  0  0  0  0  0  0  0  0
  -17.9430   13.2855  -21.0479 C   0  0  0  0  0  0  0  0  0  0  0  0
  -17.1798   13.8828  -22.0437 C   0  0  0  0  0  0  0  0  0  0  0  0
  -16.7459   15.1703  -21.8189 C   0  0  0  0  0  0  0  0  0  0  0  0
  -17.0504   15.8479  -20.6535 C   0  0  0  0  0  0  0  0  0  0  0  0
  -17.8039   15.2211  -19.7031 C   0  0  0  0  0  0  0  0  0  0  0  0
  -16.5488   17.2353  -20.4395 C   0  0  0  0  0  0  0  0  0  0  0  0
  -15.4177   17.2721  -19.6392 F   0  0  0  0  0  0  0  0  0  0  0  0
  -16.2420   17.8205  -21.6329 F   0  0  0  0  0  0  0  0  0  0  0  0
  -17.5162   18.0025  -19.8105 F   0  0  0  0  0  0  0  0  0  0  0  0
  -16.8490   13.2142  -23.2818 C   0  0  0  0  0  0  0  0  0  0  0  0
  -16.6052   12.6661  -24.2772 N   0  0  0  0  0  0  0  0  0  0  0  0
  -20.8655    9.9556  -16.0187 N   0  0  0  0  0  0  0  0  0  0  0  0
  -21.5464    9.3120  -16.4245 H   0  0  0  0  0  0  0  0  0  0  0  0
  -20.8823   10.4134  -14.6756 C   0  0  0  0  0  0  0  0  0  0  0  0
  -21.9282   11.2698  -14.3530 C   0  0  0  0  0  0  0  0  0  0  0  0
  -22.1128   11.7223  -13.0390 C   0  0  0  0  0  0  0  0  0  0  0  0
  -21.2314   11.2995  -12.0802 C   0  0  0  0  0  0  0  0  0  0  0  0
  -20.1725   10.4416  -12.3767 C   0  0  0  0  0  0  0  0  0  0  0  0
  -20.0292   10.0119  -13.7197 C   0  0  0  0  0  0  0  0  0  0  0  0
  -19.2576    9.9752  -11.4217 N   0  0  0  0  0  0  0  0  0  0  0  0
  -18.6060    8.6944  -11.5064 C   0  0  0  0  0  0  0  0  0  0  0  0
  -18.5719    8.1246  -10.0956 C   0  0  0  0  0  0  0  0  0  0  0  0
  -17.9296    8.9333   -9.1868 O   0  0  0  0  0  0  0  0  0  0  0  0
  -17.7517   10.2348   -9.5629 C   0  0  0  0  0  0  0  0  0  0  0  0
  -18.9260   10.8421  -10.3112 C   0  0  0  0  0  0  0  0  0  0  0  0
  -23.2219   12.5527  -12.7827 N   0  0  0  0  0  0  0  0  0  0  0  0
  -24.5781   12.1589  -13.1946 C   0  0  0  0  0  0  0  0  0  0  0  0
  -25.0086   13.2670  -14.1578 C   0  0  0  0  0  0  0  0  0  0  0  0
  -24.9536   14.4968  -13.5498 O   0  0  0  0  0  0  0  0  0  0  0  0
  -23.7086   14.8768  -13.1092 C   0  0  0  0  0  0  0  0  0  0  0  0
  -23.1341   13.8442  -12.1379 C   0  0  0  0  0  0  0  0  0  0  0  0
  7  8  1  0  0  0
  8  1  1  0  0  0
  1  2  2  0  0  0
  2  3  1  0  0  0
  3  4  2  0  0  0
  4  5  1  0  0  0
  5 21  1  0  0  0
 21 23  1  0  0  0
 23 24  2  0  0  0
 24 25  1  0  0  0
 25 26  2  0  0  0
 26 27  1  0  0  0
 27 28  2  0  0  0
 27 29  1  0  0  0
 29 30  1  0  0  0
 30 31  1  0  0  0
 31 32  1  0  0  0
 32 33  1  0  0  0
 33 34  1  0  0  0
 25 35  1  0  0  0
 35 36  1  0  0  0
 36 37  1  0  0  0
 37 38  1  0  0  0
 38 39  1  0  0  0
 39 40  1  0  0  0
  5  6  2  0  0  0
  8  9  1  0  0  0
  9 10  2  0  0  0
 10 11  1  0  0  0
 11 12  2  0  0  0
 12 13  1  0  0  0
 13 14  2  0  0  0
 13 15  1  0  0  0
 15 16  1  0  0  0
 15 17  1  0  0  0
 15 18  1  0  0  0
 11 19  1  0  0  0
 19 20  3  0  0  0
  6  1  1  0  0  0
 14  9  1  0  0  0
 28 23  1  0  0  0
 34 29  1  0  0  0
 40 35  1  0  0  0
 21 22  1  0  0  0
M  END
> <minimizedAffinity>
-8.09590

> <CNNscore>
0.1230105013

> <CNNaffinity>
6.5008516312

> <CNN_VS>
0.7996730208

> <CNNaffinity_variance>
0.0446884371

$$$$
[H]c1nc(C(=O)[C@@]([H])(N([H])C(=O)[C@@]2([H])N(C(=O)[C@]([H])(N([H])C(=O)OC([H])([H])c3c([H])c([H])c([H])c([H])c3[H])C([H])([H])c3c([H])c([H])c([H])c([H])c3[H])C([H])([H])C([H])([H])C2([H])[H])C([H])([H])C([H])([H])C([H])([H])N=C(N([H])[H])N([H])[H])sc1[H]


 50 53  0  0  0  0  0  0  0  0999 V2000
  -19.9585   18.7302  -18.9310 C   0  0  0  0  0  0  0  0  0  0  0  0
  -21.0592   19.3001  -18.0172 C   0  0  0  0  0  0  0  0  0  0  0  0
  -20.6166   20.7711  -17.9722 C   0  0  0  0  0  0  0  0  0  0  0  0
  -19.4167   20.8654  -18.8955 C   0  0  0  0  0  0  0  0  0  0  0  0
  -19.8744   19.7760  -19.8733 N   0  0  0  0  0  0  0  0  0  0  0  0
  -20.0992   20.0877  -21.2149 C   0  0  0  0  0  0  0  0  0  0  0  0
  -19.7263   21.3069  -21.5382 O   0  0  0  0  0  0  0  0  0  0  0  0
  -19.0475   16.4499  -18.8730 N   0  0  0  0  0  0  0  0  0  0  0  0
  -20.1347   17.3531  -19.2467 C   0  0  0  0  0  0  0  0  0  0  0  0
  -21.0714   16.7626  -19.8004 O   0  0  0  0  0  0  0  0  0  0  0  0
  -18.2321   16.8781  -18.4095 H   0  0  0  0  0  0  0  0  0  0  0  0
  -19.1227   15.0207  -19.1460 C   0  0  0  0  0  0  0  0  0  0  0  0
  -19.1348   14.2254  -17.9194 C   0  0  0  0  0  0  0  0  0  0  0  0
  -18.1280   13.4963  -17.6169 O   0  0  0  0  0  0  0  0  0  0  0  0
  -20.2450   14.1851  -16.9530 C   0  0  0  0  0  0  0  0  0  0  0  0
  -20.9894   15.2084  -16.5661 N   0  0  0  0  0  0  0  0  0  0  0  0
  -21.9463   15.0346  -15.7235 C   0  0  0  0  0  0  0  0  0  0  0  0
  -22.1589   13.7601  -15.2495 C   0  0  0  0  0  0  0  0  0  0  0  0
  -20.9351   12.8915  -16.0738 S   0  0  0  0  0  0  0  0  0  0  0  0
  -17.9446   14.6110  -20.0225 C   0  0  0  0  0  0  0  0  0  0  0  0
  -18.4094   13.6609  -21.0756 C   0  0  0  0  0  0  0  0  0  0  0  0
  -18.1683   12.2036  -20.6424 C   0  0  0  0  0  0  0  0  0  0  0  0
  -16.6399    9.9470  -19.7716 N   0  0  0  0  0  0  0  0  0  0  0  0
  -16.2850   10.7277  -20.9003 C   0  0  0  0  0  0  0  0  0  0  0  0
  -15.1183   10.3717  -21.6253 N   0  0  0  0  0  0  0  0  0  0  0  0
  -16.9777   11.7217  -21.2655 N   0  0  0  0  0  0  0  0  0  0  0  0
  -16.6305    8.9039  -19.8385 H   0  0  0  0  0  0  0  0  0  0  0  0
  -16.9085   10.3783  -18.8801 H   0  0  0  0  0  0  0  0  0  0  0  0
  -15.1399    9.7514  -22.4808 H   0  0  0  0  0  0  0  0  0  0  0  0
  -14.1543   10.7084  -21.3496 H   0  0  0  0  0  0  0  0  0  0  0  0
  -20.6663   19.3263  -22.3174 C   0  0  0  0  0  0  0  0  0  0  0  0
  -19.6385   19.0779  -23.3672 N   0  0  0  0  0  0  0  0  0  0  0  0
  -18.9584   17.8460  -23.4279 C   0  0  0  0  0  0  0  0  0  0  0  0
  -19.2532   16.9655  -22.5573 O   0  0  0  0  0  0  0  0  0  0  0  0
  -19.4071   19.8087  -24.0738 H   0  0  0  0  0  0  0  0  0  0  0  0
  -17.9979   17.4860  -24.3395 O   0  0  0  0  0  0  0  0  0  0  0  0
  -16.6813   17.1171  -23.9584 C   0  0  0  0  0  0  0  0  0  0  0  0
  -16.5395   15.6464  -24.1059 C   0  0  0  0  0  0  0  0  0  0  0  0
  -17.5188   14.8832  -24.7053 C   0  0  0  0  0  0  0  0  0  0  0  0
  -17.3795   13.5308  -24.8431 C   0  0  0  0  0  0  0  0  0  0  0  0
  -16.2370   12.9257  -24.3725 C   0  0  0  0  0  0  0  0  0  0  0  0
  -15.2207   13.6650  -23.7588 C   0  0  0  0  0  0  0  0  0  0  0  0
  -15.3935   15.0291  -23.6354 C   0  0  0  0  0  0  0  0  0  0  0  0
  -21.7020   20.1492  -23.0903 C   0  0  0  0  0  0  0  0  0  0  0  0
  -22.3693   19.3289  -24.1229 C   0  0  0  0  0  0  0  0  0  0  0  0
  -22.6790   19.9275  -25.3266 C   0  0  0  0  0  0  0  0  0  0  0  0
  -23.3000   19.2539  -26.3642 C   0  0  0  0  0  0  0  0  0  0  0  0
  -23.6226   17.9307  -26.1893 C   0  0  0  0  0  0  0  0  0  0  0  0
  -23.3211   17.3153  -24.9929 C   0  0  0  0  0  0  0  0  0  0  0  0
  -22.6944   18.0052  -23.9525 C   0  0  0  0  0  0  0  0  0  0  0  0
 23 24  1  0  0  0
 24 25  1  0  0  0
 24 26  2  0  0  0
 26 22  1  0  0  0
 22 21  1  0  0  0
 21 20  1  0  0  0
 20 12  1  0  0  0
 12  8  1  0  0  0
  8  9  1  0  0  0
  9 10  2  0  0  0
  9  1  1  0  0  0
  1  2  1  0  0  0
  2  3  1  0  0  0
  3  4  1  0  0  0
  4  5  1  0  0  0
  5  6  1  0  0  0
  6  7  2  0  0  0
  6 31  1  0  0  0
 31 44  1  0  0  0
 44 45  1  0  0  0
 45 46  2  0  0  0
 46 47  1  0  0  0
 47 48  2  0  0  0
 48 49  1  0  0  0
 49 50  2  0  0  0
 31 32  1  0  0  0
 32 33  1  0  0  0
 33 34  2  0  0  0
 33 36  1  0  0  0
 36 37  1  0  0  0
 37 38  1  0  0  0
 38 39  2  0  0  0
 39 40  1  0  0  0
 40 41  2  0  0  0
 41 42  1  0  0  0
 42 43  2  0  0  0
 12 13  1  0  0  0
 13 14  2  0  0  0
 13 15  1  0  0  0
 15 16  2  0  0  0
 16 17  1  0  0  0
 17 18  2  0  0  0
 18 19  1  0  0  0
  5  1  1  0  0  0
 50 45  1  0  0  0
 43 38  1  0  0  0
 19 15  1  0  0  0
 23 27  1  0  0  0
 23 28  1  0  0  0
 25 29  1  0  0  0
 25 30  1  0  0  0
  8 11  1  0  0  0
 32 35  1  0  0  0
M  END
> <minimizedAffinity>
-8.05975

> <CNNscore>
0.5714737773

> <CNNaffinity>
7.8478288651

> <CNN_VS>
4.4848284721

> <CNNaffinity_variance>
0.2091434002

$$$$
[H]c1nc(C(=O)[C@@]([H])(N([H])C(=O)[C@@]2([H])N(C(=O)[C@]([H])(N([H])C(=O)OC([H])([H])c3c([H])c([H])c([H])c([H])c3[H])C([H])([H])c3c([H])c([H])c([H])c([H])c3[H])C([H])([H])C([H])([H])C2([H])[H])C([H])([H])C([H])([H])C([H])([H])N=C(N([H])[H])N([H])[H])sc1[H]


 50 53  0  0  0  0  0  0  0  0999 V2000
  -19.8286   16.7270  -16.2208 C   0  0  0  0  0  0  0  0  0  0  0  0
  -21.1671   16.3470  -15.5608 C   0  0  0  0  0  0  0  0  0  0  0  0
  -21.6476   17.7437  -15.1367 C   0  0  0  0  0  0  0  0  0  0  0  0
  -20.6040   18.7118  -15.6611 C   0  0  0  0  0  0  0  0  0  0  0  0
  -20.2294   17.8941  -16.9034 N   0  0  0  0  0  0  0  0  0  0  0  0
  -20.4123   18.4319  -18.1781 C   0  0  0  0  0  0  0  0  0  0  0  0
  -20.7582   19.7009  -18.1656 O   0  0  0  0  0  0  0  0  0  0  0  0
  -19.7849   14.3139  -16.6768 N   0  0  0  0  0  0  0  0  0  0  0  0
  -19.1491   15.6236  -16.8105 C   0  0  0  0  0  0  0  0  0  0  0  0
  -18.0812   15.5697  -17.4345 O   0  0  0  0  0  0  0  0  0  0  0  0
  -20.6786   14.2863  -16.1633 H   0  0  0  0  0  0  0  0  0  0  0  0
  -19.1787   13.1164  -17.2436 C   0  0  0  0  0  0  0  0  0  0  0  0
  -19.4055   13.0132  -18.6842 C   0  0  0  0  0  0  0  0  0  0  0  0
  -20.4804   13.4775  -19.1998 O   0  0  0  0  0  0  0  0  0  0  0  0
  -18.4699   12.4010  -19.6422 C   0  0  0  0  0  0  0  0  0  0  0  0
  -18.4168   12.6275  -20.9449 N   0  0  0  0  0  0  0  0  0  0  0  0
  -17.5340   12.0377  -21.6720 C   0  0  0  0  0  0  0  0  0  0  0  0
  -16.6619   11.1754  -21.0474 C   0  0  0  0  0  0  0  0  0  0  0  0
  -17.1943   11.2840  -19.4237 S   0  0  0  0  0  0  0  0  0  0  0  0
  -19.7356   11.8854  -16.5377 C   0  0  0  0  0  0  0  0  0  0  0  0
  -20.8754   12.2832  -15.6600 C   0  0  0  0  0  0  0  0  0  0  0  0
  -20.7173   11.6818  -14.2519 C   0  0  0  0  0  0  0  0  0  0  0  0
  -19.0201   10.4625  -12.2975 N   0  0  0  0  0  0  0  0  0  0  0  0
  -19.3777    9.8246  -13.5118 C   0  0  0  0  0  0  0  0  0  0  0  0
  -18.8671    8.5252  -13.7655 N   0  0  0  0  0  0  0  0  0  0  0  0
  -20.1303   10.3851  -14.3607 N   0  0  0  0  0  0  0  0  0  0  0  0
  -19.0753    9.9337  -11.3977 H   0  0  0  0  0  0  0  0  0  0  0  0
  -18.7046   11.4386  -12.2735 H   0  0  0  0  0  0  0  0  0  0  0  0
  -19.4006    7.6425  -13.5346 H   0  0  0  0  0  0  0  0  0  0  0  0
  -17.9174    8.3642  -14.2026 H   0  0  0  0  0  0  0  0  0  0  0  0
  -20.2962   17.8594  -19.5105 C   0  0  0  0  0  0  0  0  0  0  0  0
  -18.8860   17.4702  -19.7936 N   0  0  0  0  0  0  0  0  0  0  0  0
  -18.5983   16.3868  -20.6463 C   0  0  0  0  0  0  0  0  0  0  0  0
  -19.5815   15.7601  -21.1567 O   0  0  0  0  0  0  0  0  0  0  0  0
  -18.0905   17.9928  -19.3681 H   0  0  0  0  0  0  0  0  0  0  0  0
  -17.3525   15.9274  -20.9931 O   0  0  0  0  0  0  0  0  0  0  0  0
  -16.6258   16.4458  -22.0967 C   0  0  0  0  0  0  0  0  0  0  0  0
  -16.5962   15.4193  -23.1693 C   0  0  0  0  0  0  0  0  0  0  0  0
  -15.4660   14.6711  -23.4215 C   0  0  0  0  0  0  0  0  0  0  0  0
  -15.4472   13.7239  -24.4063 C   0  0  0  0  0  0  0  0  0  0  0  0
  -16.5819   13.5182  -25.1568 C   0  0  0  0  0  0  0  0  0  0  0  0
  -17.7482   14.2565  -24.9317 C   0  0  0  0  0  0  0  0  0  0  0  0
  -17.7331   15.2055  -23.9293 C   0  0  0  0  0  0  0  0  0  0  0  0
  -20.5478   18.9120  -20.5949 C   0  0  0  0  0  0  0  0  0  0  0  0
  -21.5954   18.4650  -21.5367 C   0  0  0  0  0  0  0  0  0  0  0  0
  -22.7271   17.8733  -21.0148 C   0  0  0  0  0  0  0  0  0  0  0  0
  -23.7715   17.4213  -21.8028 C   0  0  0  0  0  0  0  0  0  0  0  0
  -23.6786   17.5677  -23.1650 C   0  0  0  0  0  0  0  0  0  0  0  0
  -22.5550   18.1566  -23.7050 C   0  0  0  0  0  0  0  0  0  0  0  0
  -21.5069   18.6089  -22.8999 C   0  0  0  0  0  0  0  0  0  0  0  0
 23 24  1  0  0  0
 24 25  1  0  0  0
 24 26  2  0  0  0
 26 22  1  0  0  0
 22 21  1  0  0  0
 21 20  1  0  0  0
 20 12  1  0  0  0
 12  8  1  0  0  0
  8  9  1  0  0  0
  9 10  2  0  0  0
  9  1  1  0  0  0
  1  2  1  0  0  0
  2  3  1  0  0  0
  3  4  1  0  0  0
  4  5  1  0  0  0
  5  6  1  0  0  0
  6  7  2  0  0  0
  6 31  1  0  0  0
 31 44  1  0  0  0
 44 45  1  0  0  0
 45 46  2  0  0  0
 46 47  1  0  0  0
 47 48  2  0  0  0
 48 49  1  0  0  0
 49 50  2  0  0  0
 31 32  1  0  0  0
 32 33  1  0  0  0
 33 34  2  0  0  0
 33 36  1  0  0  0
 36 37  1  0  0  0
 37 38  1  0  0  0
 38 39  2  0  0  0
 39 40  1  0  0  0
 40 41  2  0  0  0
 41 42  1  0  0  0
 42 43  2  0  0  0
 12 13  1  0  0  0
 13 14  2  0  0  0
 13 15  1  0  0  0
 15 16  2  0  0  0
 16 17  1  0  0  0
 17 18  2  0  0  0
 18 19  1  0  0  0
  5  1  1  0  0  0
 50 45  1  0  0  0
 43 38  1  0  0  0
 19 15  1  0  0  0
 23 27  1  0  0  0
 23 28  1  0  0  0
 25 29  1  0  0  0
 25 30  1  0  0  0
  8 11  1  0  0  0
 32 35  1  0  0  0
M  END
> <minimizedAffinity>
-7.68313

> <CNNscore>
0.3231917918

> <CNNaffinity>
7.2873291969

> <CNN_VS>
2.3552050591

> <CNNaffinity_variance>
0.3755223155

$$$$
[H]c1nc(C(=O)[C@@]([H])(N([H])C(=O)[C@@]2([H])N(C(=O)[C@]([H])(N([H])C(=O)OC([H])([H])c3c([H])c([H])c([H])c([H])c3[H])C([H])([H])c3c([H])c([H])c([H])c([H])c3[H])C([H])([H])C([H])([H])C2([H])[H])C([H])([H])C([H])([H])C([H])([H])N=C(N([H])[H])N([H])[H])sc1[H]


 50 53  0  0  0  0  0  0  0  0999 V2000
  -17.8370   11.7319  -20.1724 C   0  0  0  0  0  0  0  0  0  0  0  0
  -16.7974   11.4770  -19.0652 C   0  0  0  0  0  0  0  0  0  0  0  0
  -15.9266   10.4255  -19.7706 C   0  0  0  0  0  0  0  0  0  0  0  0
  -16.5080   10.2814  -21.1643 C   0  0  0  0  0  0  0  0  0  0  0  0
  -16.9844   11.7334  -21.2956 N   0  0  0  0  0  0  0  0  0  0  0  0
  -16.4768   12.5489  -22.3080 C   0  0  0  0  0  0  0  0  0  0  0  0
  -15.7251   11.9027  -23.1725 O   0  0  0  0  0  0  0  0  0  0  0  0
  -18.9571   13.0553  -18.4326 N   0  0  0  0  0  0  0  0  0  0  0  0
  -18.7738   12.7548  -19.8515 C   0  0  0  0  0  0  0  0  0  0  0  0
  -19.4866   13.4577  -20.5800 O   0  0  0  0  0  0  0  0  0  0  0  0
  -18.3946   12.5022  -17.7685 H   0  0  0  0  0  0  0  0  0  0  0  0
  -19.8885   14.0848  -17.9906 C   0  0  0  0  0  0  0  0  0  0  0  0
  -19.2445   15.0794  -17.1342 C   0  0  0  0  0  0  0  0  0  0  0  0
  -18.0307   14.9181  -16.7636 O   0  0  0  0  0  0  0  0  0  0  0  0
  -19.8886   16.3070  -16.6381 C   0  0  0  0  0  0  0  0  0  0  0  0
  -19.4930   17.0443  -15.6129 N   0  0  0  0  0  0  0  0  0  0  0  0
  -20.1378   18.1105  -15.2916 C   0  0  0  0  0  0  0  0  0  0  0  0
  -21.2385   18.4456  -16.0471 C   0  0  0  0  0  0  0  0  0  0  0  0
  -21.2589   17.1688  -17.1876 S   0  0  0  0  0  0  0  0  0  0  0  0
  -21.0498   13.4315  -17.2503 C   0  0  0  0  0  0  0  0  0  0  0  0
  -20.5269   12.6263  -16.1075 C   0  0  0  0  0  0  0  0  0  0  0  0
  -20.8757   11.1373  -16.2825 C   0  0  0  0  0  0  0  0  0  0  0  0
  -20.1405    8.4683  -15.5595 N   0  0  0  0  0  0  0  0  0  0  0  0
  -19.3776    9.2616  -16.4528 C   0  0  0  0  0  0  0  0  0  0  0  0
  -18.1970    8.7038  -17.0084 N   0  0  0  0  0  0  0  0  0  0  0  0
  -19.7239   10.4401  -16.7570 N   0  0  0  0  0  0  0  0  0  0  0  0
  -20.3597    7.4762  -15.8044 H   0  0  0  0  0  0  0  0  0  0  0  0
  -20.4882    8.8414  -14.6691 H   0  0  0  0  0  0  0  0  0  0  0  0
  -18.1762    8.2217  -17.9487 H   0  0  0  0  0  0  0  0  0  0  0  0
  -17.2645    8.7382  -16.5104 H   0  0  0  0  0  0  0  0  0  0  0  0
  -16.6178   13.9699  -22.5866 C   0  0  0  0  0  0  0  0  0  0  0  0
  -17.0775   14.6998  -21.3716 N   0  0  0  0  0  0  0  0  0  0  0  0
  -16.6771   16.0302  -21.1398 C   0  0  0  0  0  0  0  0  0  0  0  0
  -15.9135   16.5751  -22.0000 O   0  0  0  0  0  0  0  0  0  0  0  0
  -17.7028   14.2404  -20.6753 H   0  0  0  0  0  0  0  0  0  0  0  0
  -17.0281   16.8154  -20.0704 O   0  0  0  0  0  0  0  0  0  0  0  0
  -18.3572   17.2646  -19.8548 C   0  0  0  0  0  0  0  0  0  0  0  0
  -18.8394   17.9300  -21.0918 C   0  0  0  0  0  0  0  0  0  0  0  0
  -18.4440   19.2080  -21.4251 C   0  0  0  0  0  0  0  0  0  0  0  0
  -18.8869   19.8124  -22.5679 C   0  0  0  0  0  0  0  0  0  0  0  0
  -19.7437   19.1262  -23.3973 C   0  0  0  0  0  0  0  0  0  0  0  0
  -20.1677   17.8283  -23.0944 C   0  0  0  0  0  0  0  0  0  0  0  0
  -19.7015   17.2472  -21.9322 C   0  0  0  0  0  0  0  0  0  0  0  0
  -17.7708   14.2367  -23.5595 C   0  0  0  0  0  0  0  0  0  0  0  0
  -17.2667   14.4765  -24.9280 C   0  0  0  0  0  0  0  0  0  0  0  0
  -17.4232   13.4732  -25.8619 C   0  0  0  0  0  0  0  0  0  0  0  0
  -16.9928   13.5911  -27.1722 C   0  0  0  0  0  0  0  0  0  0  0  0
  -16.3827   14.7581  -27.5615 C   0  0  0  0  0  0  0  0  0  0  0  0
  -16.2172   15.7720  -26.6420 C   0  0  0  0  0  0  0  0  0  0  0  0
  -16.6554   15.6419  -25.3221 C   0  0  0  0  0  0  0  0  0  0  0  0
 23 24  1  0  0  0
 24 25  1  0  0  0
 24 26  2  0  0  0
 26 22  1  0  0  0
 22 21  1  0  0  0
 21 20  1  0  0  0
 20 12  1  0  0  0
 12  8  1  0  0  0
  8  9  1  0  0  0
  9 10  2  0  0  0
  9  1  1  0  0  0
  1  2  1  0  0  0
  2  3  1  0  0  0
  3  4  1  0  0  0
  4  5  1  0  0  0
  5  6  1  0  0  0
  6  7  2  0  0  0
  6 31  1  0  0  0
 31 44  1  0  0  0
 44 45  1  0  0  0
 45 46  2  0  0  0
 46 47  1  0  0  0
 47 48  2  0  0  0
 48 49  1  0  0  0
 49 50  2  0  0  0
 31 32  1  0  0  0
 32 33  1  0  0  0
 33 34  2  0  0  0
 33 36  1  0  0  0
 36 37  1  0  0  0
 37 38  1  0  0  0
 38 39  2  0  0  0
 39 40  1  0  0  0
 40 41  2  0  0  0
 41 42  1  0  0  0
 42 43  2  0  0  0
 12 13  1  0  0  0
 13 14  2  0  0  0
 13 15  1  0  0  0
 15 16  2  0  0  0
 16 17  1  0  0  0
 17 18  2  0  0  0
 18 19  1  0  0  0
  5  1  1  0  0  0
 50 45  1  0  0  0
 43 38  1  0  0  0
 19 15  1  0  0  0
 23 27  1  0  0  0
 23 28  1  0  0  0
 25 29  1  0  0  0
 25 30  1  0  0  0
  8 11  1  0  0  0
 32 35  1  0  0  0
M  END
> <minimizedAffinity>
-8.65898

> <CNNscore>
0.2860994935

> <CNNaffinity>
7.4522490501

> <CNN_VS>
2.1320846081

> <CNNaffinity_variance>
0.5817457438

$$$$
[H]c1nc(C(=O)[C@@]([H])(N([H])C(=O)[C@@]2([H])N(C(=O)[C@]([H])(N([H])C(=O)OC([H])([H])c3c([H])c([H])c([H])c([H])c3[H])C([H])([H])c3c([H])c([H])c([H])c([H])c3[H])C([H])([H])C([H])([H])C2([H])[H])C([H])([H])C([H])([H])C([H])([H])N=C(N([H])[H])N([H])[H])sc1[H]


 50 53  0  0  0  0  0  0  0  0999 V2000
  -20.0327   15.2591  -17.2172 C   0  0  0  0  0  0  0  0  0  0  0  0
  -21.4261   15.5869  -16.6493 C   0  0  0  0  0  0  0  0  0  0  0  0
  -21.0864   16.8613  -15.8605 C   0  0  0  0  0  0  0  0  0  0  0  0
  -19.6195   17.1335  -16.1355 C   0  0  0  0  0  0  0  0  0  0  0  0
  -19.6089   16.5602  -17.5580 N   0  0  0  0  0  0  0  0  0  0  0  0
  -19.2831   17.3780  -18.6410 C   0  0  0  0  0  0  0  0  0  0  0  0
  -18.8505   18.5683  -18.2860 O   0  0  0  0  0  0  0  0  0  0  0  0
  -18.9177   13.1922  -17.9365 N   0  0  0  0  0  0  0  0  0  0  0  0
  -20.0226   14.1367  -18.0930 C   0  0  0  0  0  0  0  0  0  0  0  0
  -20.8041   13.8056  -18.9943 O   0  0  0  0  0  0  0  0  0  0  0  0
  -18.2260   13.4102  -17.2035 H   0  0  0  0  0  0  0  0  0  0  0  0
  -18.8092   12.0075  -18.7777 C   0  0  0  0  0  0  0  0  0  0  0  0
  -18.7156   10.7794  -17.9902 C   0  0  0  0  0  0  0  0  0  0  0  0
  -17.7567    9.9574  -18.1941 O   0  0  0  0  0  0  0  0  0  0  0  0
  -19.6613   10.3823  -16.9338 C   0  0  0  0  0  0  0  0  0  0  0  0
  -20.7772   11.0102  -16.5997 N   0  0  0  0  0  0  0  0  0  0  0  0
  -21.5293   10.5463  -15.6643 C   0  0  0  0  0  0  0  0  0  0  0  0
  -21.1301    9.3884  -15.0363 C   0  0  0  0  0  0  0  0  0  0  0  0
  -19.6684    9.0508  -15.8617 S   0  0  0  0  0  0  0  0  0  0  0  0
  -17.5907   12.1410  -19.6839 C   0  0  0  0  0  0  0  0  0  0  0  0
  -18.0332   12.4232  -21.0812 C   0  0  0  0  0  0  0  0  0  0  0  0
  -16.8228   12.6811  -21.9966 C   0  0  0  0  0  0  0  0  0  0  0  0
  -15.1894   13.3108  -24.2599 N   0  0  0  0  0  0  0  0  0  0  0  0
  -16.5524   12.9385  -24.3741 C   0  0  0  0  0  0  0  0  0  0  0  0
  -17.1279   12.8791  -25.6698 N   0  0  0  0  0  0  0  0  0  0  0  0
  -17.2542   12.6646  -23.3574 N   0  0  0  0  0  0  0  0  0  0  0  0
  -14.4777   12.8739  -24.8884 H   0  0  0  0  0  0  0  0  0  0  0  0
  -14.8755   14.0044  -23.5718 H   0  0  0  0  0  0  0  0  0  0  0  0
  -17.1843   11.9869  -26.2336 H   0  0  0  0  0  0  0  0  0  0  0  0
  -17.5356   13.7294  -26.1490 H   0  0  0  0  0  0  0  0  0  0  0  0
  -19.3326   17.1669  -20.0797 C   0  0  0  0  0  0  0  0  0  0  0  0
  -20.6960   16.7376  -20.5005 N   0  0  0  0  0  0  0  0  0  0  0  0
  -21.4723   17.5479  -21.3517 C   0  0  0  0  0  0  0  0  0  0  0  0
  -20.9675   18.6501  -21.7395 O   0  0  0  0  0  0  0  0  0  0  0  0
  -21.0968   15.8320  -20.1747 H   0  0  0  0  0  0  0  0  0  0  0  0
  -22.7337   17.2726  -21.8168 O   0  0  0  0  0  0  0  0  0  0  0  0
  -23.6415   18.2890  -22.2139 C   0  0  0  0  0  0  0  0  0  0  0  0
  -23.6369   18.3760  -23.6963 C   0  0  0  0  0  0  0  0  0  0  0  0
  -23.5110   17.2523  -24.4850 C   0  0  0  0  0  0  0  0  0  0  0  0
  -23.5134   17.3388  -25.8488 C   0  0  0  0  0  0  0  0  0  0  0  0
  -23.6446   18.5744  -26.4395 C   0  0  0  0  0  0  0  0  0  0  0  0
  -23.7749   19.7378  -25.6741 C   0  0  0  0  0  0  0  0  0  0  0  0
  -23.7684   19.6150  -24.2992 C   0  0  0  0  0  0  0  0  0  0  0  0
  -18.4879   15.9587  -20.4965 C   0  0  0  0  0  0  0  0  0  0  0  0
  -17.8018   16.2079  -21.7816 C   0  0  0  0  0  0  0  0  0  0  0  0
  -18.5370   16.0900  -22.9430 C   0  0  0  0  0  0  0  0  0  0  0  0
  -17.9980   16.3043  -24.1997 C   0  0  0  0  0  0  0  0  0  0  0  0
  -16.6726   16.6497  -24.2967 C   0  0  0  0  0  0  0  0  0  0  0  0
  -15.9216   16.7721  -23.1469 C   0  0  0  0  0  0  0  0  0  0  0  0
  -16.4762   16.5532  -21.8837 C   0  0  0  0  0  0  0  0  0  0  0  0
 23 24  1  0  0  0
 24 25  1  0  0  0
 24 26  2  0  0  0
 26 22  1  0  0  0
 22 21  1  0  0  0
 21 20  1  0  0  0
 20 12  1  0  0  0
 12  8  1  0  0  0
  8  9  1  0  0  0
  9 10  2  0  0  0
  9  1  1  0  0  0
  1  2  1  0  0  0
  2  3  1  0  0  0
  3  4  1  0  0  0
  4  5  1  0  0  0
  5  6  1  0  0  0
  6  7  2  0  0  0
  6 31  1  0  0  0
 31 44  1  0  0  0
 44 45  1  0  0  0
 45 46  2  0  0  0
 46 47  1  0  0  0
 47 48  2  0  0  0
 48 49  1  0  0  0
 49 50  2  0  0  0
 31 32  1  0  0  0
 32 33  1  0  0  0
 33 34  2  0  0  0
 33 36  1  0  0  0
 36 37  1  0  0  0
 37 38  1  0  0  0
 38 39  2  0  0  0
 39 40  1  0  0  0
 40 41  2  0  0  0
 41 42  1  0  0  0
 42 43  2  0  0  0
 12 13  1  0  0  0
 13 14  2  0  0  0
 13 15  1  0  0  0
 15 16  2  0  0  0
 16 17  1  0  0  0
 17 18  2  0  0  0
 18 19  1  0  0  0
  5  1  1  0  0  0
 50 45  1  0  0  0
 43 38  1  0  0  0
 19 15  1  0  0  0
 23 27  1  0  0  0
 23 28  1  0  0  0
 25 29  1  0  0  0
 25 30  1  0  0  0
  8 11  1  0  0  0
 32 35  1  0  0  0
M  END
> <minimizedAffinity>
-8.37996

> <CNNscore>
0.2643493414

> <CNNaffinity>
7.3076033592

> <CNN_VS>
1.9317601919

> <CNNaffinity_variance>
0.1466247439

$$$$
[H]c1nc(C(=O)[C@@]([H])(N([H])C(=O)[C@@]2([H])N(C(=O)[C@]([H])(N([H])C(=O)OC([H])([H])c3c([H])c([H])c([H])c([H])c3[H])C([H])([H])c3c([H])c([H])c([H])c([H])c3[H])C([H])([H])C([H])([H])C2([H])[H])C([H])([H])C([H])([H])C([H])([H])N=C(N([H])[H])N([H])[H])sc1[H]


 50 53  0  0  0  0  0  0  0  0999 V2000
  -17.9583   11.8003  -19.8542 C   0  0  0  0  0  0  0  0  0  0  0  0
  -16.8436   11.8217  -18.7919 C   0  0  0  0  0  0  0  0  0  0  0  0
  -15.9673   10.6746  -19.3191 C   0  0  0  0  0  0  0  0  0  0  0  0
  -16.6233   10.2184  -20.6086 C   0  0  0  0  0  0  0  0  0  0  0  0
  -17.1752   11.5924  -21.0084 N   0  0  0  0  0  0  0  0  0  0  0  0
  -16.7683   12.1912  -22.2014 C   0  0  0  0  0  0  0  0  0  0  0  0
  -16.0396   11.4022  -22.9606 O   0  0  0  0  0  0  0  0  0  0  0  0
  -18.6481   13.8304  -18.6558 N   0  0  0  0  0  0  0  0  0  0  0  0
  -18.9220   12.8356  -19.6916 C   0  0  0  0  0  0  0  0  0  0  0  0
  -19.9861   13.0523  -20.2863 O   0  0  0  0  0  0  0  0  0  0  0  0
  -17.7770   13.7071  -18.1181 H   0  0  0  0  0  0  0  0  0  0  0  0
  -19.5651   14.9344  -18.4047 C   0  0  0  0  0  0  0  0  0  0  0  0
  -18.8619   16.1602  -18.0302 C   0  0  0  0  0  0  0  0  0  0  0  0
  -18.8848   16.5687  -16.8180 O   0  0  0  0  0  0  0  0  0  0  0  0
  -18.0915   17.0058  -18.9572 C   0  0  0  0  0  0  0  0  0  0  0  0
  -18.4536   18.1873  -19.4306 N   0  0  0  0  0  0  0  0  0  0  0  0
  -17.6758   18.8358  -20.2245 C   0  0  0  0  0  0  0  0  0  0  0  0
  -16.4712   18.2577  -20.5550 C   0  0  0  0  0  0  0  0  0  0  0  0
  -16.5553   16.7909  -19.6758 S   0  0  0  0  0  0  0  0  0  0  0  0
  -20.5448   14.5378  -17.3063 C   0  0  0  0  0  0  0  0  0  0  0  0
  -21.9079   15.0440  -17.6431 C   0  0  0  0  0  0  0  0  0  0  0  0
  -22.6916   15.3963  -16.3658 C   0  0  0  0  0  0  0  0  0  0  0  0
  -21.8148   18.1022  -16.0558 N   0  0  0  0  0  0  0  0  0  0  0  0
  -21.3766   17.0498  -15.2132 C   0  0  0  0  0  0  0  0  0  0  0  0
  -20.4612   17.3566  -14.1733 N   0  0  0  0  0  0  0  0  0  0  0  0
  -21.7791   15.8605  -15.3709 N   0  0  0  0  0  0  0  0  0  0  0  0
  -22.1244   19.0081  -15.6363 H   0  0  0  0  0  0  0  0  0  0  0  0
  -21.8375   18.0020  -17.0767 H   0  0  0  0  0  0  0  0  0  0  0  0
  -20.7655   17.5717  -13.1843 H   0  0  0  0  0  0  0  0  0  0  0  0
  -19.4154   17.3881  -14.3290 H   0  0  0  0  0  0  0  0  0  0  0  0
  -16.9932   13.5151  -22.7613 C   0  0  0  0  0  0  0  0  0  0  0  0
  -18.2513   14.1056  -22.2237 N   0  0  0  0  0  0  0  0  0  0  0  0
  -18.5035   15.4862  -22.3422 C   0  0  0  0  0  0  0  0  0  0  0  0
  -17.6212   16.2000  -22.9186 O   0  0  0  0  0  0  0  0  0  0  0  0
  -18.9650   13.5085  -21.7536 H   0  0  0  0  0  0  0  0  0  0  0  0
  -19.6159   16.1555  -21.8977 O   0  0  0  0  0  0  0  0  0  0  0  0
  -20.0765   17.3568  -22.4973 C   0  0  0  0  0  0  0  0  0  0  0  0
  -21.4227   17.6715  -21.9554 C   0  0  0  0  0  0  0  0  0  0  0  0
  -21.8070   17.2643  -20.6956 C   0  0  0  0  0  0  0  0  0  0  0  0
  -23.0454   17.5622  -20.2006 C   0  0  0  0  0  0  0  0  0  0  0  0
  -23.9205   18.2830  -20.9800 C   0  0  0  0  0  0  0  0  0  0  0  0
  -23.5682   18.7143  -22.2630 C   0  0  0  0  0  0  0  0  0  0  0  0
  -22.3096   18.3962  -22.7325 C   0  0  0  0  0  0  0  0  0  0  0  0
  -17.3040   13.4426  -24.2598 C   0  0  0  0  0  0  0  0  0  0  0  0
  -16.3174   14.2135  -25.0451 C   0  0  0  0  0  0  0  0  0  0  0  0
  -15.0337   14.3178  -24.5505 C   0  0  0  0  0  0  0  0  0  0  0  0
  -14.0297   15.0113  -25.2039 C   0  0  0  0  0  0  0  0  0  0  0  0
  -14.3227   15.6231  -26.3978 C   0  0  0  0  0  0  0  0  0  0  0  0
  -15.6003   15.5300  -26.9078 C   0  0  0  0  0  0  0  0  0  0  0  0
  -16.6058   14.8275  -26.2395 C   0  0  0  0  0  0  0  0  0  0  0  0
 23 24  1  0  0  0
 24 25  1  0  0  0
 24 26  2  0  0  0
 26 22  1  0  0  0
 22 21  1  0  0  0
 21 20  1  0  0  0
 20 12  1  0  0  0
 12  8  1  0  0  0
  8  9  1  0  0  0
  9 10  2  0  0  0
  9  1  1  0  0  0
  1  2  1  0  0  0
  2  3  1  0  0  0
  3  4  1  0  0  0
  4  5  1  0  0  0
  5  6  1  0  0  0
  6  7  2  0  0  0
  6 31  1  0  0  0
 31 44  1  0  0  0
 44 45  1  0  0  0
 45 46  2  0  0  0
 46 47  1  0  0  0
 47 48  2  0  0  0
 48 49  1  0  0  0
 49 50  2  0  0  0
 31 32  1  0  0  0
 32 33  1  0  0  0
 33 34  2  0  0  0
 33 36  1  0  0  0
 36 37  1  0  0  0
 37 38  1  0  0  0
 38 39  2  0  0  0
 39 40  1  0  0  0
 40 41  2  0  0  0
 41 42  1  0  0  0
 42 43  2  0  0  0
 12 13  1  0  0  0
 13 14  2  0  0  0
 13 15  1  0  0  0
 15 16  2  0  0  0
 16 17  1  0  0  0
 17 18  2  0  0  0
 18 19  1  0  0  0
  5  1  1  0  0  0
 50 45  1  0  0  0
 43 38  1  0  0  0
 19 15  1  0  0  0
 23 27  1  0  0  0
 23 28  1  0  0  0
 25 29  1  0  0  0
 25 30  1  0  0  0
  8 11  1  0  0  0
 32 35  1  0  0  0
M  END
> <minimizedAffinity>
-7.79449

> <CNNscore>
0.2643050849

> <CNNaffinity>
7.3731489182

> <CNN_VS>
1.9487607479

> <CNNaffinity_variance>
0.5318576097

$$$$
[H]c1nc(C(=O)[C@@]([H])(N([H])C(=O)[C@@]2([H])N(C(=O)[C@]([H])(N([H])C(=O)OC([H])([H])c3c([H])c([H])c([H])c([H])c3[H])C([H])([H])c3c([H])c([H])c([H])c([H])c3[H])C([H])([H])C([H])([H])C2([H])[H])C([H])([H])C([H])([H])C([H])([H])N=C(N([H])[H])N([H])[H])sc1[H]


 50 53  0  0  0  0  0  0  0  0999 V2000
  -18.0811   14.7924  -19.7921 C   0  0  0  0  0  0  0  0  0  0  0  0
  -18.6922   13.8721  -20.8649 C   0  0  0  0  0  0  0  0  0  0  0  0
  -19.3628   12.8306  -19.9553 C   0  0  0  0  0  0  0  0  0  0  0  0
  -19.1288   13.3155  -18.5370 C   0  0  0  0  0  0  0  0  0  0  0  0
  -19.1471   14.8127  -18.8690 N   0  0  0  0  0  0  0  0  0  0  0  0
  -20.1056   15.6470  -18.2922 C   0  0  0  0  0  0  0  0  0  0  0  0
  -20.8244   15.0541  -17.3639 O   0  0  0  0  0  0  0  0  0  0  0  0
  -17.5207   16.1295  -21.7747 N   0  0  0  0  0  0  0  0  0  0  0  0
  -17.4365   15.9435  -20.3271 C   0  0  0  0  0  0  0  0  0  0  0  0
  -16.7945   16.8442  -19.7708 O   0  0  0  0  0  0  0  0  0  0  0  0
  -18.0400   15.4113  -22.3016 H   0  0  0  0  0  0  0  0  0  0  0  0
  -16.8996   17.2738  -22.4286 C   0  0  0  0  0  0  0  0  0  0  0  0
  -17.8782   18.1113  -23.1201 C   0  0  0  0  0  0  0  0  0  0  0  0
  -18.2001   17.8556  -24.3316 O   0  0  0  0  0  0  0  0  0  0  0  0
  -18.5626   19.2718  -22.5262 C   0  0  0  0  0  0  0  0  0  0  0  0
  -18.6172   19.5803  -21.2405 N   0  0  0  0  0  0  0  0  0  0  0  0
  -19.2367   20.6390  -20.8516 C   0  0  0  0  0  0  0  0  0  0  0  0
  -19.8303   21.4237  -21.8139 C   0  0  0  0  0  0  0  0  0  0  0  0
  -19.4408   20.5548  -23.2369 S   0  0  0  0  0  0  0  0  0  0  0  0
  -15.8446   16.7820  -23.4130 C   0  0  0  0  0  0  0  0  0  0  0  0
  -15.7300   15.2965  -23.3249 C   0  0  0  0  0  0  0  0  0  0  0  0
  -14.6454   14.7737  -24.2841 C   0  0  0  0  0  0  0  0  0  0  0  0
  -13.9427   16.6365  -26.3390 N   0  0  0  0  0  0  0  0  0  0  0  0
  -14.8670   15.5807  -26.5405 C   0  0  0  0  0  0  0  0  0  0  0  0
  -15.4690   15.4476  -27.8185 N   0  0  0  0  0  0  0  0  0  0  0  0
  -15.1615   14.7694  -25.6151 N   0  0  0  0  0  0  0  0  0  0  0  0
  -13.1944   16.8131  -27.0470 H   0  0  0  0  0  0  0  0  0  0  0  0
  -13.9857   17.2404  -25.5106 H   0  0  0  0  0  0  0  0  0  0  0  0
  -15.0883   14.8091  -28.5697 H   0  0  0  0  0  0  0  0  0  0  0  0
  -16.3384   15.9830  -28.0946 H   0  0  0  0  0  0  0  0  0  0  0  0
  -20.4609   17.0390  -18.5221 C   0  0  0  0  0  0  0  0  0  0  0  0
  -20.5082   17.3344  -19.9819 N   0  0  0  0  0  0  0  0  0  0  0  0
  -21.6933   17.8044  -20.5805 C   0  0  0  0  0  0  0  0  0  0  0  0
  -22.7105   17.9619  -19.8318 O   0  0  0  0  0  0  0  0  0  0  0  0
  -19.6670   17.2003  -20.5829 H   0  0  0  0  0  0  0  0  0  0  0  0
  -21.8723   18.1173  -21.9046 O   0  0  0  0  0  0  0  0  0  0  0  0
  -22.8157   19.0838  -22.3415 C   0  0  0  0  0  0  0  0  0  0  0  0
  -23.0772   18.8711  -23.7877 C   0  0  0  0  0  0  0  0  0  0  0  0
  -23.1996   17.6056  -24.3207 C   0  0  0  0  0  0  0  0  0  0  0  0
  -23.4461   17.4169  -25.6515 C   0  0  0  0  0  0  0  0  0  0  0  0
  -23.5737   18.5159  -26.4694 C   0  0  0  0  0  0  0  0  0  0  0  0
  -23.4564   19.8158  -25.9669 C   0  0  0  0  0  0  0  0  0  0  0  0
  -23.2070   19.9708  -24.6181 C   0  0  0  0  0  0  0  0  0  0  0  0
  -19.3498   17.9840  -18.0535 C   0  0  0  0  0  0  0  0  0  0  0  0
  -19.7034   18.6245  -16.7693 C   0  0  0  0  0  0  0  0  0  0  0  0
  -19.2264   18.0543  -15.6072 C   0  0  0  0  0  0  0  0  0  0  0  0
  -19.4920   18.5718  -14.3511 C   0  0  0  0  0  0  0  0  0  0  0  0
  -20.2643   19.7031  -14.2558 C   0  0  0  0  0  0  0  0  0  0  0  0
  -20.7502   20.2870  -15.4064 C   0  0  0  0  0  0  0  0  0  0  0  0
  -20.4759   19.7559  -16.6689 C   0  0  0  0  0  0  0  0  0  0  0  0
 23 24  1  0  0  0
 24 25  1  0  0  0
 24 26  2  0  0  0
 26 22  1  0  0  0
 22 21  1  0  0  0
 21 20  1  0  0  0
 20 12  1  0  0  0
 12  8  1  0  0  0
  8  9  1  0  0  0
  9 10  2  0  0  0
  9  1  1  0  0  0
  1  2  1  0  0  0
  2  3  1  0  0  0
  3  4  1  0  0  0
  4  5  1  0  0  0
  5  6  1  0  0  0
  6  7  2  0  0  0
  6 31  1  0  0  0
 31 44  1  0  0  0
 44 45  1  0  0  0
 45 46  2  0  0  0
 46 47  1  0  0  0
 47 48  2  0  0  0
 48 49  1  0  0  0
 49 50  2  0  0  0
 31 32  1  0  0  0
 32 33  1  0  0  0
 33 34  2  0  0  0
 33 36  1  0  0  0
 36 37  1  0  0  0
 37 38  1  0  0  0
 38 39  2  0  0  0
 39 40  1  0  0  0
 40 41  2  0  0  0
 41 42  1  0  0  0
 42 43  2  0  0  0
 12 13  1  0  0  0
 13 14  2  0  0  0
 13 15  1  0  0  0
 15 16  2  0  0  0
 16 17  1  0  0  0
 17 18  2  0  0  0
 18 19  1  0  0  0
  5  1  1  0  0  0
 50 45  1  0  0  0
 43 38  1  0  0  0
 19 15  1  0  0  0
 23 27  1  0  0  0
 23 28  1  0  0  0
 25 29  1  0  0  0
 25 30  1  0  0  0
  8 11  1  0  0  0
 32 35  1  0  0  0
M  END
> <minimizedAffinity>
-8.05142

> <CNNscore>
0.2494260520

> <CNNaffinity>
7.1219229698

> <CNN_VS>
1.7763931751

> <CNNaffinity_variance>
0.6431482434

$$$$
[H]c1nc(C(=O)[C@@]([H])(N([H])C(=O)[C@@]2([H])N(C(=O)[C@]([H])(N([H])C(=O)OC([H])([H])c3c([H])c([H])c([H])c([H])c3[H])C([H])([H])c3c([H])c([H])c([H])c([H])c3[H])C([H])([H])C([H])([H])C2([H])[H])C([H])([H])C([H])([H])C([H])([H])N=C(N([H])[H])N([H])[H])sc1[H]


 50 53  0  0  0  0  0  0  0  0999 V2000
  -18.2635   12.7393  -19.2551 C   0  0  0  0  0  0  0  0  0  0  0  0
  -16.9656   11.9415  -19.0307 C   0  0  0  0  0  0  0  0  0  0  0  0
  -16.9485   11.1136  -20.3253 C   0  0  0  0  0  0  0  0  0  0  0  0
  -18.1457   11.5859  -21.1284 C   0  0  0  0  0  0  0  0  0  0  0  0
  -18.1203   13.0349  -20.6265 N   0  0  0  0  0  0  0  0  0  0  0  0
  -17.9360   14.0854  -21.5265 C   0  0  0  0  0  0  0  0  0  0  0  0
  -17.9603   13.7057  -22.7856 O   0  0  0  0  0  0  0  0  0  0  0  0
  -19.4370   14.7882  -18.5781 N   0  0  0  0  0  0  0  0  0  0  0  0
  -18.5308   13.6940  -18.2332 C   0  0  0  0  0  0  0  0  0  0  0  0
  -18.1199   13.7694  -17.0677 O   0  0  0  0  0  0  0  0  0  0  0  0
  -19.8143   14.7882  -19.5377 H   0  0  0  0  0  0  0  0  0  0  0  0
  -19.7821   15.8197  -17.6088 C   0  0  0  0  0  0  0  0  0  0  0  0
  -21.2281   15.9606  -17.4457 C   0  0  0  0  0  0  0  0  0  0  0  0
  -21.9579   16.2891  -18.4438 O   0  0  0  0  0  0  0  0  0  0  0  0
  -21.9580   15.7469  -16.1849 C   0  0  0  0  0  0  0  0  0  0  0  0
  -22.6349   16.6570  -15.5033 N   0  0  0  0  0  0  0  0  0  0  0  0
  -23.2472   16.3345  -14.4185 C   0  0  0  0  0  0  0  0  0  0  0  0
  -23.1692   15.0244  -14.0040 C   0  0  0  0  0  0  0  0  0  0  0  0
  -22.1971   14.3437  -15.2382 S   0  0  0  0  0  0  0  0  0  0  0  0
  -19.1740   17.1475  -18.0457 C   0  0  0  0  0  0  0  0  0  0  0  0
  -19.7314   18.2531  -17.2122 C   0  0  0  0  0  0  0  0  0  0  0  0
  -19.2012   18.1711  -15.7694 C   0  0  0  0  0  0  0  0  0  0  0  0
  -19.3143   17.9032  -12.9230 N   0  0  0  0  0  0  0  0  0  0  0  0
  -20.1517   18.7890  -13.6466 C   0  0  0  0  0  0  0  0  0  0  0  0
  -21.0871   19.5733  -12.9231 N   0  0  0  0  0  0  0  0  0  0  0  0
  -20.0825   18.8894  -14.9061 N   0  0  0  0  0  0  0  0  0  0  0  0
  -18.8274   18.2376  -12.0607 H   0  0  0  0  0  0  0  0  0  0  0  0
  -19.1695   16.9324  -13.2221 H   0  0  0  0  0  0  0  0  0  0  0  0
  -20.8847   20.5603  -12.6036 H   0  0  0  0  0  0  0  0  0  0  0  0
  -22.0462   19.2132  -12.6600 H   0  0  0  0  0  0  0  0  0  0  0  0
  -17.7211   15.5120  -21.3387 C   0  0  0  0  0  0  0  0  0  0  0  0
  -18.3287   16.2862  -22.4575 N   0  0  0  0  0  0  0  0  0  0  0  0
  -19.6005   16.8745  -22.3151 C   0  0  0  0  0  0  0  0  0  0  0  0
  -20.2027   16.7169  -21.2049 O   0  0  0  0  0  0  0  0  0  0  0  0
  -17.8237   16.4068  -23.3616 H   0  0  0  0  0  0  0  0  0  0  0  0
  -20.2706   17.6123  -23.2583 O   0  0  0  0  0  0  0  0  0  0  0  0
  -21.4821   18.2958  -22.9759 C   0  0  0  0  0  0  0  0  0  0  0  0
  -22.2451   18.4506  -24.2404 C   0  0  0  0  0  0  0  0  0  0  0  0
  -22.4087   19.6819  -24.8387 C   0  0  0  0  0  0  0  0  0  0  0  0
  -23.1072   19.8166  -26.0054 C   0  0  0  0  0  0  0  0  0  0  0  0
  -23.6550   18.6975  -26.5890 C   0  0  0  0  0  0  0  0  0  0  0  0
  -23.5110   17.4310  -26.0133 C   0  0  0  0  0  0  0  0  0  0  0  0
  -22.7997   17.3303  -24.8345 C   0  0  0  0  0  0  0  0  0  0  0  0
  -16.2401   15.8775  -21.4812 C   0  0  0  0  0  0  0  0  0  0  0  0
  -15.8204   15.8520  -22.8981 C   0  0  0  0  0  0  0  0  0  0  0  0
  -15.1069   14.7585  -23.3436 C   0  0  0  0  0  0  0  0  0  0  0  0
  -14.6672   14.6282  -24.6496 C   0  0  0  0  0  0  0  0  0  0  0  0
  -14.9534   15.6309  -25.5429 C   0  0  0  0  0  0  0  0  0  0  0  0
  -15.6653   16.7318  -25.1161 C   0  0  0  0  0  0  0  0  0  0  0  0
  -16.1038   16.8527  -23.7953 C   0  0  0  0  0  0  0  0  0  0  0  0
 23 24  1  0  0  0
 24 25  1  0  0  0
 24 26  2  0  0  0
 26 22  1  0  0  0
 22 21  1  0  0  0
 21 20  1  0  0  0
 20 12  1  0  0  0
 12  8  1  0  0  0
  8  9  1  0  0  0
  9 10  2  0  0  0
  9  1  1  0  0  0
  1  2  1  0  0  0
  2  3  1  0  0  0
  3  4  1  0  0  0
  4  5  1  0  0  0
  5  6  1  0  0  0
  6  7  2  0  0  0
  6 31  1  0  0  0
 31 44  1  0  0  0
 44 45  1  0  0  0
 45 46  2  0  0  0
 46 47  1  0  0  0
 47 48  2  0  0  0
 48 49  1  0  0  0
 49 50  2  0  0  0
 31 32  1  0  0  0
 32 33  1  0  0  0
 33 34  2  0  0  0
 33 36  1  0  0  0
 36 37  1  0  0  0
 37 38  1  0  0  0
 38 39  2  0  0  0
 39 40  1  0  0  0
 40 41  2  0  0  0
 41 42  1  0  0  0
 42 43  2  0  0  0
 12 13  1  0  0  0
 13 14  2  0  0  0
 13 15  1  0  0  0
 15 16  2  0  0  0
 16 17  1  0  0  0
 17 18  2  0  0  0
 18 19  1  0  0  0
  5  1  1  0  0  0
 50 45  1  0  0  0
 43 38  1  0  0  0
 19 15  1  0  0  0
 23 27  1  0  0  0
 23 28  1  0  0  0
 25 29  1  0  0  0
 25 30  1  0  0  0
  8 11  1  0  0  0
 32 35  1  0  0  0
M  END
> <minimizedAffinity>
-8.08510

> <CNNscore>
0.2409491241

> <CNNaffinity>
6.9904937744

> <CNN_VS>
1.6843533516

> <CNNaffinity_variance>
0.2543135285

$$$$
[H]c1nc(C(=O)[C@@]([H])(N([H])C(=O)[C@@]2([H])N(C(=O)[C@]([H])(N([H])C(=O)OC([H])([H])c3c([H])c([H])c([H])c([H])c3[H])C([H])([H])c3c([H])c([H])c([H])c([H])c3[H])C([H])([H])C([H])([H])C2([H])[H])C([H])([H])C([H])([H])C([H])([H])N=C(N([H])[H])N([H])[H])sc1[H]


 50 53  0  0  0  0  0  0  0  0999 V2000
  -20.9248   16.5477  -18.2980 C   0  0  0  0  0  0  0  0  0  0  0  0
  -20.4204   17.9514  -17.9147 C   0  0  0  0  0  0  0  0  0  0  0  0
  -20.0243   17.6894  -16.4531 C   0  0  0  0  0  0  0  0  0  0  0  0
  -20.2657   16.2095  -16.2231 C   0  0  0  0  0  0  0  0  0  0  0  0
  -19.9436   15.7649  -17.6551 N   0  0  0  0  0  0  0  0  0  0  0  0
  -18.8903   14.8812  -17.8947 C   0  0  0  0  0  0  0  0  0  0  0  0
  -18.3644   14.3845  -16.7962 O   0  0  0  0  0  0  0  0  0  0  0  0
  -21.4040   17.6740  -20.4275 N   0  0  0  0  0  0  0  0  0  0  0  0
  -21.3021   16.4303  -19.6657 C   0  0  0  0  0  0  0  0  0  0  0  0
  -21.5707   15.4335  -20.3491 O   0  0  0  0  0  0  0  0  0  0  0  0
  -21.1963   18.5452  -19.9164 H   0  0  0  0  0  0  0  0  0  0  0  0
  -21.7802   17.6713  -21.8350 C   0  0  0  0  0  0  0  0  0  0  0  0
  -21.0067   18.6369  -22.6139 C   0  0  0  0  0  0  0  0  0  0  0  0
  -20.7785   18.4253  -23.8548 O   0  0  0  0  0  0  0  0  0  0  0  0
  -20.4428   19.8888  -22.0822 C   0  0  0  0  0  0  0  0  0  0  0  0
  -21.1164   20.8790  -21.5194 N   0  0  0  0  0  0  0  0  0  0  0  0
  -20.4981   21.9171  -21.0770 C   0  0  0  0  0  0  0  0  0  0  0  0
  -19.1289   21.9533  -21.2121 C   0  0  0  0  0  0  0  0  0  0  0  0
  -18.8324   20.4540  -21.9840 S   0  0  0  0  0  0  0  0  0  0  0  0
  -23.2694   17.9721  -21.9607 C   0  0  0  0  0  0  0  0  0  0  0  0
  -23.7518   17.5616  -23.3121 C   0  0  0  0  0  0  0  0  0  0  0  0
  -24.1100   18.7936  -24.1626 C   0  0  0  0  0  0  0  0  0  0  0  0
  -22.5687   20.1163  -26.1780 N   0  0  0  0  0  0  0  0  0  0  0  0
  -23.4015   19.0025  -26.4530 C   0  0  0  0  0  0  0  0  0  0  0  0
  -23.4720   18.5281  -27.7885 N   0  0  0  0  0  0  0  0  0  0  0  0
  -24.0737   18.4345  -25.5439 N   0  0  0  0  0  0  0  0  0  0  0  0
  -21.5971   20.1451  -26.5622 H   0  0  0  0  0  0  0  0  0  0  0  0
  -22.8935   20.9048  -25.6074 H   0  0  0  0  0  0  0  0  0  0  0  0
  -22.8677   17.7407  -28.1517 H   0  0  0  0  0  0  0  0  0  0  0  0
  -24.1372   18.9377  -28.5017 H   0  0  0  0  0  0  0  0  0  0  0  0
  -18.2652   14.4092  -19.1207 C   0  0  0  0  0  0  0  0  0  0  0  0
  -18.6227   15.2927  -20.2661 N   0  0  0  0  0  0  0  0  0  0  0  0
  -17.6907   16.2166  -20.7775 C   0  0  0  0  0  0  0  0  0  0  0  0
  -16.5450   16.2663  -20.2252 O   0  0  0  0  0  0  0  0  0  0  0  0
  -19.5654   15.2411  -20.7084 H   0  0  0  0  0  0  0  0  0  0  0  0
  -17.8869   17.0819  -21.8244 O   0  0  0  0  0  0  0  0  0  0  0  0
  -16.9853   17.1782  -22.9164 C   0  0  0  0  0  0  0  0  0  0  0  0
  -16.9715   15.8793  -23.6360 C   0  0  0  0  0  0  0  0  0  0  0  0
  -18.1012   15.3826  -24.2507 C   0  0  0  0  0  0  0  0  0  0  0  0
  -18.0803   14.1892  -24.9162 C   0  0  0  0  0  0  0  0  0  0  0  0
  -16.9055   13.4751  -24.9701 C   0  0  0  0  0  0  0  0  0  0  0  0
  -15.7383   13.9451  -24.3596 C   0  0  0  0  0  0  0  0  0  0  0  0
  -15.7942   15.1540  -23.6953 C   0  0  0  0  0  0  0  0  0  0  0  0
  -18.8573   13.0695  -19.5699 C   0  0  0  0  0  0  0  0  0  0  0  0
  -17.7958   12.1403  -20.0105 C   0  0  0  0  0  0  0  0  0  0  0  0
  -17.3856   12.2013  -21.3263 C   0  0  0  0  0  0  0  0  0  0  0  0
  -16.3978   11.3822  -21.8452 C   0  0  0  0  0  0  0  0  0  0  0  0
  -15.7983   10.4678  -21.0147 C   0  0  0  0  0  0  0  0  0  0  0  0
  -16.1952   10.3920  -19.6965 C   0  0  0  0  0  0  0  0  0  0  0  0
  -17.1934   11.2236  -19.1837 C   0  0  0  0  0  0  0  0  0  0  0  0
 23 24  1  0  0  0
 24 25  1  0  0  0
 24 26  2  0  0  0
 26 22  1  0  0  0
 22 21  1  0  0  0
 21 20  1  0  0  0
 20 12  1  0  0  0
 12  8  1  0  0  0
  8  9  1  0  0  0
  9 10  2  0  0  0
  9  1  1  0  0  0
  1  2  1  0  0  0
  2  3  1  0  0  0
  3  4  1  0  0  0
  4  5  1  0  0  0
  5  6  1  0  0  0
  6  7  2  0  0  0
  6 31  1  0  0  0
 31 44  1  0  0  0
 44 45  1  0  0  0
 45 46  2  0  0  0
 46 47  1  0  0  0
 47 48  2  0  0  0
 48 49  1  0  0  0
 49 50  2  0  0  0
 31 32  1  0  0  0
 32 33  1  0  0  0
 33 34  2  0  0  0
 33 36  1  0  0  0
 36 37  1  0  0  0
 37 38  1  0  0  0
 38 39  2  0  0  0
 39 40  1  0  0  0
 40 41  2  0  0  0
 41 42  1  0  0  0
 42 43  2  0  0  0
 12 13  1  0  0  0
 13 14  2  0  0  0
 13 15  1  0  0  0
 15 16  2  0  0  0
 16 17  1  0  0  0
 17 18  2  0  0  0
 18 19  1  0  0  0
  5  1  1  0  0  0
 50 45  1  0  0  0
 43 38  1  0  0  0
 19 15  1  0  0  0
 23 27  1  0  0  0
 23 28  1  0  0  0
 25 29  1  0  0  0
 25 30  1  0  0  0
  8 11  1  0  0  0
 32 35  1  0  0  0
M  END
> <minimizedAffinity>
-8.31137

> <CNNscore>
0.2331968397

> <CNNaffinity>
6.9170355797

> <CNN_VS>
1.6130307913

> <CNNaffinity_variance>
0.8781412244

$$$$
[H]c1nc(C(=O)[C@@]([H])(N([H])C(=O)[C@@]2([H])N(C(=O)[C@]([H])(N([H])C(=O)OC([H])([H])c3c([H])c([H])c([H])c([H])c3[H])C([H])([H])c3c([H])c([H])c([H])c([H])c3[H])C([H])([H])C([H])([H])C2([H])[H])C([H])([H])C([H])([H])C([H])([H])N=C(N([H])[H])N([H])[H])sc1[H]


 50 53  0  0  0  0  0  0  0  0999 V2000
  -19.1370   17.6094  -22.2795 C   0  0  0  0  0  0  0  0  0  0  0  0
  -18.9143   17.0823  -23.7092 C   0  0  0  0  0  0  0  0  0  0  0  0
  -17.3787   17.0261  -23.7237 C   0  0  0  0  0  0  0  0  0  0  0  0
  -16.9415   17.4325  -22.3291 C   0  0  0  0  0  0  0  0  0  0  0  0
  -18.1598   16.8541  -21.5988 N   0  0  0  0  0  0  0  0  0  0  0  0
  -17.9931   15.8511  -20.6429 C   0  0  0  0  0  0  0  0  0  0  0  0
  -16.7333   15.6114  -20.3506 O   0  0  0  0  0  0  0  0  0  0  0  0
  -21.1092   19.0317  -21.9322 N   0  0  0  0  0  0  0  0  0  0  0  0
  -20.5093   17.6986  -21.9111 C   0  0  0  0  0  0  0  0  0  0  0  0
  -21.3128   16.8236  -21.5624 O   0  0  0  0  0  0  0  0  0  0  0  0
  -20.4924   19.8096  -22.2112 H   0  0  0  0  0  0  0  0  0  0  0  0
  -22.5066   19.2391  -21.5759 C   0  0  0  0  0  0  0  0  0  0  0  0
  -23.2786   19.8055  -22.6806 C   0  0  0  0  0  0  0  0  0  0  0  0
  -23.8860   20.9218  -22.5335 O   0  0  0  0  0  0  0  0  0  0  0  0
  -23.4270   19.1867  -24.0084 C   0  0  0  0  0  0  0  0  0  0  0  0
  -23.6288   19.8188  -25.1533 N   0  0  0  0  0  0  0  0  0  0  0  0
  -23.7236   19.1576  -26.2531 C   0  0  0  0  0  0  0  0  0  0  0  0
  -23.6083   17.7876  -26.1890 C   0  0  0  0  0  0  0  0  0  0  0  0
  -23.3669   17.5536  -24.5102 S   0  0  0  0  0  0  0  0  0  0  0  0
  -22.5874   20.1540  -20.3592 C   0  0  0  0  0  0  0  0  0  0  0  0
  -22.4682   19.3422  -19.1123 C   0  0  0  0  0  0  0  0  0  0  0  0
  -21.3245   19.8666  -18.2255 C   0  0  0  0  0  0  0  0  0  0  0  0
  -18.8488   21.2640  -18.5499 N   0  0  0  0  0  0  0  0  0  0  0  0
  -18.9887   19.8766  -18.8048 C   0  0  0  0  0  0  0  0  0  0  0  0
  -17.8484   19.1540  -19.2420 N   0  0  0  0  0  0  0  0  0  0  0  0
  -20.0949   19.2811  -18.6538 N   0  0  0  0  0  0  0  0  0  0  0  0
  -18.0372   21.6093  -17.9891 H   0  0  0  0  0  0  0  0  0  0  0  0
  -19.5268   21.9484  -18.9031 H   0  0  0  0  0  0  0  0  0  0  0  0
  -17.2133   18.6273  -18.5814 H   0  0  0  0  0  0  0  0  0  0  0  0
  -17.5664   19.1008  -20.2600 H   0  0  0  0  0  0  0  0  0  0  0  0
  -18.9416   15.0231  -19.9138 C   0  0  0  0  0  0  0  0  0  0  0  0
  -19.7577   15.8540  -18.9843 N   0  0  0  0  0  0  0  0  0  0  0  0
  -21.0386   15.4302  -18.5802 C   0  0  0  0  0  0  0  0  0  0  0  0
  -21.4657   14.3223  -19.0388 O   0  0  0  0  0  0  0  0  0  0  0  0
  -19.3949   16.7597  -18.6169 H   0  0  0  0  0  0  0  0  0  0  0  0
  -21.8890   16.0924  -17.7309 O   0  0  0  0  0  0  0  0  0  0  0  0
  -21.8652   15.9041  -16.3242 C   0  0  0  0  0  0  0  0  0  0  0  0
  -21.2973   17.1219  -15.6922 C   0  0  0  0  0  0  0  0  0  0  0  0
  -22.1054   18.0877  -15.1310 C   0  0  0  0  0  0  0  0  0  0  0  0
  -21.5761   19.2035  -14.5458 C   0  0  0  0  0  0  0  0  0  0  0  0
  -20.2093   19.3594  -14.5197 C   0  0  0  0  0  0  0  0  0  0  0  0
  -19.3559   18.4022  -15.0780 C   0  0  0  0  0  0  0  0  0  0  0  0
  -19.9235   17.2872  -15.6614 C   0  0  0  0  0  0  0  0  0  0  0  0
  -18.2275   14.0824  -18.9380 C   0  0  0  0  0  0  0  0  0  0  0  0
  -17.8128   12.8335  -19.6109 C   0  0  0  0  0  0  0  0  0  0  0  0
  -17.0945   11.9103  -18.8794 C   0  0  0  0  0  0  0  0  0  0  0  0
  -16.6590   10.7070  -19.4068 C   0  0  0  0  0  0  0  0  0  0  0  0
  -16.9543   10.4176  -20.7162 C   0  0  0  0  0  0  0  0  0  0  0  0
  -17.6712   11.3281  -21.4632 C   0  0  0  0  0  0  0  0  0  0  0  0
  -18.1055   12.5397  -20.9204 C   0  0  0  0  0  0  0  0  0  0  0  0
 23 24  1  0  0  0
 24 25  1  0  0  0
 24 26  2  0  0  0
 26 22  1  0  0  0
 22 21  1  0  0  0
 21 20  1  0  0  0
 20 12  1  0  0  0
 12  8  1  0  0  0
  8  9  1  0  0  0
  9 10  2  0  0  0
  9  1  1  0  0  0
  1  2  1  0  0  0
  2  3  1  0  0  0
  3  4  1  0  0  0
  4  5  1  0  0  0
  5  6  1  0  0  0
  6  7  2  0  0  0
  6 31  1  0  0  0
 31 44  1  0  0  0
 44 45  1  0  0  0
 45 46  2  0  0  0
 46 47  1  0  0  0
 47 48  2  0  0  0
 48 49  1  0  0  0
 49 50  2  0  0  0
 31 32  1  0  0  0
 32 33  1  0  0  0
 33 34  2  0  0  0
 33 36  1  0  0  0
 36 37  1  0  0  0
 37 38  1  0  0  0
 38 39  2  0  0  0
 39 40  1  0  0  0
 40 41  2  0  0  0
 41 42  1  0  0  0
 42 43  2  0  0  0
 12 13  1  0  0  0
 13 14  2  0  0  0
 13 15  1  0  0  0
 15 16  2  0  0  0
 16 17  1  0  0  0
 17 18  2  0  0  0
 18 19  1  0  0  0
  5  1  1  0  0  0
 50 45  1  0  0  0
 43 38  1  0  0  0
 19 15  1  0  0  0
 23 27  1  0  0  0
 23 28  1  0  0  0
 25 29  1  0  0  0
 25 30  1  0  0  0
  8 11  1  0  0  0
 32 35  1  0  0  0
M  END
> <minimizedAffinity>
-7.30509

> <CNNscore>
0.2182446271

> <CNNaffinity>
6.1936683655

> <CNN_VS>
1.3517348766

> <CNNaffinity_variance>
1.6798893213

$$$$
[H]OC([H])([H])[C@@]1([H])[C@@]([H])(OP(=O)(O[H])O[H])N([H])C([H])([H])[C@]([H])(O[H])[C@@]([H])(O[H])[C@]1([H])O[H]


 24 24  0  0  0  0  0  0  0  0999 V2000
  -17.5517   17.0066  -23.0009 C   0  0  0  0  0  0  0  0  0  0  0  0
  -18.3895   15.8034  -22.6443 C   0  0  0  0  0  0  0  0  0  0  0  0
  -17.8985   14.7459  -23.4514 O   0  0  0  0  0  0  0  0  0  0  0  0
  -18.1915   15.3403  -21.2327 C   0  0  0  0  0  0  0  0  0  0  0  0
  -18.9536   14.1772  -21.0702 O   0  0  0  0  0  0  0  0  0  0  0  0
  -18.5953   16.3084  -20.1853 C   0  0  0  0  0  0  0  0  0  0  0  0
  -17.8588   16.0104  -19.0222 O   0  0  0  0  0  0  0  0  0  0  0  0
  -18.3068   17.7477  -20.5174 C   0  0  0  0  0  0  0  0  0  0  0  0
  -19.1362   18.1318  -21.6183 N   0  0  0  0  0  0  0  0  0  0  0  0
  -18.2664   18.3024  -22.7727 C   0  0  0  0  0  0  0  0  0  0  0  0
  -16.9796   14.5816  -23.1062 H   0  0  0  0  0  0  0  0  0  0  0  0
  -19.8762   14.4965  -20.8213 H   0  0  0  0  0  0  0  0  0  0  0  0
  -17.7813   16.8378  -18.4896 H   0  0  0  0  0  0  0  0  0  0  0  0
  -19.9509   17.5366  -21.7947 H   0  0  0  0  0  0  0  0  0  0  0  0
  -16.6554   18.1148  -24.9558 O   0  0  0  0  0  0  0  0  0  0  0  0
  -17.1508   16.9248  -24.4583 C   0  0  0  0  0  0  0  0  0  0  0  0
  -15.8089   18.3985  -24.5353 H   0  0  0  0  0  0  0  0  0  0  0  0
  -19.0098   18.7734  -23.8177 O   0  0  0  0  0  0  0  0  0  0  0  0
  -19.6646   20.2729  -23.4564 P   0  0  0  0  0  0  0  0  0  0  0  0
  -18.6489   21.0198  -22.3124 O   0  0  0  0  0  0  0  0  0  0  0  0
  -21.2044   20.1642  -22.7504 O   0  0  0  0  0  0  0  0  0  0  0  0
  -19.7461   21.2035  -24.6285 O   0  0  0  0  0  0  0  0  0  0  0  0
  -17.7977   20.5379  -22.2055 H   0  0  0  0  0  0  0  0  0  0  0  0
  -21.8588   20.7335  -23.2324 H   0  0  0  0  0  0  0  0  0  0  0  0
 15 16  1  0  0  0
 16  1  1  0  0  0
  1  2  1  0  0  0
  2  3  1  0  0  0
  2  4  1  0  0  0
  4  5  1  0  0  0
  4  6  1  0  0  0
  6  7  1  0  0  0
  6  8  1  0  0  0
  8  9  1  0  0  0
  9 10  1  0  0  0
 10 18  1  0  0  0
 18 19  1  0  0  0
 19 20  1  0  0  0
 19 21  1  0  0  0
 19 22  2  0  0  0
 10  1  1  0  0  0
 15 17  1  0  0  0
  3 11  1  0  0  0
  5 12  1  0  0  0
  7 13  1  0  0  0
  9 14  1  0  0  0
 20 23  1  0  0  0
 21 24  1  0  0  0
M  END
> <minimizedAffinity>
-4.95797

> <CNNscore>
0.3613637984

> <CNNaffinity>
3.7573065758

> <CNN_VS>
1.3577545881

> <CNNaffinity_variance>
0.1463021338

$$$$
[H]OC([H])([H])[C@@]1([H])[C@@]([H])(OP(=O)(O[H])O[H])N([H])C([H])([H])[C@]([H])(O[H])[C@@]([H])(O[H])[C@]1([H])O[H]


 24 24  0  0  0  0  0  0  0  0999 V2000
  -17.8026   11.4967  -18.2469 C   0  0  0  0  0  0  0  0  0  0  0  0
  -18.4228   10.1216  -18.2168 C   0  0  0  0  0  0  0  0  0  0  0  0
  -17.3883    9.2298  -18.5979 O   0  0  0  0  0  0  0  0  0  0  0  0
  -18.8277    9.6837  -16.8418 C   0  0  0  0  0  0  0  0  0  0  0  0
  -19.2996    8.3701  -16.9503 O   0  0  0  0  0  0  0  0  0  0  0  0
  -19.8834   10.5034  -16.2005 C   0  0  0  0  0  0  0  0  0  0  0  0
  -19.7474   10.3588  -14.8060 O   0  0  0  0  0  0  0  0  0  0  0  0
  -19.7937   11.9778  -16.4887 C   0  0  0  0  0  0  0  0  0  0  0  0
  -20.0572   12.1824  -17.8801 N   0  0  0  0  0  0  0  0  0  0  0  0
  -18.8028   12.5816  -18.5010 C   0  0  0  0  0  0  0  0  0  0  0  0
  -16.7356    9.2783  -17.8483 H   0  0  0  0  0  0  0  0  0  0  0  0
  -20.2733    8.4567  -17.1942 H   0  0  0  0  0  0  0  0  0  0  0  0
  -20.1167   11.1678  -14.3779 H   0  0  0  0  0  0  0  0  0  0  0  0
  -20.5361   11.4165  -18.3630 H   0  0  0  0  0  0  0  0  0  0  0  0
  -17.1941   11.0767  -20.5505 O   0  0  0  0  0  0  0  0  0  0  0  0
  -16.7472   11.5476  -19.3309 C   0  0  0  0  0  0  0  0  0  0  0  0
  -17.9108   11.6257  -20.9489 H   0  0  0  0  0  0  0  0  0  0  0  0
  -19.0389   12.8896  -19.8109 O   0  0  0  0  0  0  0  0  0  0  0  0
  -19.8742   14.3362  -19.9427 P   0  0  0  0  0  0  0  0  0  0  0  0
  -19.5362   15.2582  -18.5522 O   0  0  0  0  0  0  0  0  0  0  0  0
  -21.5571   14.1207  -19.9931 O   0  0  0  0  0  0  0  0  0  0  0  0
  -19.4688   15.1718  -21.1192 O   0  0  0  0  0  0  0  0  0  0  0  0
  -18.7998   14.8733  -18.0251 H   0  0  0  0  0  0  0  0  0  0  0  0
  -21.9532   14.5866  -20.7745 H   0  0  0  0  0  0  0  0  0  0  0  0
 15 16  1  0  0  0
 16  1  1  0  0  0
  1  2  1  0  0  0
  2  3  1  0  0  0
  2  4  1  0  0  0
  4  5  1  0  0  0
  4  6  1  0  0  0
  6  7  1  0  0  0
  6  8  1  0  0  0
  8  9  1  0  0  0
  9 10  1  0  0  0
 10 18  1  0  0  0
 18 19  1  0  0  0
 19 20  1  0  0  0
 19 21  1  0  0  0
 19 22  2  0  0  0
 10  1  1  0  0  0
 15 17  1  0  0  0
  3 11  1  0  0  0
  5 12  1  0  0  0
  7 13  1  0  0  0
  9 14  1  0  0  0
 20 23  1  0  0  0
 21 24  1  0  0  0
M  END
> <minimizedAffinity>
-4.73834

> <CNNscore>
0.2822596729

> <CNNaffinity>
3.1395385265

> <CNN_VS>
0.8861651421

> <CNNaffinity_variance>
0.0528644733

$$$$
[H]OC([H])([H])[C@@]1([H])[C@@]([H])(OP(=O)(O[H])O[H])N([H])C([H])([H])[C@]([H])(O[H])[C@@]([H])(O[H])[C@]1([H])O[H]


 24 24  0  0  0  0  0  0  0  0999 V2000
  -16.1735   15.3649  -25.0613 C   0  0  0  0  0  0  0  0  0  0  0  0
  -17.1476   14.3267  -25.5614 C   0  0  0  0  0  0  0  0  0  0  0  0
  -16.6808   13.9565  -26.8481 O   0  0  0  0  0  0  0  0  0  0  0  0
  -17.1273   13.0602  -24.7603 C   0  0  0  0  0  0  0  0  0  0  0  0
  -18.0044   12.1645  -25.3838 O   0  0  0  0  0  0  0  0  0  0  0  0
  -17.5386   13.1997  -23.3429 C   0  0  0  0  0  0  0  0  0  0  0  0
  -16.9460   12.1453  -22.6211 O   0  0  0  0  0  0  0  0  0  0  0  0
  -17.0898   14.4756  -22.6829 C   0  0  0  0  0  0  0  0  0  0  0  0
  -17.7726   15.5692  -23.3036 N   0  0  0  0  0  0  0  0  0  0  0  0
  -16.7853   16.3103  -24.0745 C   0  0  0  0  0  0  0  0  0  0  0  0
  -15.8177   13.4938  -26.6710 H   0  0  0  0  0  0  0  0  0  0  0  0
  -18.9134   12.3742  -25.0033 H   0  0  0  0  0  0  0  0  0  0  0  0
  -16.8442   12.4367  -21.6836 H   0  0  0  0  0  0  0  0  0  0  0  0
  -18.6178   15.3291  -23.8300 H   0  0  0  0  0  0  0  0  0  0  0  0
  -14.5174   16.9005  -25.9285 O   0  0  0  0  0  0  0  0  0  0  0  0
  -15.6454   16.1635  -26.2338 C   0  0  0  0  0  0  0  0  0  0  0  0
  -13.7329   16.3477  -25.6987 H   0  0  0  0  0  0  0  0  0  0  0  0
  -17.3803   17.4244  -24.5955 O   0  0  0  0  0  0  0  0  0  0  0  0
  -18.3737   18.1561  -23.4618 P   0  0  0  0  0  0  0  0  0  0  0  0
  -18.5831   19.7801  -23.9276 O   0  0  0  0  0  0  0  0  0  0  0  0
  -17.6935   18.1741  -21.9067 O   0  0  0  0  0  0  0  0  0  0  0  0
  -19.7445   17.5566  -23.3716 O   0  0  0  0  0  0  0  0  0  0  0  0
  -18.2474   19.9486  -24.8371 H   0  0  0  0  0  0  0  0  0  0  0  0
  -18.3224   17.7979  -21.2378 H   0  0  0  0  0  0  0  0  0  0  0  0
 15 16  1  0  0  0
 16  1  1  0  0  0
  1  2  1  0  0  0
  2  3  1  0  0  0
  2  4  1  0  0  0
  4  5  1  0  0  0
  4  6  1  0  0  0
  6  7  1  0  0  0
  6  8  1  0  0  0
  8  9  1  0  0  0
  9 10  1  0  0  0
 10 18  1  0  0  0
 18 19  1  0  0  0
 19 20  1  0  0  0
 19 21  1  0  0  0
 19 22  2  0  0  0
 10  1  1  0  0  0
 15 17  1  0  0  0
  3 11  1  0  0  0
  5 12  1  0  0  0
  7 13  1  0  0  0
  9 14  1  0  0  0
 20 23  1  0  0  0
 21 24  1  0  0  0
M  END
> <minimizedAffinity>
-5.49216

> <CNNscore>
0.2739965618

> <CNNaffinity>
3.8612167835

> <CNN_VS>
1.0579601526

> <CNNaffinity_variance>
0.0244507566

$$$$
[H]OC([H])([H])[C@@]1([H])[C@@]([H])(OP(=O)(O[H])O[H])N([H])C([H])([H])[C@]([H])(O[H])[C@@]([H])(O[H])[C@]1([H])O[H]


 24 24  0  0  0  0  0  0  0  0999 V2000
  -17.1179   14.7691  -21.6293 C   0  0  0  0  0  0  0  0  0  0  0  0
  -17.5564   13.3682  -21.9785 C   0  0  0  0  0  0  0  0  0  0  0  0
  -16.6844   12.9440  -23.0131 O   0  0  0  0  0  0  0  0  0  0  0  0
  -17.3469   12.3867  -20.8654 C   0  0  0  0  0  0  0  0  0  0  0  0
  -17.7096   11.1260  -21.3545 O   0  0  0  0  0  0  0  0  0  0  0  0
  -18.1294   12.6481  -19.6338 C   0  0  0  0  0  0  0  0  0  0  0  0
  -17.4424   12.0532  -18.5577 O   0  0  0  0  0  0  0  0  0  0  0  0
  -18.2867   14.1044  -19.2885 C   0  0  0  0  0  0  0  0  0  0  0  0
  -19.0943   14.7222  -20.2952 N   0  0  0  0  0  0  0  0  0  0  0  0
  -18.2257   15.6022  -21.0630 C   0  0  0  0  0  0  0  0  0  0  0  0
  -15.7956   12.8759  -22.5707 H   0  0  0  0  0  0  0  0  0  0  0  0
  -18.7041   11.0597  -21.2071 H   0  0  0  0  0  0  0  0  0  0  0  0
  -17.6802   12.5440  -17.7350 H   0  0  0  0  0  0  0  0  0  0  0  0
  -19.6577   14.0882  -20.8693 H   0  0  0  0  0  0  0  0  0  0  0  0
  -17.4343   15.3540  -23.9555 O   0  0  0  0  0  0  0  0  0  0  0  0
  -16.5845   15.4520  -22.8705 C   0  0  0  0  0  0  0  0  0  0  0  0
  -18.2942   15.8213  -23.8290 H   0  0  0  0  0  0  0  0  0  0  0  0
  -18.9849   16.2909  -21.9662 O   0  0  0  0  0  0  0  0  0  0  0  0
  -19.9962   17.3783  -21.1899 P   0  0  0  0  0  0  0  0  0  0  0  0
  -21.4704   16.5850  -20.8809 O   0  0  0  0  0  0  0  0  0  0  0  0
  -20.3579   18.7349  -22.1439 O   0  0  0  0  0  0  0  0  0  0  0  0
  -19.4809   17.8550  -19.8656 O   0  0  0  0  0  0  0  0  0  0  0  0
  -21.4082   15.6163  -21.0421 H   0  0  0  0  0  0  0  0  0  0  0  0
  -20.1714   19.5765  -21.6526 H   0  0  0  0  0  0  0  0  0  0  0  0
 15 16  1  0  0  0
 16  1  1  0  0  0
  1  2  1  0  0  0
  2  3  1  0  0  0
  2  4  1  0  0  0
  4  5  1  0  0  0
  4  6  1  0  0  0
  6  7  1  0  0  0
  6  8  1  0  0  0
  8  9  1  0  0  0
  9 10  1  0  0  0
 10 18  1  0  0  0
 18 19  1  0  0  0
 19 20  1  0  0  0
 19 21  1  0  0  0
 19 22  2  0  0  0
 10  1  1  0  0  0
 15 17  1  0  0  0
  3 11  1  0  0  0
  5 12  1  0  0  0
  7 13  1  0  0  0
  9 14  1  0  0  0
 20 23  1  0  0  0
 21 24  1  0  0  0
M  END
> <minimizedAffinity>
-4.44356

> <CNNscore>
0.2616965771

> <CNNaffinity>
3.5358099937

> <CNN_VS>
0.9253093600

> <CNNaffinity_variance>
0.3731217384

$$$$
[H]OC([H])([H])[C@@]1([H])[C@@]([H])(OP(=O)(O[H])O[H])N([H])C([H])([H])[C@]([H])(O[H])[C@@]([H])(O[H])[C@]1([H])O[H]


 24 24  0  0  0  0  0  0  0  0999 V2000
  -20.5674   16.2301  -20.3006 C   0  0  0  0  0  0  0  0  0  0  0  0
  -20.3962   14.8499  -19.7153 C   0  0  0  0  0  0  0  0  0  0  0  0
  -21.5725   14.1399  -20.0661 O   0  0  0  0  0  0  0  0  0  0  0  0
  -19.2739   14.0766  -20.3387 C   0  0  0  0  0  0  0  0  0  0  0  0
  -19.2882   12.7981  -19.7683 O   0  0  0  0  0  0  0  0  0  0  0  0
  -17.9223   14.6542  -20.1462 C   0  0  0  0  0  0  0  0  0  0  0  0
  -17.1082   14.1950  -21.2000 O   0  0  0  0  0  0  0  0  0  0  0  0
  -17.8712   16.1577  -20.1899 C   0  0  0  0  0  0  0  0  0  0  0  0
  -18.5803   16.6664  -19.0560 N   0  0  0  0  0  0  0  0  0  0  0  0
  -19.8035   17.2787  -19.5533 C   0  0  0  0  0  0  0  0  0  0  0  0
  -21.5187   14.0521  -21.0559 H   0  0  0  0  0  0  0  0  0  0  0  0
  -18.7453   12.8778  -18.9233 H   0  0  0  0  0  0  0  0  0  0  0  0
  -16.3884   14.8558  -21.3398 H   0  0  0  0  0  0  0  0  0  0  0  0
  -18.7275   16.0066  -18.2865 H   0  0  0  0  0  0  0  0  0  0  0  0
  -22.2777   17.8816  -20.7486 O   0  0  0  0  0  0  0  0  0  0  0  0
  -22.0351   16.6008  -20.2907 C   0  0  0  0  0  0  0  0  0  0  0  0
  -22.0489   18.0126  -21.6995 H   0  0  0  0  0  0  0  0  0  0  0  0
  -20.4553   17.8703  -18.5085 O   0  0  0  0  0  0  0  0  0  0  0  0
  -19.4348   18.9087  -17.6791 P   0  0  0  0  0  0  0  0  0  0  0  0
  -18.2775   19.4900  -18.7841 O   0  0  0  0  0  0  0  0  0  0  0  0
  -18.5803   18.1340  -16.4337 O   0  0  0  0  0  0  0  0  0  0  0  0
  -20.1205   20.1117  -17.1052 O   0  0  0  0  0  0  0  0  0  0  0  0
  -18.5105   19.2658  -19.7135 H   0  0  0  0  0  0  0  0  0  0  0  0
  -18.6859   18.6180  -15.5740 H   0  0  0  0  0  0  0  0  0  0  0  0
 15 16  1  0  0  0
 16  1  1  0  0  0
  1  2  1  0  0  0
  2  3  1  0  0  0
  2  4  1  0  0  0
  4  5  1  0  0  0
  4  6  1  0  0  0
  6  7  1  0  0  0
  6  8  1  0  0  0
  8  9  1  0  0  0
  9 10  1  0  0  0
 10 18  1  0  0  0
 18 19  1  0  0  0
 19 20  1  0  0  0
 19 21  1  0  0  0
 19 22  2  0  0  0
 10  1  1  0  0  0
 15 17  1  0  0  0
  3 11  1  0  0  0
  5 12  1  0  0  0
  7 13  1  0  0  0
  9 14  1  0  0  0
 20 23  1  0  0  0
 21 24  1  0  0  0
M  END
> <minimizedAffinity>
-4.55189

> <CNNscore>
0.2575684786

> <CNNaffinity>
3.3895142078

> <CNN_VS>
0.8730320334

> <CNNaffinity_variance>
0.2794094086

$$$$
[H]OC([H])([H])[C@@]1([H])[C@@]([H])(OP(=O)(O[H])O[H])N([H])C([H])([H])[C@]([H])(O[H])[C@@]([H])(O[H])[C@]1([H])O[H]


 24 24  0  0  0  0  0  0  0  0999 V2000
  -17.4506   14.2656  -24.7526 C   0  0  0  0  0  0  0  0  0  0  0  0
  -16.4713   15.3900  -24.9837 C   0  0  0  0  0  0  0  0  0  0  0  0
  -16.0803   15.2800  -26.3423 O   0  0  0  0  0  0  0  0  0  0  0  0
  -17.0908   16.7495  -24.8654 C   0  0  0  0  0  0  0  0  0  0  0  0
  -16.0992   17.6835  -25.1890 O   0  0  0  0  0  0  0  0  0  0  0  0
  -17.6258   17.0881  -23.5250 C   0  0  0  0  0  0  0  0  0  0  0  0
  -18.6270   18.0634  -23.6993 O   0  0  0  0  0  0  0  0  0  0  0  0
  -18.2703   15.9382  -22.7987 C   0  0  0  0  0  0  0  0  0  0  0  0
  -17.2570   14.9780  -22.4848 N   0  0  0  0  0  0  0  0  0  0  0  0
  -17.4927   13.8137  -23.3258 C   0  0  0  0  0  0  0  0  0  0  0  0
  -16.9070   15.4959  -26.8526 H   0  0  0  0  0  0  0  0  0  0  0  0
  -15.6011   17.8510  -24.3293 H   0  0  0  0  0  0  0  0  0  0  0  0
  -19.2566   17.9931  -22.9424 H   0  0  0  0  0  0  0  0  0  0  0  0
  -16.2920   15.3207  -22.5084 H   0  0  0  0  0  0  0  0  0  0  0  0
  -18.1214   12.2098  -25.8375 O   0  0  0  0  0  0  0  0  0  0  0  0
  -17.0746   13.0857  -25.6233 C   0  0  0  0  0  0  0  0  0  0  0  0
  -18.8677   12.6019  -26.3505 H   0  0  0  0  0  0  0  0  0  0  0  0
  -16.6077   12.8330  -22.9772 O   0  0  0  0  0  0  0  0  0  0  0  0
  -17.1242   12.0235  -21.6040 P   0  0  0  0  0  0  0  0  0  0  0  0
  -17.2561   13.1652  -20.3482 O   0  0  0  0  0  0  0  0  0  0  0  0
  -16.0202   10.8441  -21.0828 O   0  0  0  0  0  0  0  0  0  0  0  0
  -18.4717   11.3819  -21.7424 O   0  0  0  0  0  0  0  0  0  0  0  0
  -17.1842   14.0885  -20.6809 H   0  0  0  0  0  0  0  0  0  0  0  0
  -16.4667    9.9664  -20.9614 H   0  0  0  0  0  0  0  0  0  0  0  0
 15 16  1  0  0  0
 16  1  1  0  0  0
  1  2  1  0  0  0
  2  3  1  0  0  0
  2  4  1  0  0  0
  4  5  1  0  0  0
  4  6  1  0  0  0
  6  7  1  0  0  0
  6  8  1  0  0  0
  8  9  1  0  0  0
  9 10  1  0  0  0
 10 18  1  0  0  0
 18 19  1  0  0  0
 19 20  1  0  0  0
 19 21  1  0  0  0
 19 22  2  0  0  0
 10  1  1  0  0  0
 15 17  1  0  0  0
  3 11  1  0  0  0
  5 12  1  0  0  0
  7 13  1  0  0  0
  9 14  1  0  0  0
 20 23  1  0  0  0
 21 24  1  0  0  0
M  END
> <minimizedAffinity>
-5.45758

> <CNNscore>
0.2306594253

> <CNNaffinity>
3.4483630657

> <CNN_VS>
0.7953974605

> <CNNaffinity_variance>
0.2688767314

$$$$
[H]OC([H])([H])[C@@]1([H])[C@@]([H])(OP(=O)(O[H])O[H])N([H])C([H])([H])[C@]([H])(O[H])[C@@]([H])(O[H])[C@]1([H])O[H]


 24 24  0  0  0  0  0  0  0  0999 V2000
  -17.6015   16.5169  -20.7432 C   0  0  0  0  0  0  0  0  0  0  0  0
  -17.9219   16.6112  -22.2146 C   0  0  0  0  0  0  0  0  0  0  0  0
  -17.5434   17.9215  -22.6027 O   0  0  0  0  0  0  0  0  0  0  0  0
  -17.0892   15.6979  -23.0624 C   0  0  0  0  0  0  0  0  0  0  0  0
  -17.4269   15.9532  -24.3970 O   0  0  0  0  0  0  0  0  0  0  0  0
  -17.2758   14.2497  -22.8067 C   0  0  0  0  0  0  0  0  0  0  0  0
  -16.0990   13.5900  -23.2115 O   0  0  0  0  0  0  0  0  0  0  0  0
  -17.4916   13.8914  -21.3610 C   0  0  0  0  0  0  0  0  0  0  0  0
  -18.7477   14.4351  -20.9439 N   0  0  0  0  0  0  0  0  0  0  0  0
  -18.4599   15.5242  -20.0224 C   0  0  0  0  0  0  0  0  0  0  0  0
  -16.5523   17.9259  -22.5131 H   0  0  0  0  0  0  0  0  0  0  0  0
  -18.2289   15.3728  -24.5840 H   0  0  0  0  0  0  0  0  0  0  0  0
  -16.0222   12.7555  -22.6901 H   0  0  0  0  0  0  0  0  0  0  0  0
  -19.3991   14.6849  -21.6939 H   0  0  0  0  0  0  0  0  0  0  0  0
  -16.6062   18.5745  -19.9503 O   0  0  0  0  0  0  0  0  0  0  0  0
  -17.7880   17.8749  -20.1009 C   0  0  0  0  0  0  0  0  0  0  0  0
  -16.1786   18.8192  -20.8053 H   0  0  0  0  0  0  0  0  0  0  0  0
  -19.6387   15.9984  -19.5201 O   0  0  0  0  0  0  0  0  0  0  0  0
  -20.5239   14.7656  -18.8101 P   0  0  0  0  0  0  0  0  0  0  0  0
  -21.4719   14.0423  -20.0251 O   0  0  0  0  0  0  0  0  0  0  0  0
  -21.5952   15.3280  -17.6196 O   0  0  0  0  0  0  0  0  0  0  0  0
  -19.6857   13.6747  -18.2151 O   0  0  0  0  0  0  0  0  0  0  0  0
  -21.2097   14.3428  -20.9246 H   0  0  0  0  0  0  0  0  0  0  0  0
  -21.4743   14.8328  -16.7682 H   0  0  0  0  0  0  0  0  0  0  0  0
 15 16  1  0  0  0
 16  1  1  0  0  0
  1  2  1  0  0  0
  2  3  1  0  0  0
  2  4  1  0  0  0
  4  5  1  0  0  0
  4  6  1  0  0  0
  6  7  1  0  0  0
  6  8  1  0  0  0
  8  9  1  0  0  0
  9 10  1  0  0  0
 10 18  1  0  0  0
 18 19  1  0  0  0
 19 20  1  0  0  0
 19 21  1  0  0  0
 19 22  2  0  0  0
 10  1  1  0  0  0
 15 17  1  0  0  0
  3 11  1  0  0  0
  5 12  1  0  0  0
  7 13  1  0  0  0
  9 14  1  0  0  0
 20 23  1  0  0  0
 21 24  1  0  0  0
M  END
> <minimizedAffinity>
-4.63289

> <CNNscore>
0.2139310539

> <CNNaffinity>
3.4687411785

> <CNN_VS>
0.7420714498

> <CNNaffinity_variance>
0.2632122338

$$$$
[H]OC([H])([H])[C@@]1([H])[C@@]([H])(OP(=O)(O[H])O[H])N([H])C([H])([H])[C@]([H])(O[H])[C@@]([H])(O[H])[C@]1([H])O[H]


 24 24  0  0  0  0  0  0  0  0999 V2000
  -17.1114   11.5712  -18.7343 C   0  0  0  0  0  0  0  0  0  0  0  0
  -18.3749   10.8170  -18.4001 C   0  0  0  0  0  0  0  0  0  0  0  0
  -17.9684    9.4784  -18.1688 O   0  0  0  0  0  0  0  0  0  0  0  0
  -19.0073   11.2596  -17.1155 C   0  0  0  0  0  0  0  0  0  0  0  0
  -20.1072   10.4235  -16.8885 O   0  0  0  0  0  0  0  0  0  0  0  0
  -19.4811   12.6641  -17.0928 C   0  0  0  0  0  0  0  0  0  0  0  0
  -19.5012   13.0858  -15.7490 O   0  0  0  0  0  0  0  0  0  0  0  0
  -18.6004   13.6345  -17.8328 C   0  0  0  0  0  0  0  0  0  0  0  0
  -18.6554   13.3207  -19.2277 N   0  0  0  0  0  0  0  0  0  0  0  0
  -17.3593   12.7703  -19.5959 C   0  0  0  0  0  0  0  0  0  0  0  0
  -17.4234    9.5288  -17.3377 H   0  0  0  0  0  0  0  0  0  0  0  0
  -20.8704   10.8453  -17.3933 H   0  0  0  0  0  0  0  0  0  0  0  0
  -19.3942   14.0669  -15.7354 H   0  0  0  0  0  0  0  0  0  0  0  0
  -19.4511   12.7496  -19.5275 H   0  0  0  0  0  0  0  0  0  0  0  0
  -16.7343    9.9652  -20.5039 O   0  0  0  0  0  0  0  0  0  0  0  0
  -16.1514   10.6480  -19.4538 C   0  0  0  0  0  0  0  0  0  0  0  0
  -17.0325   10.5504  -21.2404 H   0  0  0  0  0  0  0  0  0  0  0  0
  -17.3390   12.5581  -20.9453 O   0  0  0  0  0  0  0  0  0  0  0  0
  -17.5240   13.9997  -21.7792 P   0  0  0  0  0  0  0  0  0  0  0  0
  -16.9887   13.7474  -23.3754 O   0  0  0  0  0  0  0  0  0  0  0  0
  -16.5804   15.2558  -21.1366 O   0  0  0  0  0  0  0  0  0  0  0  0
  -18.9426   14.4743  -21.8735 O   0  0  0  0  0  0  0  0  0  0  0  0
  -16.8415   12.7937  -23.5681 H   0  0  0  0  0  0  0  0  0  0  0  0
  -17.1330   16.0593  -20.9535 H   0  0  0  0  0  0  0  0  0  0  0  0
 15 16  1  0  0  0
 16  1  1  0  0  0
  1  2  1  0  0  0
  2  3  1  0  0  0
  2  4  1  0  0  0
  4  5  1  0  0  0
  4  6  1  0  0  0
  6  7  1  0  0  0
  6  8  1  0  0  0
  8  9  1  0  0  0
  9 10  1  0  0  0
 10 18  1  0  0  0
 18 19  1  0  0  0
 19 20  1  0  0  0
 19 21  1  0  0  0
 19 22  2  0  0  0
 10  1  1  0  0  0
 15 17  1  0  0  0
  3 11  1  0  0  0
  5 12  1  0  0  0
  7 13  1  0  0  0
  9 14  1  0  0  0
 20 23  1  0  0  0
 21 24  1  0  0  0
M  END
> <minimizedAffinity>
-5.26482

> <CNNscore>
0.2004408240

> <CNNaffinity>
3.1745402813

> <CNN_VS>
0.6363074780

> <CNNaffinity_variance>
0.1108830199

$$$$
[H]OC([H])([H])[C@@]1([H])[C@@]([H])(OP(=O)(O[H])O[H])N([H])C([H])([H])[C@]([H])(O[H])[C@@]([H])(O[H])[C@]1([H])O[H]


 24 24  0  0  0  0  0  0  0  0999 V2000
  -16.8169   13.9692  -24.1741 C   0  0  0  0  0  0  0  0  0  0  0  0
  -15.3604   14.2674  -23.9163 C   0  0  0  0  0  0  0  0  0  0  0  0
  -14.7519   13.0093  -23.6759 O   0  0  0  0  0  0  0  0  0  0  0  0
  -14.6482   14.8223  -25.1126 C   0  0  0  0  0  0  0  0  0  0  0  0
  -13.3009   14.9655  -24.7598 O   0  0  0  0  0  0  0  0  0  0  0  0
  -15.1429   16.1347  -25.5927 C   0  0  0  0  0  0  0  0  0  0  0  0
  -14.8155   16.2401  -26.9586 O   0  0  0  0  0  0  0  0  0  0  0  0
  -16.6337   16.3164  -25.4948 C   0  0  0  0  0  0  0  0  0  0  0  0
  -16.9946   16.3467  -24.1105 N   0  0  0  0  0  0  0  0  0  0  0  0
  -17.7163   15.1149  -23.8274 C   0  0  0  0  0  0  0  0  0  0  0  0
  -14.8090   12.5391  -24.5511 H   0  0  0  0  0  0  0  0  0  0  0  0
  -13.2360   15.8693  -24.3193 H   0  0  0  0  0  0  0  0  0  0  0  0
  -15.4637   16.8526  -27.3815 H   0  0  0  0  0  0  0  0  0  0  0  0
  -16.2342   16.5446  -23.4533 H   0  0  0  0  0  0  0  0  0  0  0  0
  -16.8795   12.8542  -22.0279 O   0  0  0  0  0  0  0  0  0  0  0  0
  -17.2338   12.7628  -23.3602 C   0  0  0  0  0  0  0  0  0  0  0  0
  -17.3365   13.5836  -21.5453 H   0  0  0  0  0  0  0  0  0  0  0  0
  -18.1702   15.1572  -22.5395 O   0  0  0  0  0  0  0  0  0  0  0  0
  -18.9029   16.6284  -22.2128 P   0  0  0  0  0  0  0  0  0  0  0  0
  -20.1063   16.3586  -21.0394 O   0  0  0  0  0  0  0  0  0  0  0  0
  -19.6783   17.2915  -23.5694 O   0  0  0  0  0  0  0  0  0  0  0  0
  -17.9761   17.6610  -21.6459 O   0  0  0  0  0  0  0  0  0  0  0  0
  -20.0406   15.4598  -20.6443 H   0  0  0  0  0  0  0  0  0  0  0  0
  -19.3843   18.2259  -23.7271 H   0  0  0  0  0  0  0  0  0  0  0  0
 15 16  1  0  0  0
 16  1  1  0  0  0
  1  2  1  0  0  0
  2  3  1  0  0  0
  2  4  1  0  0  0
  4  5  1  0  0  0
  4  6  1  0  0  0
  6  7  1  0  0  0
  6  8  1  0  0  0
  8  9  1  0  0  0
  9 10  1  0  0  0
 10 18  1  0  0  0
 18 19  1  0  0  0
 19 20  1  0  0  0
 19 21  1  0  0  0
 19 22  2  0  0  0
 10  1  1  0  0  0
 15 17  1  0  0  0
  3 11  1  0  0  0
  5 12  1  0  0  0
  7 13  1  0  0  0
  9 14  1  0  0  0
 20 23  1  0  0  0
 21 24  1  0  0  0
M  END
> <minimizedAffinity>
-5.60454

> <CNNscore>
0.1989586800

> <CNNaffinity>
3.5916829109

> <CNN_VS>
0.7145965099

> <CNNaffinity_variance>
0.1625525653

$$$$
[H]c1nc([H])c(-c2c([H])c3nc(N([H])C(=O)N([H])C([H])([H])C([H])([H])[H])sc3n(C([H])(C([H])([H])[H])C([H])([H])[H])c2=O)c([H])c1[H]


 27 29  0  0  0  0  0  0  0  0999 V2000
  -17.6301   10.9876  -19.0787 C   0  0  0  0  0  0  0  0  0  0  0  0
  -17.1209   11.2063  -20.2676 N   0  0  0  0  0  0  0  0  0  0  0  0
  -17.4450   12.2694  -20.9348 C   0  0  0  0  0  0  0  0  0  0  0  0
  -16.9878   12.6453  -22.2152 C   0  0  0  0  0  0  0  0  0  0  0  0
  -17.4273   13.7989  -22.7787 C   0  0  0  0  0  0  0  0  0  0  0  0
  -18.3172   14.6629  -22.1761 C   0  0  0  0  0  0  0  0  0  0  0  0
  -18.7064   15.7206  -22.7167 O   0  0  0  0  0  0  0  0  0  0  0  0
  -18.7483   14.2983  -20.9570 N   0  0  0  0  0  0  0  0  0  0  0  0
  -18.3280   13.1424  -20.3557 C   0  0  0  0  0  0  0  0  0  0  0  0
  -18.6338   12.3568  -18.8668 S   0  0  0  0  0  0  0  0  0  0  0  0
  -18.2234    8.3907  -16.4272 N   0  0  0  0  0  0  0  0  0  0  0  0
  -18.4328    9.4698  -17.3075 C   0  0  0  0  0  0  0  0  0  0  0  0
  -19.5277   10.0700  -17.3218 O   0  0  0  0  0  0  0  0  0  0  0  0
  -17.4024    9.8753  -18.1770 N   0  0  0  0  0  0  0  0  0  0  0  0
  -17.2915    7.9115  -16.4439 H   0  0  0  0  0  0  0  0  0  0  0  0
  -16.4823    9.3862  -18.1789 H   0  0  0  0  0  0  0  0  0  0  0  0
  -19.0973    8.6336  -14.1985 C   0  0  0  0  0  0  0  0  0  0  0  0
  -19.2519    7.9280  -15.5066 C   0  0  0  0  0  0  0  0  0  0  0  0
  -16.9295   14.1420  -24.1031 C   0  0  0  0  0  0  0  0  0  0  0  0
  -17.4864   13.6533  -25.2639 C   0  0  0  0  0  0  0  0  0  0  0  0
  -16.9840   14.0084  -26.5142 C   0  0  0  0  0  0  0  0  0  0  0  0
  -15.9184   14.8580  -26.5825 C   0  0  0  0  0  0  0  0  0  0  0  0
  -15.3740   15.3358  -25.4465 N   0  0  0  0  0  0  0  0  0  0  0  0
  -15.8597   14.9934  -24.2151 C   0  0  0  0  0  0  0  0  0  0  0  0
  -19.6815   15.1025  -20.2049 C   0  0  0  0  0  0  0  0  0  0  0  0
  -20.9611   14.3610  -19.9121 C   0  0  0  0  0  0  0  0  0  0  0  0
  -19.0755   15.6379  -18.9274 C   0  0  0  0  0  0  0  0  0  0  0  0
 17 18  1  0  0  0
 18 11  1  0  0  0
 11 12  1  0  0  0
 12 13  2  0  0  0
 12 14  1  0  0  0
 14  1  1  0  0  0
  1  2  2  0  0  0
  2  3  1  0  0  0
  3  4  1  0  0  0
  4  5  2  0  0  0
  5 19  1  0  0  0
 19 20  2  0  0  0
 20 21  1  0  0  0
 21 22  2  0  0  0
 22 23  1  0  0  0
 23 24  2  0  0  0
  5  6  1  0  0  0
  6  7  2  0  0  0
  6  8  1  0  0  0
  8 25  1  0  0  0
 25 26  1  0  0  0
 25 27  1  0  0  0
  8  9  1  0  0  0
  9 10  1  0  0  0
 10  1  1  0  0  0
  9  3  2  0  0  0
 24 19  1  0  0  0
 11 15  1  0  0  0
 14 16  1  0  0  0
M  END
> <minimizedAffinity>
-8.61338

> <CNNscore>
0.8533291221

> <CNNaffinity>
6.8887686729

> <CNN_VS>
5.8783869743

> <CNNaffinity_variance>
0.2024259269

$$$$
[H]c1nc([H])c(-c2c([H])c3nc(N([H])C(=O)N([H])C([H])([H])C([H])([H])[H])sc3n(C([H])(C([H])([H])[H])C([H])([H])[H])c2=O)c([H])c1[H]


 27 29  0  0  0  0  0  0  0  0999 V2000
  -17.3478   10.8695  -19.2465 C   0  0  0  0  0  0  0  0  0  0  0  0
  -17.8467   12.0684  -19.0602 N   0  0  0  0  0  0  0  0  0  0  0  0
  -17.8156   12.9472  -20.0125 C   0  0  0  0  0  0  0  0  0  0  0  0
  -18.3063   14.2691  -19.9697 C   0  0  0  0  0  0  0  0  0  0  0  0
  -18.1954   15.0674  -21.0613 C   0  0  0  0  0  0  0  0  0  0  0  0
  -17.6204   14.6736  -22.2512 C   0  0  0  0  0  0  0  0  0  0  0  0
  -17.5309   15.4288  -23.2433 O   0  0  0  0  0  0  0  0  0  0  0  0
  -17.1553   13.4136  -22.2845 N   0  0  0  0  0  0  0  0  0  0  0  0
  -17.2487   12.5781  -21.2040 C   0  0  0  0  0  0  0  0  0  0  0  0
  -16.7933   10.9647  -20.8621 S   0  0  0  0  0  0  0  0  0  0  0  0
  -18.3120    8.4299  -16.5549 N   0  0  0  0  0  0  0  0  0  0  0  0
  -18.3639    9.5115  -17.4552 C   0  0  0  0  0  0  0  0  0  0  0  0
  -19.3637   10.2588  -17.4878 O   0  0  0  0  0  0  0  0  0  0  0  0
  -17.2826    9.7529  -18.3240 N   0  0  0  0  0  0  0  0  0  0  0  0
  -17.4564    7.8247  -16.5565 H   0  0  0  0  0  0  0  0  0  0  0  0
  -16.4402    9.1398  -18.3108 H   0  0  0  0  0  0  0  0  0  0  0  0
  -19.1193    8.7761  -14.3147 C   0  0  0  0  0  0  0  0  0  0  0  0
  -19.3995    8.1326  -15.6339 C   0  0  0  0  0  0  0  0  0  0  0  0
  -18.7135   16.4247  -20.9671 C   0  0  0  0  0  0  0  0  0  0  0  0
  -19.9941   16.7667  -21.3410 C   0  0  0  0  0  0  0  0  0  0  0  0
  -20.4553   18.0771  -21.2319 C   0  0  0  0  0  0  0  0  0  0  0  0
  -19.6158   19.0359  -20.7441 C   0  0  0  0  0  0  0  0  0  0  0  0
  -18.3632   18.7007  -20.3785 N   0  0  0  0  0  0  0  0  0  0  0  0
  -17.9013   17.4180  -20.4816 C   0  0  0  0  0  0  0  0  0  0  0  0
  -16.5280   12.8619  -23.4616 C   0  0  0  0  0  0  0  0  0  0  0  0
  -17.4194   12.9530  -24.6741 C   0  0  0  0  0  0  0  0  0  0  0  0
  -15.1841   13.4946  -23.7435 C   0  0  0  0  0  0  0  0  0  0  0  0
 17 18  1  0  0  0
 18 11  1  0  0  0
 11 12  1  0  0  0
 12 13  2  0  0  0
 12 14  1  0  0  0
 14  1  1  0  0  0
  1  2  2  0  0  0
  2  3  1  0  0  0
  3  4  1  0  0  0
  4  5  2  0  0  0
  5 19  1  0  0  0
 19 20  2  0  0  0
 20 21  1  0  0  0
 21 22  2  0  0  0
 22 23  1  0  0  0
 23 24  2  0  0  0
  5  6  1  0  0  0
  6  7  2  0  0  0
  6  8  1  0  0  0
  8 25  1  0  0  0
 25 26  1  0  0  0
 25 27  1  0  0  0
  8  9  1  0  0  0
  9 10  1  0  0  0
 10  1  1  0  0  0
  9  3  2  0  0  0
 24 19  1  0  0  0
 11 15  1  0  0  0
 14 16  1  0  0  0
M  END
> <minimizedAffinity>
-8.02840

> <CNNscore>
0.7893521786

> <CNNaffinity>
6.8789110184

> <CNN_VS>
5.4298834801

> <CNNaffinity_variance>
0.1647581160

$$$$
[H]c1nc([H])c(-c2c([H])c3nc(N([H])C(=O)N([H])C([H])([H])C([H])([H])[H])sc3n(C([H])(C([H])([H])[H])C([H])([H])[H])c2=O)c([H])c1[H]


 27 29  0  0  0  0  0  0  0  0999 V2000
  -17.3603   11.6868  -20.2641 C   0  0  0  0  0  0  0  0  0  0  0  0
  -17.6610   10.6856  -19.4717 N   0  0  0  0  0  0  0  0  0  0  0  0
  -18.3832   10.8805  -18.4131 C   0  0  0  0  0  0  0  0  0  0  0  0
  -18.7895    9.9152  -17.4681 C   0  0  0  0  0  0  0  0  0  0  0  0
  -19.5499   10.2856  -16.4070 C   0  0  0  0  0  0  0  0  0  0  0  0
  -19.9714   11.5775  -16.1722 C   0  0  0  0  0  0  0  0  0  0  0  0
  -20.6725   11.8929  -15.1865 O   0  0  0  0  0  0  0  0  0  0  0  0
  -19.5806   12.4912  -17.0762 N   0  0  0  0  0  0  0  0  0  0  0  0
  -18.8133   12.1564  -18.1595 C   0  0  0  0  0  0  0  0  0  0  0  0
  -18.1356   12.9984  -19.4858 S   0  0  0  0  0  0  0  0  0  0  0  0
  -16.1483   12.5888  -23.7056 N   0  0  0  0  0  0  0  0  0  0  0  0
  -16.9036   12.5818  -22.5170 C   0  0  0  0  0  0  0  0  0  0  0  0
  -17.8638   13.3673  -22.3741 O   0  0  0  0  0  0  0  0  0  0  0  0
  -16.5753   11.6844  -21.4830 N   0  0  0  0  0  0  0  0  0  0  0  0
  -15.3499   11.9151  -23.7890 H   0  0  0  0  0  0  0  0  0  0  0  0
  -15.7775   11.0219  -21.5847 H   0  0  0  0  0  0  0  0  0  0  0  0
  -17.3709   12.8212  -25.7650 C   0  0  0  0  0  0  0  0  0  0  0  0
  -16.4417   13.4939  -24.8074 C   0  0  0  0  0  0  0  0  0  0  0  0
  -19.9412    9.2541  -15.4572 C   0  0  0  0  0  0  0  0  0  0  0  0
  -21.1166    8.5442  -15.5621 C   0  0  0  0  0  0  0  0  0  0  0  0
  -21.4545    7.5606  -14.6347 C   0  0  0  0  0  0  0  0  0  0  0  0
  -20.5988    7.3007  -13.6040 C   0  0  0  0  0  0  0  0  0  0  0  0
  -19.4490    7.9954  -13.5019 N   0  0  0  0  0  0  0  0  0  0  0  0
  -19.1085    8.9622  -14.4067 C   0  0  0  0  0  0  0  0  0  0  0  0
  -19.9452   13.8831  -16.9619 C   0  0  0  0  0  0  0  0  0  0  0  0
  -18.7384   14.7866  -16.9595 C   0  0  0  0  0  0  0  0  0  0  0  0
  -20.9230   14.3082  -18.0338 C   0  0  0  0  0  0  0  0  0  0  0  0
 17 18  1  0  0  0
 18 11  1  0  0  0
 11 12  1  0  0  0
 12 13  2  0  0  0
 12 14  1  0  0  0
 14  1  1  0  0  0
  1  2  2  0  0  0
  2  3  1  0  0  0
  3  4  1  0  0  0
  4  5  2  0  0  0
  5 19  1  0  0  0
 19 20  2  0  0  0
 20 21  1  0  0  0
 21 22  2  0  0  0
 22 23  1  0  0  0
 23 24  2  0  0  0
  5  6  1  0  0  0
  6  7  2  0  0  0
  6  8  1  0  0  0
  8 25  1  0  0  0
 25 26  1  0  0  0
 25 27  1  0  0  0
  8  9  1  0  0  0
  9 10  1  0  0  0
 10  1  1  0  0  0
  9  3  2  0  0  0
 24 19  1  0  0  0
 11 15  1  0  0  0
 14 16  1  0  0  0
M  END
> <minimizedAffinity>
-7.14958

> <CNNscore>
0.5572478175

> <CNNaffinity>
6.3575620651

> <CNN_VS>
3.5427374840

> <CNNaffinity_variance>
0.1495916396

$$$$
[H]c1nc([H])c(-c2c([H])c3nc(N([H])C(=O)N([H])C([H])([H])C([H])([H])[H])sc3n(C([H])(C([H])([H])[H])C([H])([H])[H])c2=O)c([H])c1[H]


 27 29  0  0  0  0  0  0  0  0999 V2000
  -16.6369   13.4861  -22.5573 C   0  0  0  0  0  0  0  0  0  0  0  0
  -16.9371   12.4429  -21.8208 N   0  0  0  0  0  0  0  0  0  0  0  0
  -17.5407   12.5943  -20.6837 C   0  0  0  0  0  0  0  0  0  0  0  0
  -17.9289   11.5808  -19.7825 C   0  0  0  0  0  0  0  0  0  0  0  0
  -18.5569   11.9090  -18.6252 C   0  0  0  0  0  0  0  0  0  0  0  0
  -18.8560   13.2013  -18.2482 C   0  0  0  0  0  0  0  0  0  0  0  0
  -19.4363   13.4772  -17.1760 O   0  0  0  0  0  0  0  0  0  0  0  0
  -18.4833   14.1609  -19.1113 N   0  0  0  0  0  0  0  0  0  0  0  0
  -17.8478   13.8697  -20.2884 C   0  0  0  0  0  0  0  0  0  0  0  0
  -17.2351   14.7751  -21.6045 S   0  0  0  0  0  0  0  0  0  0  0  0
  -16.0592   13.9993  -26.2354 N   0  0  0  0  0  0  0  0  0  0  0  0
  -16.6949   13.9471  -24.9799 C   0  0  0  0  0  0  0  0  0  0  0  0
  -17.8976   14.2637  -24.8672 O   0  0  0  0  0  0  0  0  0  0  0  0
  -15.9714   13.5357  -23.8444 N   0  0  0  0  0  0  0  0  0  0  0  0
  -15.0488   13.7262  -26.2908 H   0  0  0  0  0  0  0  0  0  0  0  0
  -14.9672   13.2679  -23.9195 H   0  0  0  0  0  0  0  0  0  0  0  0
  -16.0133   15.5471  -28.0772 C   0  0  0  0  0  0  0  0  0  0  0  0
  -16.7569   14.4167  -27.4430 C   0  0  0  0  0  0  0  0  0  0  0  0
  -18.9347   10.8282  -17.7260 C   0  0  0  0  0  0  0  0  0  0  0  0
  -20.0082   10.9072  -16.8670 C   0  0  0  0  0  0  0  0  0  0  0  0
  -20.3410    9.8490  -16.0237 C   0  0  0  0  0  0  0  0  0  0  0  0
  -19.5836    8.7145  -16.0546 C   0  0  0  0  0  0  0  0  0  0  0  0
  -18.5334    8.6377  -16.8951 N   0  0  0  0  0  0  0  0  0  0  0  0
  -18.1988    9.6703  -17.7264 C   0  0  0  0  0  0  0  0  0  0  0  0
  -18.7296   15.5593  -18.8516 C   0  0  0  0  0  0  0  0  0  0  0  0
  -20.1944   15.9034  -18.9449 C   0  0  0  0  0  0  0  0  0  0  0  0
  -18.1652   16.0021  -17.5207 C   0  0  0  0  0  0  0  0  0  0  0  0
 17 18  1  0  0  0
 18 11  1  0  0  0
 11 12  1  0  0  0
 12 13  2  0  0  0
 12 14  1  0  0  0
 14  1  1  0  0  0
  1  2  2  0  0  0
  2  3  1  0  0  0
  3  4  1  0  0  0
  4  5  2  0  0  0
  5 19  1  0  0  0
 19 20  2  0  0  0
 20 21  1  0  0  0
 21 22  2  0  0  0
 22 23  1  0  0  0
 23 24  2  0  0  0
  5  6  1  0  0  0
  6  7  2  0  0  0
  6  8  1  0  0  0
  8 25  1  0  0  0
 25 26  1  0  0  0
 25 27  1  0  0  0
  8  9  1  0  0  0
  9 10  1  0  0  0
 10  1  1  0  0  0
  9  3  2  0  0  0
 24 19  1  0  0  0
 11 15  1  0  0  0
 14 16  1  0  0  0
M  END
> <minimizedAffinity>
-8.09433

> <CNNscore>
0.5557079315

> <CNNaffinity>
6.6829643250

> <CNN_VS>
3.7137763500

> <CNNaffinity_variance>
0.1201935187

$$$$
[H]c1nc([H])c(-c2c([H])c3nc(N([H])C(=O)N([H])C([H])([H])C([H])([H])[H])sc3n(C([H])(C([H])([H])[H])C([H])([H])[H])c2=O)c([H])c1[H]


 27 29  0  0  0  0  0  0  0  0999 V2000
  -17.2733   12.5698  -22.0066 C   0  0  0  0  0  0  0  0  0  0  0  0
  -17.9792   13.6412  -21.7335 N   0  0  0  0  0  0  0  0  0  0  0  0
  -17.8389   14.7177  -22.4419 C   0  0  0  0  0  0  0  0  0  0  0  0
  -18.5189   15.9424  -22.2764 C   0  0  0  0  0  0  0  0  0  0  0  0
  -18.2545   16.9808  -23.1089 C   0  0  0  0  0  0  0  0  0  0  0  0
  -17.3409   16.9305  -24.1406 C   0  0  0  0  0  0  0  0  0  0  0  0
  -17.1159   17.9019  -24.8944 O   0  0  0  0  0  0  0  0  0  0  0  0
  -16.6971   15.7611  -24.2920 N   0  0  0  0  0  0  0  0  0  0  0  0
  -16.9364   14.6909  -23.4724 C   0  0  0  0  0  0  0  0  0  0  0  0
  -16.3443   13.0906  -23.3455 S   0  0  0  0  0  0  0  0  0  0  0  0
  -17.3730    9.9741  -19.2903 N   0  0  0  0  0  0  0  0  0  0  0  0
  -17.3675   11.2221  -19.9426 C   0  0  0  0  0  0  0  0  0  0  0  0
  -17.4416   12.2799  -19.2831 O   0  0  0  0  0  0  0  0  0  0  0  0
  -17.2779   11.2789  -21.3466 N   0  0  0  0  0  0  0  0  0  0  0  0
  -17.3093    9.1081  -19.8772 H   0  0  0  0  0  0  0  0  0  0  0  0
  -17.2154   10.4067  -21.9131 H   0  0  0  0  0  0  0  0  0  0  0  0
  -18.8718    9.5322  -17.4606 C   0  0  0  0  0  0  0  0  0  0  0  0
  -17.4635    9.8545  -17.8423 C   0  0  0  0  0  0  0  0  0  0  0  0
  -18.9793   18.2253  -22.8958 C   0  0  0  0  0  0  0  0  0  0  0  0
  -18.4673   19.2769  -22.1688 C   0  0  0  0  0  0  0  0  0  0  0  0
  -19.1903   20.4547  -21.9903 C   0  0  0  0  0  0  0  0  0  0  0  0
  -20.4303   20.5614  -22.5499 C   0  0  0  0  0  0  0  0  0  0  0  0
  -20.9306   19.5323  -23.2611 N   0  0  0  0  0  0  0  0  0  0  0  0
  -20.2291   18.3728  -23.4419 C   0  0  0  0  0  0  0  0  0  0  0  0
  -15.7129   15.5598  -25.3285 C   0  0  0  0  0  0  0  0  0  0  0  0
  -14.4029   15.0580  -24.7762 C   0  0  0  0  0  0  0  0  0  0  0  0
  -16.2127   14.6429  -26.4218 C   0  0  0  0  0  0  0  0  0  0  0  0
 17 18  1  0  0  0
 18 11  1  0  0  0
 11 12  1  0  0  0
 12 13  2  0  0  0
 12 14  1  0  0  0
 14  1  1  0  0  0
  1  2  2  0  0  0
  2  3  1  0  0  0
  3  4  1  0  0  0
  4  5  2  0  0  0
  5 19  1  0  0  0
 19 20  2  0  0  0
 20 21  1  0  0  0
 21 22  2  0  0  0
 22 23  1  0  0  0
 23 24  2  0  0  0
  5  6  1  0  0  0
  6  7  2  0  0  0
  6  8  1  0  0  0
  8 25  1  0  0  0
 25 26  1  0  0  0
 25 27  1  0  0  0
  8  9  1  0  0  0
  9 10  1  0  0  0
 10  1  1  0  0  0
  9  3  2  0  0  0
 24 19  1  0  0  0
 11 15  1  0  0  0
 14 16  1  0  0  0
M  END
> <minimizedAffinity>
-7.29806

> <CNNscore>
0.5143585801

> <CNNaffinity>
6.8911514282

> <CNN_VS>
3.5445227623

> <CNNaffinity_variance>
0.5555793643

$$$$
[H]c1nc([H])c(-c2c([H])c3nc(N([H])C(=O)N([H])C([H])([H])C([H])([H])[H])sc3n(C([H])(C([H])([H])[H])C([H])([H])[H])c2=O)c([H])c1[H]


 27 29  0  0  0  0  0  0  0  0999 V2000
  -17.1517   12.7284  -22.1011 C   0  0  0  0  0  0  0  0  0  0  0  0
  -17.2502   11.8084  -21.1712 N   0  0  0  0  0  0  0  0  0  0  0  0
  -17.9903   12.0084  -20.1260 C   0  0  0  0  0  0  0  0  0  0  0  0
  -18.1986   11.1246  -19.0465 C   0  0  0  0  0  0  0  0  0  0  0  0
  -19.0099   11.4883  -18.0214 C   0  0  0  0  0  0  0  0  0  0  0  0
  -19.6701   12.6969  -17.9502 C   0  0  0  0  0  0  0  0  0  0  0  0
  -20.4131   13.0079  -16.9942 O   0  0  0  0  0  0  0  0  0  0  0  0
  -19.4669   13.5333  -18.9817 N   0  0  0  0  0  0  0  0  0  0  0  0
  -18.6558   13.2025  -20.0337 C   0  0  0  0  0  0  0  0  0  0  0  0
  -18.1597   13.9647  -21.4830 S   0  0  0  0  0  0  0  0  0  0  0  0
  -14.8171   13.7893  -24.8488 N   0  0  0  0  0  0  0  0  0  0  0  0
  -15.5639   13.8006  -23.6550 C   0  0  0  0  0  0  0  0  0  0  0  0
  -15.5001   14.7770  -22.8792 O   0  0  0  0  0  0  0  0  0  0  0  0
  -16.3877   12.7051  -23.3331 N   0  0  0  0  0  0  0  0  0  0  0  0
  -14.8962   12.9524  -25.4748 H   0  0  0  0  0  0  0  0  0  0  0  0
  -16.4533   11.8818  -23.9684 H   0  0  0  0  0  0  0  0  0  0  0  0
  -14.6216   15.7041  -26.2928 C   0  0  0  0  0  0  0  0  0  0  0  0
  -13.9492   14.8932  -25.2330 C   0  0  0  0  0  0  0  0  0  0  0  0
  -19.1906   10.5436  -16.9286 C   0  0  0  0  0  0  0  0  0  0  0  0
  -18.7529    9.2391  -16.9842 C   0  0  0  0  0  0  0  0  0  0  0  0
  -18.9409    8.3653  -15.9151 C   0  0  0  0  0  0  0  0  0  0  0  0
  -19.5723    8.8181  -14.7933 C   0  0  0  0  0  0  0  0  0  0  0  0
  -20.0002   10.0944  -14.7394 N   0  0  0  0  0  0  0  0  0  0  0  0
  -19.8206   10.9593  -15.7829 C   0  0  0  0  0  0  0  0  0  0  0  0
  -20.0912   14.8333  -19.0452 C   0  0  0  0  0  0  0  0  0  0  0  0
  -19.0801   15.9402  -19.2043 C   0  0  0  0  0  0  0  0  0  0  0  0
  -21.1387   14.9123  -20.1326 C   0  0  0  0  0  0  0  0  0  0  0  0
 17 18  1  0  0  0
 18 11  1  0  0  0
 11 12  1  0  0  0
 12 13  2  0  0  0
 12 14  1  0  0  0
 14  1  1  0  0  0
  1  2  2  0  0  0
  2  3  1  0  0  0
  3  4  1  0  0  0
  4  5  2  0  0  0
  5 19  1  0  0  0
 19 20  2  0  0  0
 20 21  1  0  0  0
 21 22  2  0  0  0
 22 23  1  0  0  0
 23 24  2  0  0  0
  5  6  1  0  0  0
  6  7  2  0  0  0
  6  8  1  0  0  0
  8 25  1  0  0  0
 25 26  1  0  0  0
 25 27  1  0  0  0
  8  9  1  0  0  0
  9 10  1  0  0  0
 10  1  1  0  0  0
  9  3  2  0  0  0
 24 19  1  0  0  0
 11 15  1  0  0  0
 14 16  1  0  0  0
M  END
> <minimizedAffinity>
-7.83717

> <CNNscore>
0.4816010892

> <CNNaffinity>
6.4811234474

> <CNN_VS>
3.1213161945

> <CNNaffinity_variance>
0.1502007693

$$$$
[H]c1nc([H])c(-c2c([H])c3nc(N([H])C(=O)N([H])C([H])([H])C([H])([H])[H])sc3n(C([H])(C([H])([H])[H])C([H])([H])[H])c2=O)c([H])c1[H]


 27 29  0  0  0  0  0  0  0  0999 V2000
  -18.6869   12.9890  -19.4978 C   0  0  0  0  0  0  0  0  0  0  0  0
  -18.1928   12.8886  -20.7088 N   0  0  0  0  0  0  0  0  0  0  0  0
  -17.6341   13.9114  -21.2764 C   0  0  0  0  0  0  0  0  0  0  0  0
  -17.0600   13.9644  -22.5638 C   0  0  0  0  0  0  0  0  0  0  0  0
  -16.5117   15.1216  -23.0128 C   0  0  0  0  0  0  0  0  0  0  0  0
  -16.4702   16.2909  -22.2830 C   0  0  0  0  0  0  0  0  0  0  0  0
  -15.9582   17.3443  -22.7196 O   0  0  0  0  0  0  0  0  0  0  0  0
  -17.0188   16.2328  -21.0580 N   0  0  0  0  0  0  0  0  0  0  0  0
  -17.5815   15.0841  -20.5700 C   0  0  0  0  0  0  0  0  0  0  0  0
  -18.3534   14.6226  -19.1144 S   0  0  0  0  0  0  0  0  0  0  0  0
  -19.2084    9.9518  -17.3461 N   0  0  0  0  0  0  0  0  0  0  0  0
  -18.5804   10.9385  -18.1305 C   0  0  0  0  0  0  0  0  0  0  0  0
  -17.3487   10.8965  -18.3314 O   0  0  0  0  0  0  0  0  0  0  0  0
  -19.3448   11.9790  -18.6921 N   0  0  0  0  0  0  0  0  0  0  0  0
  -20.2439   10.0203  -17.1995 H   0  0  0  0  0  0  0  0  0  0  0  0
  -20.3737   12.0301  -18.5351 H   0  0  0  0  0  0  0  0  0  0  0  0
  -19.0925    8.5025  -15.4288 C   0  0  0  0  0  0  0  0  0  0  0  0
  -18.4691    8.8536  -16.7407 C   0  0  0  0  0  0  0  0  0  0  0  0
  -15.9348   15.1275  -24.3494 C   0  0  0  0  0  0  0  0  0  0  0  0
  -16.6839   15.3180  -25.4892 C   0  0  0  0  0  0  0  0  0  0  0  0
  -16.0943   15.3212  -26.7518 C   0  0  0  0  0  0  0  0  0  0  0  0
  -14.7469   15.1311  -26.8537 C   0  0  0  0  0  0  0  0  0  0  0  0
  -14.0146   14.9448  -25.7383 N   0  0  0  0  0  0  0  0  0  0  0  0
  -14.5836   14.9400  -24.4952 C   0  0  0  0  0  0  0  0  0  0  0  0
  -17.0492   17.3779  -20.1797 C   0  0  0  0  0  0  0  0  0  0  0  0
  -15.7071   18.0588  -20.0899 C   0  0  0  0  0  0  0  0  0  0  0  0
  -18.1214   18.3698  -20.5698 C   0  0  0  0  0  0  0  0  0  0  0  0
 17 18  1  0  0  0
 18 11  1  0  0  0
 11 12  1  0  0  0
 12 13  2  0  0  0
 12 14  1  0  0  0
 14  1  1  0  0  0
  1  2  2  0  0  0
  2  3  1  0  0  0
  3  4  1  0  0  0
  4  5  2  0  0  0
  5 19  1  0  0  0
 19 20  2  0  0  0
 20 21  1  0  0  0
 21 22  2  0  0  0
 22 23  1  0  0  0
 23 24  2  0  0  0
  5  6  1  0  0  0
  6  7  2  0  0  0
  6  8  1  0  0  0
  8 25  1  0  0  0
 25 26  1  0  0  0
 25 27  1  0  0  0
  8  9  1  0  0  0
  9 10  1  0  0  0
 10  1  1  0  0  0
  9  3  2  0  0  0
 24 19  1  0  0  0
 11 15  1  0  0  0
 14 16  1  0  0  0
M  END
> <minimizedAffinity>
-7.39292

> <CNNscore>
0.4019900560

> <CNNaffinity>
6.6798834801

> <CNN_VS>
2.6852467060

> <CNNaffinity_variance>
0.4139851034

$$$$
[H]c1nc([H])c(-c2c([H])c3nc(N([H])C(=O)N([H])C([H])([H])C([H])([H])[H])sc3n(C([H])(C([H])([H])[H])C([H])([H])[H])c2=O)c([H])c1[H]


 27 29  0  0  0  0  0  0  0  0999 V2000
  -18.3750   17.6326  -23.2145 C   0  0  0  0  0  0  0  0  0  0  0  0
  -18.4604   17.1260  -22.0076 N   0  0  0  0  0  0  0  0  0  0  0  0
  -19.5792   17.1715  -21.3545 C   0  0  0  0  0  0  0  0  0  0  0  0
  -19.8310   16.6752  -20.0583 C   0  0  0  0  0  0  0  0  0  0  0  0
  -21.0671   16.8033  -19.5132 C   0  0  0  0  0  0  0  0  0  0  0  0
  -22.1339   17.4017  -20.1500 C   0  0  0  0  0  0  0  0  0  0  0  0
  -23.2638   17.5068  -19.6258 O   0  0  0  0  0  0  0  0  0  0  0  0
  -21.8865   17.8720  -21.3839 N   0  0  0  0  0  0  0  0  0  0  0  0
  -20.6530   17.7617  -21.9675 C   0  0  0  0  0  0  0  0  0  0  0  0
  -19.9633   18.2166  -23.4657 S   0  0  0  0  0  0  0  0  0  0  0  0
  -15.7819   16.5824  -25.7243 N   0  0  0  0  0  0  0  0  0  0  0  0
  -16.8895   16.5437  -24.8555 C   0  0  0  0  0  0  0  0  0  0  0  0
  -17.5702   15.5026  -24.7458 O   0  0  0  0  0  0  0  0  0  0  0  0
  -17.2324   17.6848  -24.1055 N   0  0  0  0  0  0  0  0  0  0  0  0
  -15.2346   17.4739  -25.7898 H   0  0  0  0  0  0  0  0  0  0  0  0
  -16.6759   18.5623  -24.1842 H   0  0  0  0  0  0  0  0  0  0  0  0
  -15.9895   15.5424  -27.8841 C   0  0  0  0  0  0  0  0  0  0  0  0
  -15.3808   15.4338  -26.5238 C   0  0  0  0  0  0  0  0  0  0  0  0
  -21.2768   16.2785  -18.1716 C   0  0  0  0  0  0  0  0  0  0  0  0
  -21.6019   14.9636  -17.9224 C   0  0  0  0  0  0  0  0  0  0  0  0
  -21.7907   14.4975  -16.6229 C   0  0  0  0  0  0  0  0  0  0  0  0
  -21.6493   15.3669  -15.5807 C   0  0  0  0  0  0  0  0  0  0  0  0
  -21.3313   16.6531  -15.8250 N   0  0  0  0  0  0  0  0  0  0  0  0
  -21.1439   17.1201  -17.0963 C   0  0  0  0  0  0  0  0  0  0  0  0
  -22.9059   18.5230  -22.1716 C   0  0  0  0  0  0  0  0  0  0  0  0
  -22.5486   19.9524  -22.4909 C   0  0  0  0  0  0  0  0  0  0  0  0
  -23.2240   17.7610  -23.4381 C   0  0  0  0  0  0  0  0  0  0  0  0
 17 18  1  0  0  0
 18 11  1  0  0  0
 11 12  1  0  0  0
 12 13  2  0  0  0
 12 14  1  0  0  0
 14  1  1  0  0  0
  1  2  2  0  0  0
  2  3  1  0  0  0
  3  4  1  0  0  0
  4  5  2  0  0  0
  5 19  1  0  0  0
 19 20  2  0  0  0
 20 21  1  0  0  0
 21 22  2  0  0  0
 22 23  1  0  0  0
 23 24  2  0  0  0
  5  6  1  0  0  0
  6  7  2  0  0  0
  6  8  1  0  0  0
  8 25  1  0  0  0
 25 26  1  0  0  0
 25 27  1  0  0  0
  8  9  1  0  0  0
  9 10  1  0  0  0
 10  1  1  0  0  0
  9  3  2  0  0  0
 24 19  1  0  0  0
 11 15  1  0  0  0
 14 16  1  0  0  0
M  END
> <minimizedAffinity>
-5.84131

> <CNNscore>
0.2899752557

> <CNNaffinity>
5.9206929207

> <CNN_VS>
1.7168544531

> <CNNaffinity_variance>
0.0712131262

$$$$
[H]c1nc([H])c(-c2c([H])c3nc(N([H])C(=O)N([H])C([H])([H])C([H])([H])[H])sc3n(C([H])(C([H])([H])[H])C([H])([H])[H])c2=O)c([H])c1[H]


 27 29  0  0  0  0  0  0  0  0999 V2000
  -17.8204   12.0891  -19.9711 C   0  0  0  0  0  0  0  0  0  0  0  0
  -18.2820   13.3158  -20.0253 N   0  0  0  0  0  0  0  0  0  0  0  0
  -18.1414   14.0227  -21.1026 C   0  0  0  0  0  0  0  0  0  0  0  0
  -18.5788   15.3465  -21.3174 C   0  0  0  0  0  0  0  0  0  0  0  0
  -18.3512   15.9488  -22.5119 C   0  0  0  0  0  0  0  0  0  0  0  0
  -17.7031   15.3464  -23.5696 C   0  0  0  0  0  0  0  0  0  0  0  0
  -17.5064   15.9233  -24.6609 O   0  0  0  0  0  0  0  0  0  0  0  0
  -17.2894   14.0859  -23.3578 N   0  0  0  0  0  0  0  0  0  0  0  0
  -17.5002   13.4448  -22.1667 C   0  0  0  0  0  0  0  0  0  0  0  0
  -17.1397   11.8985  -21.5290 S   0  0  0  0  0  0  0  0  0  0  0  0
  -19.0158   10.2675  -16.9085 N   0  0  0  0  0  0  0  0  0  0  0  0
  -18.9541   11.1842  -17.9757 C   0  0  0  0  0  0  0  0  0  0  0  0
  -19.8533   12.0371  -18.1287 O   0  0  0  0  0  0  0  0  0  0  0  0
  -17.8727   11.1400  -18.8762 N   0  0  0  0  0  0  0  0  0  0  0  0
  -18.2427    9.5664  -16.8125 H   0  0  0  0  0  0  0  0  0  0  0  0
  -17.1133   10.4353  -18.7642 H   0  0  0  0  0  0  0  0  0  0  0  0
  -20.2015    8.9198  -15.3062 C   0  0  0  0  0  0  0  0  0  0  0  0
  -20.1091   10.2663  -15.9474 C   0  0  0  0  0  0  0  0  0  0  0  0
  -18.8184   17.3168  -22.6841 C   0  0  0  0  0  0  0  0  0  0  0  0
  -19.9866   17.6338  -23.3411 C   0  0  0  0  0  0  0  0  0  0  0  0
  -20.4029   18.9561  -23.4820 C   0  0  0  0  0  0  0  0  0  0  0  0
  -19.6327   19.9522  -22.9562 C   0  0  0  0  0  0  0  0  0  0  0  0
  -18.4900   19.6415  -22.3136 N   0  0  0  0  0  0  0  0  0  0  0  0
  -18.0730   18.3474  -22.1699 C   0  0  0  0  0  0  0  0  0  0  0  0
  -16.5968   13.3287  -24.3728 C   0  0  0  0  0  0  0  0  0  0  0  0
  -17.4804   13.0272  -25.5565 C   0  0  0  0  0  0  0  0  0  0  0  0
  -15.3222   14.0065  -24.8223 C   0  0  0  0  0  0  0  0  0  0  0  0
 17 18  1  0  0  0
 18 11  1  0  0  0
 11 12  1  0  0  0
 12 13  2  0  0  0
 12 14  1  0  0  0
 14  1  1  0  0  0
  1  2  2  0  0  0
  2  3  1  0  0  0
  3  4  1  0  0  0
  4  5  2  0  0  0
  5 19  1  0  0  0
 19 20  2  0  0  0
 20 21  1  0  0  0
 21 22  2  0  0  0
 22 23  1  0  0  0
 23 24  2  0  0  0
  5  6  1  0  0  0
  6  7  2  0  0  0
  6  8  1  0  0  0
  8 25  1  0  0  0
 25 26  1  0  0  0
 25 27  1  0  0  0
  8  9  1  0  0  0
  9 10  1  0  0  0
 10  1  1  0  0  0
  9  3  2  0  0  0
 24 19  1  0  0  0
 11 15  1  0  0  0
 14 16  1  0  0  0
M  END
> <minimizedAffinity>
-7.17011

> <CNNscore>
0.2613840401

> <CNNaffinity>
6.3760948181

> <CNN_VS>
1.6666094065

> <CNNaffinity_variance>
0.4269486964

$$$$
[H]c1c([H])c([H])c(C([H])([H])N([H])C(=O)C(=O)[C@@]([H])(N([H])C(=O)[C@@]2([H])N(C(=O)C3(c4c([H])c([H])c(Cl)c([H])c4[H])C([H])([H])C3([H])[H])C([H])([H])[C@]([H])(S(=O)(=O)c3c([H])c([H])c([H])c([H])c3Cl)C2([H])[H])C([H])([H])[H])c([H])c1[H]


 46 50  0  0  0  0  0  0  0  0999 V2000
  -17.3687   14.6279  -20.4526 C   0  0  0  0  0  0  0  0  0  0  0  0
  -16.3578   15.1767  -21.4669 C   0  0  0  0  0  0  0  0  0  0  0  0
  -17.0105   14.8835  -22.8120 C   0  0  0  0  0  0  0  0  0  0  0  0
  -18.1718   13.9717  -22.4668 C   0  0  0  0  0  0  0  0  0  0  0  0
  -17.7573   13.4189  -21.1288 N   0  0  0  0  0  0  0  0  0  0  0  0
  -17.7859   12.0649  -20.8903 C   0  0  0  0  0  0  0  0  0  0  0  0
  -18.1908   11.3406  -21.9069 O   0  0  0  0  0  0  0  0  0  0  0  0
  -18.1162   17.0080  -20.3196 N   0  0  0  0  0  0  0  0  0  0  0  0
  -18.4045   15.6210  -20.2240 C   0  0  0  0  0  0  0  0  0  0  0  0
  -19.6207   15.3460  -19.9324 O   0  0  0  0  0  0  0  0  0  0  0  0
  -17.1256   17.2713  -20.5519 H   0  0  0  0  0  0  0  0  0  0  0  0
  -18.6269   19.1450  -19.2050 C   0  0  0  0  0  0  0  0  0  0  0  0
  -19.1080   18.0606  -20.1070 C   0  0  0  0  0  0  0  0  0  0  0  0
  -19.5220   18.6282  -21.4361 C   0  0  0  0  0  0  0  0  0  0  0  0
  -18.9962   19.6933  -21.8142 O   0  0  0  0  0  0  0  0  0  0  0  0
  -20.4960   17.9670  -22.2525 C   0  0  0  0  0  0  0  0  0  0  0  0
  -20.1402   17.0826  -23.0407 O   0  0  0  0  0  0  0  0  0  0  0  0
  -21.8661   18.3256  -22.1633 N   0  0  0  0  0  0  0  0  0  0  0  0
  -22.1045   19.1075  -21.4839 H   0  0  0  0  0  0  0  0  0  0  0  0
  -22.9664   17.7707  -22.8763 C   0  0  0  0  0  0  0  0  0  0  0  0
  -23.1036   18.2591  -24.2489 C   0  0  0  0  0  0  0  0  0  0  0  0
  -23.4220   17.3453  -25.2255 C   0  0  0  0  0  0  0  0  0  0  0  0
  -23.5328   17.7710  -26.5294 C   0  0  0  0  0  0  0  0  0  0  0  0
  -23.3322   19.0813  -26.8704 C   0  0  0  0  0  0  0  0  0  0  0  0
  -23.0126   19.9831  -25.8699 C   0  0  0  0  0  0  0  0  0  0  0  0
  -22.8985   19.5812  -24.5694 C   0  0  0  0  0  0  0  0  0  0  0  0
  -17.4441   11.2115  -19.7408 C   0  0  0  0  0  0  0  0  0  0  0  0
  -15.9860   11.2794  -19.3103 C   0  0  0  0  0  0  0  0  0  0  0  0
  -16.4974   10.0983  -20.0631 C   0  0  0  0  0  0  0  0  0  0  0  0
  -18.3361   11.1627  -18.5667 C   0  0  0  0  0  0  0  0  0  0  0  0
  -18.4410    9.9117  -17.9080 C   0  0  0  0  0  0  0  0  0  0  0  0
  -19.2350    9.7379  -16.8007 C   0  0  0  0  0  0  0  0  0  0  0  0
  -19.9733   10.7691  -16.2685 C   0  0  0  0  0  0  0  0  0  0  0  0
  -20.9889   10.5205  -14.8449 Cl  0  0  0  0  0  0  0  0  0  0  0  0
  -19.8800   11.9796  -16.8944 C   0  0  0  0  0  0  0  0  0  0  0  0
  -19.0654   12.1628  -18.0318 C   0  0  0  0  0  0  0  0  0  0  0  0
  -15.8218   14.0333  -23.7982 S   0  0  0  0  0  0  0  0  0  0  0  0
  -16.0370   12.5453  -23.7158 O   0  0  0  0  0  0  0  0  0  0  0  0
  -14.4401   14.3208  -23.2199 O   0  0  0  0  0  0  0  0  0  0  0  0
  -15.7857   14.5621  -25.4503 C   0  0  0  0  0  0  0  0  0  0  0  0
  -14.8991   15.4498  -25.9857 C   0  0  0  0  0  0  0  0  0  0  0  0
  -14.9582   15.7845  -27.3254 C   0  0  0  0  0  0  0  0  0  0  0  0
  -15.9175   15.2317  -28.1672 C   0  0  0  0  0  0  0  0  0  0  0  0
  -16.8155   14.3380  -27.6412 C   0  0  0  0  0  0  0  0  0  0  0  0
  -16.7404   14.0171  -26.3036 C   0  0  0  0  0  0  0  0  0  0  0  0
  -17.9208   12.8710  -25.6880 Cl  0  0  0  0  0  0  0  0  0  0  0  0
 12 13  1  0  0  0
 13  8  1  0  0  0
  8  9  1  0  0  0
  9 10  2  0  0  0
  9  1  1  0  0  0
  1  2  1  0  0  0
  2  3  1  0  0  0
  3  4  1  0  0  0
  4  5  1  0  0  0
  5  6  1  0  0  0
  6  7  2  0  0  0
  6 27  1  0  0  0
 27 28  1  0  0  0
 28 29  1  0  0  0
 27 30  1  0  0  0
 30 31  2  0  0  0
 31 32  1  0  0  0
 32 33  2  0  0  0
 33 34  1  0  0  0
 33 35  1  0  0  0
 35 36  2  0  0  0
  3 37  1  0  0  0
 37 38  2  0  0  0
 37 39  2  0  0  0
 37 40  1  0  0  0
 40 41  2  0  0  0
 41 42  1  0  0  0
 42 43  2  0  0  0
 43 44  1  0  0  0
 44 45  2  0  0  0
 45 46  1  0  0  0
 13 14  1  0  0  0
 14 15  2  0  0  0
 14 16  1  0  0  0
 16 17  2  0  0  0
 16 18  1  0  0  0
 18 20  1  0  0  0
 20 21  1  0  0  0
 21 22  2  0  0  0
 22 23  1  0  0  0
 23 24  2  0  0  0
 24 25  1  0  0  0
 25 26  2  0  0  0
  5  1  1  0  0  0
 29 27  1  0  0  0
 36 30  1  0  0  0
 45 40  1  0  0  0
 26 21  1  0  0  0
  8 11  1  0  0  0
 18 19  1  0  0  0
M  END
> <minimizedAffinity>
-10.89036

> <CNNscore>
0.5946632028

> <CNNaffinity>
8.0320177078

> <CNN_VS>
4.7763452530

> <CNNaffinity_variance>
0.0506064221

$$$$
[H]c1c([H])c([H])c(C([H])([H])N([H])C(=O)C(=O)[C@@]([H])(N([H])C(=O)[C@@]2([H])N(C(=O)C3(c4c([H])c([H])c(Cl)c([H])c4[H])C([H])([H])C3([H])[H])C([H])([H])[C@]([H])(S(=O)(=O)c3c([H])c([H])c([H])c([H])c3Cl)C2([H])[H])C([H])([H])[H])c([H])c1[H]


 46 50  0  0  0  0  0  0  0  0999 V2000
  -19.5703   15.8732  -19.4082 C   0  0  0  0  0  0  0  0  0  0  0  0
  -20.7051   16.7955  -18.9457 C   0  0  0  0  0  0  0  0  0  0  0  0
  -20.1208   17.4900  -17.7220 C   0  0  0  0  0  0  0  0  0  0  0  0
  -18.8444   16.7227  -17.4374 C   0  0  0  0  0  0  0  0  0  0  0  0
  -19.0994   15.4101  -18.1300 N   0  0  0  0  0  0  0  0  0  0  0  0
  -18.9044   14.2196  -17.4699 C   0  0  0  0  0  0  0  0  0  0  0  0
  -18.4950   14.3446  -16.2294 O   0  0  0  0  0  0  0  0  0  0  0  0
  -18.9138   17.9792  -20.5808 N   0  0  0  0  0  0  0  0  0  0  0  0
  -18.6371   16.6336  -20.2219 C   0  0  0  0  0  0  0  0  0  0  0  0
  -17.5254   16.1790  -20.6662 O   0  0  0  0  0  0  0  0  0  0  0  0
  -19.8212   18.3841  -20.2381 H   0  0  0  0  0  0  0  0  0  0  0  0
  -16.5972   18.3667  -21.3246 C   0  0  0  0  0  0  0  0  0  0  0  0
  -18.0203   18.8041  -21.3919 C   0  0  0  0  0  0  0  0  0  0  0  0
  -18.5024   18.8055  -22.8158 C   0  0  0  0  0  0  0  0  0  0  0  0
  -19.3184   19.6815  -23.1633 O   0  0  0  0  0  0  0  0  0  0  0  0
  -18.0402   17.8274  -23.7550 C   0  0  0  0  0  0  0  0  0  0  0  0
  -17.2777   18.1639  -24.6690 O   0  0  0  0  0  0  0  0  0  0  0  0
  -18.4569   16.4755  -23.6430 N   0  0  0  0  0  0  0  0  0  0  0  0
  -19.1295   16.2546  -22.8502 H   0  0  0  0  0  0  0  0  0  0  0  0
  -18.0896   15.3733  -24.4660 C   0  0  0  0  0  0  0  0  0  0  0  0
  -16.6461   15.1669  -24.5886 C   0  0  0  0  0  0  0  0  0  0  0  0
  -16.0658   15.4090  -25.8112 C   0  0  0  0  0  0  0  0  0  0  0  0
  -14.7143   15.1993  -25.9634 C   0  0  0  0  0  0  0  0  0  0  0  0
  -13.9408   14.7556  -24.9249 C   0  0  0  0  0  0  0  0  0  0  0  0
  -14.5475   14.5188  -23.7033 C   0  0  0  0  0  0  0  0  0  0  0  0
  -15.8874   14.7213  -23.5310 C   0  0  0  0  0  0  0  0  0  0  0  0
  -19.0675   12.8014  -17.8285 C   0  0  0  0  0  0  0  0  0  0  0  0
  -20.5120   12.3430  -17.9669 C   0  0  0  0  0  0  0  0  0  0  0  0
  -19.7128   11.9698  -16.7648 C   0  0  0  0  0  0  0  0  0  0  0  0
  -18.2243   12.2048  -18.8820 C   0  0  0  0  0  0  0  0  0  0  0  0
  -17.2551   11.2630  -18.4537 C   0  0  0  0  0  0  0  0  0  0  0  0
  -16.4126   10.6343  -19.3380 C   0  0  0  0  0  0  0  0  0  0  0  0
  -16.4626   10.8836  -20.6897 C   0  0  0  0  0  0  0  0  0  0  0  0
  -15.3671   10.0641  -21.8069 Cl  0  0  0  0  0  0  0  0  0  0  0  0
  -17.3930   11.7890  -21.1143 C   0  0  0  0  0  0  0  0  0  0  0  0
  -18.2606   12.4369  -20.2098 C   0  0  0  0  0  0  0  0  0  0  0  0
  -21.2752   17.2908  -16.4042 S   0  0  0  0  0  0  0  0  0  0  0  0
  -20.7218   16.3628  -15.3555 O   0  0  0  0  0  0  0  0  0  0  0  0
  -22.5275   16.6315  -16.9728 O   0  0  0  0  0  0  0  0  0  0  0  0
  -21.7846   18.7905  -15.6959 C   0  0  0  0  0  0  0  0  0  0  0  0
  -22.9839   19.4060  -15.9049 C   0  0  0  0  0  0  0  0  0  0  0  0
  -23.2859   20.5959  -15.2700 C   0  0  0  0  0  0  0  0  0  0  0  0
  -22.3832   21.2024  -14.4030 C   0  0  0  0  0  0  0  0  0  0  0  0
  -21.1732   20.5940  -14.1845 C   0  0  0  0  0  0  0  0  0  0  0  0
  -20.8908   19.4083  -14.8265 C   0  0  0  0  0  0  0  0  0  0  0  0
  -19.3235   18.6807  -14.5102 Cl  0  0  0  0  0  0  0  0  0  0  0  0
 12 13  1  0  0  0
 13  8  1  0  0  0
  8  9  1  0  0  0
  9 10  2  0  0  0
  9  1  1  0  0  0
  1  2  1  0  0  0
  2  3  1  0  0  0
  3  4  1  0  0  0
  4  5  1  0  0  0
  5  6  1  0  0  0
  6  7  2  0  0  0
  6 27  1  0  0  0
 27 28  1  0  0  0
 28 29  1  0  0  0
 27 30  1  0  0  0
 30 31  2  0  0  0
 31 32  1  0  0  0
 32 33  2  0  0  0
 33 34  1  0  0  0
 33 35  1  0  0  0
 35 36  2  0  0  0
  3 37  1  0  0  0
 37 38  2  0  0  0
 37 39  2  0  0  0
 37 40  1  0  0  0
 40 41  2  0  0  0
 41 42  1  0  0  0
 42 43  2  0  0  0
 43 44  1  0  0  0
 44 45  2  0  0  0
 45 46  1  0  0  0
 13 14  1  0  0  0
 14 15  2  0  0  0
 14 16  1  0  0  0
 16 17  2  0  0  0
 16 18  1  0  0  0
 18 20  1  0  0  0
 20 21  1  0  0  0
 21 22  2  0  0  0
 22 23  1  0  0  0
 23 24  2  0  0  0
 24 25  1  0  0  0
 25 26  2  0  0  0
  5  1  1  0  0  0
 29 27  1  0  0  0
 36 30  1  0  0  0
 45 40  1  0  0  0
 26 21  1  0  0  0
  8 11  1  0  0  0
 18 19  1  0  0  0
M  END
> <minimizedAffinity>
-8.80242

> <CNNscore>
0.2349704802

> <CNNaffinity>
7.2382497787

> <CNN_VS>
1.7007750273

> <CNNaffinity_variance>
0.3850893974

$$$$
[H]c1c([H])c([H])c(C([H])([H])N([H])C(=O)C(=O)[C@@]([H])(N([H])C(=O)[C@@]2([H])N(C(=O)C3(c4c([H])c([H])c(Cl)c([H])c4[H])C([H])([H])C3([H])[H])C([H])([H])[C@]([H])(S(=O)(=O)c3c([H])c([H])c([H])c([H])c3Cl)C2([H])[H])C([H])([H])[H])c([H])c1[H]


 46 50  0  0  0  0  0  0  0  0999 V2000
  -19.3177   14.7255  -18.7318 C   0  0  0  0  0  0  0  0  0  0  0  0
  -18.5602   15.9460  -19.2690 C   0  0  0  0  0  0  0  0  0  0  0  0
  -18.8685   15.9259  -20.7609 C   0  0  0  0  0  0  0  0  0  0  0  0
  -19.5271   14.5783  -20.9828 C   0  0  0  0  0  0  0  0  0  0  0  0
  -19.0507   13.7898  -19.7917 N   0  0  0  0  0  0  0  0  0  0  0  0
  -18.4945   12.5426  -19.9534 C   0  0  0  0  0  0  0  0  0  0  0  0
  -18.4236   12.1345  -21.1985 O   0  0  0  0  0  0  0  0  0  0  0  0
  -21.0894   16.4465  -18.3566 N   0  0  0  0  0  0  0  0  0  0  0  0
  -20.7062   15.0870  -18.5018 C   0  0  0  0  0  0  0  0  0  0  0  0
  -21.6694   14.2475  -18.4175 O   0  0  0  0  0  0  0  0  0  0  0  0
  -20.3232   17.1636  -18.4145 H   0  0  0  0  0  0  0  0  0  0  0  0
  -22.6072   17.7784  -16.9451 C   0  0  0  0  0  0  0  0  0  0  0  0
  -22.4656   16.8827  -18.1278 C   0  0  0  0  0  0  0  0  0  0  0  0
  -22.9833   17.5613  -19.3654 C   0  0  0  0  0  0  0  0  0  0  0  0
  -24.2161   17.6031  -19.5454 O   0  0  0  0  0  0  0  0  0  0  0  0
  -22.0880   18.1468  -20.3182 C   0  0  0  0  0  0  0  0  0  0  0  0
  -21.0831   18.7528  -19.9270 O   0  0  0  0  0  0  0  0  0  0  0  0
  -22.3518   18.0378  -21.7083 N   0  0  0  0  0  0  0  0  0  0  0  0
  -23.2422   17.5246  -21.9794 H   0  0  0  0  0  0  0  0  0  0  0  0
  -21.5726   18.5362  -22.7908 C   0  0  0  0  0  0  0  0  0  0  0  0
  -22.2703   18.5560  -24.0770 C   0  0  0  0  0  0  0  0  0  0  0  0
  -22.4146   19.7684  -24.7090 C   0  0  0  0  0  0  0  0  0  0  0  0
  -23.0885   19.8218  -25.9076 C   0  0  0  0  0  0  0  0  0  0  0  0
  -23.6157   18.6954  -26.4793 C   0  0  0  0  0  0  0  0  0  0  0  0
  -23.4577   17.4860  -25.8243 C   0  0  0  0  0  0  0  0  0  0  0  0
  -22.7917   17.4112  -24.6341 C   0  0  0  0  0  0  0  0  0  0  0  0
  -17.9284   11.5381  -19.0386 C   0  0  0  0  0  0  0  0  0  0  0  0
  -16.5408   11.8708  -18.5094 C   0  0  0  0  0  0  0  0  0  0  0  0
  -16.7173   10.8377  -19.5700 C   0  0  0  0  0  0  0  0  0  0  0  0
  -18.7677   10.9500  -17.9774 C   0  0  0  0  0  0  0  0  0  0  0  0
  -18.5060    9.5967  -17.6458 C   0  0  0  0  0  0  0  0  0  0  0  0
  -19.2155    8.9370  -16.6720 C   0  0  0  0  0  0  0  0  0  0  0  0
  -20.2203    9.5533  -15.9633 C   0  0  0  0  0  0  0  0  0  0  0  0
  -21.1200    8.6832  -14.7170 Cl  0  0  0  0  0  0  0  0  0  0  0  0
  -20.4813   10.8576  -16.2736 C   0  0  0  0  0  0  0  0  0  0  0  0
  -19.7549   11.5394  -17.2729 C   0  0  0  0  0  0  0  0  0  0  0  0
  -17.3293   16.0162  -21.6163 S   0  0  0  0  0  0  0  0  0  0  0  0
  -16.1818   15.8825  -20.6506 O   0  0  0  0  0  0  0  0  0  0  0  0
  -17.2250   17.3995  -22.2502 O   0  0  0  0  0  0  0  0  0  0  0  0
  -17.1861   14.8681  -22.9092 C   0  0  0  0  0  0  0  0  0  0  0  0
  -16.3477   13.7923  -22.9330 C   0  0  0  0  0  0  0  0  0  0  0  0
  -16.3327   12.9337  -24.0160 C   0  0  0  0  0  0  0  0  0  0  0  0
  -17.1656   13.1366  -25.1112 C   0  0  0  0  0  0  0  0  0  0  0  0
  -18.0132   14.2152  -25.1001 C   0  0  0  0  0  0  0  0  0  0  0  0
  -18.0137   15.0593  -24.0115 C   0  0  0  0  0  0  0  0  0  0  0  0
  -19.1171   16.4253  -24.0585 Cl  0  0  0  0  0  0  0  0  0  0  0  0
 12 13  1  0  0  0
 13  8  1  0  0  0
  8  9  1  0  0  0
  9 10  2  0  0  0
  9  1  1  0  0  0
  1  2  1  0  0  0
  2  3  1  0  0  0
  3  4  1  0  0  0
  4  5  1  0  0  0
  5  6  1  0  0  0
  6  7  2  0  0  0
  6 27  1  0  0  0
 27 28  1  0  0  0
 28 29  1  0  0  0
 27 30  1  0  0  0
 30 31  2  0  0  0
 31 32  1  0  0  0
 32 33  2  0  0  0
 33 34  1  0  0  0
 33 35  1  0  0  0
 35 36  2  0  0  0
  3 37  1  0  0  0
 37 38  2  0  0  0
 37 39  2  0  0  0
 37 40  1  0  0  0
 40 41  2  0  0  0
 41 42  1  0  0  0
 42 43  2  0  0  0
 43 44  1  0  0  0
 44 45  2  0  0  0
 45 46  1  0  0  0
 13 14  1  0  0  0
 14 15  2  0  0  0
 14 16  1  0  0  0
 16 17  2  0  0  0
 16 18  1  0  0  0
 18 20  1  0  0  0
 20 21  1  0  0  0
 21 22  2  0  0  0
 22 23  1  0  0  0
 23 24  2  0  0  0
 24 25  1  0  0  0
 25 26  2  0  0  0
  5  1  1  0  0  0
 29 27  1  0  0  0
 36 30  1  0  0  0
 45 40  1  0  0  0
 26 21  1  0  0  0
  8 11  1  0  0  0
 18 19  1  0  0  0
M  END
> <minimizedAffinity>
-9.92741

> <CNNscore>
0.2343360633

> <CNNaffinity>
7.2129163742

> <CNN_VS>
1.6902464628

> <CNNaffinity_variance>
0.3194245696

$$$$
[H]c1c([H])c([H])c(C([H])([H])N([H])C(=O)C(=O)[C@@]([H])(N([H])C(=O)[C@@]2([H])N(C(=O)C3(c4c([H])c([H])c(Cl)c([H])c4[H])C([H])([H])C3([H])[H])C([H])([H])[C@]([H])(S(=O)(=O)c3c([H])c([H])c([H])c([H])c3Cl)C2([H])[H])C([H])([H])[H])c([H])c1[H]


 46 50  0  0  0  0  0  0  0  0999 V2000
  -21.6626   17.2996  -18.8053 C   0  0  0  0  0  0  0  0  0  0  0  0
  -22.2888   17.2317  -20.2036 C   0  0  0  0  0  0  0  0  0  0  0  0
  -21.7433   18.4739  -20.8969 C   0  0  0  0  0  0  0  0  0  0  0  0
  -21.0950   19.2655  -19.7778 C   0  0  0  0  0  0  0  0  0  0  0  0
  -21.7800   18.7118  -18.5564 N   0  0  0  0  0  0  0  0  0  0  0  0
  -22.3370   19.5539  -17.6227 C   0  0  0  0  0  0  0  0  0  0  0  0
  -22.2162   20.8309  -17.8993 O   0  0  0  0  0  0  0  0  0  0  0  0
  -20.0864   15.4533  -19.3951 N   0  0  0  0  0  0  0  0  0  0  0  0
  -20.3204   16.7452  -18.8545 C   0  0  0  0  0  0  0  0  0  0  0  0
  -19.2711   17.3485  -18.4363 O   0  0  0  0  0  0  0  0  0  0  0  0
  -20.9262   14.9259  -19.7431 H   0  0  0  0  0  0  0  0  0  0  0  0
  -18.5037   13.8570  -18.3866 C   0  0  0  0  0  0  0  0  0  0  0  0
  -18.7644   14.8353  -19.4802 C   0  0  0  0  0  0  0  0  0  0  0  0
  -18.6103   14.1760  -20.8224 C   0  0  0  0  0  0  0  0  0  0  0  0
  -18.6204   12.9305  -20.8744 O   0  0  0  0  0  0  0  0  0  0  0  0
  -18.4548   14.9533  -22.0157 C   0  0  0  0  0  0  0  0  0  0  0  0
  -18.6434   16.1754  -21.9830 O   0  0  0  0  0  0  0  0  0  0  0  0
  -18.0894   14.3263  -23.2351 N   0  0  0  0  0  0  0  0  0  0  0  0
  -17.9636   13.2714  -23.2026 H   0  0  0  0  0  0  0  0  0  0  0  0
  -17.8739   14.9347  -24.5042 C   0  0  0  0  0  0  0  0  0  0  0  0
  -16.4682   15.0173  -24.9025 C   0  0  0  0  0  0  0  0  0  0  0  0
  -16.1863   15.4816  -26.1654 C   0  0  0  0  0  0  0  0  0  0  0  0
  -14.8747   15.5463  -26.5769 C   0  0  0  0  0  0  0  0  0  0  0  0
  -13.8505   15.1583  -25.7560 C   0  0  0  0  0  0  0  0  0  0  0  0
  -14.1591   14.6942  -24.4887 C   0  0  0  0  0  0  0  0  0  0  0  0
  -15.4542   14.6227  -24.0606 C   0  0  0  0  0  0  0  0  0  0  0  0
  -23.0716   19.3568  -16.3626 C   0  0  0  0  0  0  0  0  0  0  0  0
  -24.2805   18.4384  -16.4686 C   0  0  0  0  0  0  0  0  0  0  0  0
  -24.4601   19.9152  -16.3680 C   0  0  0  0  0  0  0  0  0  0  0  0
  -22.3339   19.1105  -15.1089 C   0  0  0  0  0  0  0  0  0  0  0  0
  -23.0222   19.4071  -13.9054 C   0  0  0  0  0  0  0  0  0  0  0  0
  -22.4458   19.2170  -12.6731 C   0  0  0  0  0  0  0  0  0  0  0  0
  -21.1676   18.7275  -12.5378 C   0  0  0  0  0  0  0  0  0  0  0  0
  -20.4473   18.4936  -10.9422 Cl  0  0  0  0  0  0  0  0  0  0  0  0
  -20.4946   18.4376  -13.6906 C   0  0  0  0  0  0  0  0  0  0  0  0
  -21.0827   18.6310  -14.9585 C   0  0  0  0  0  0  0  0  0  0  0  0
  -23.1202   19.3501  -21.5640 S   0  0  0  0  0  0  0  0  0  0  0  0
  -23.1782   20.7460  -21.0022 O   0  0  0  0  0  0  0  0  0  0  0  0
  -24.3918   18.6338  -21.1210 O   0  0  0  0  0  0  0  0  0  0  0  0
  -23.1487   19.3802  -23.2985 C   0  0  0  0  0  0  0  0  0  0  0  0
  -22.7451   20.4182  -24.0862 C   0  0  0  0  0  0  0  0  0  0  0  0
  -22.7993   20.3207  -25.4638 C   0  0  0  0  0  0  0  0  0  0  0  0
  -23.2648   19.1690  -26.0894 C   0  0  0  0  0  0  0  0  0  0  0  0
  -23.6743   18.1179  -25.3088 C   0  0  0  0  0  0  0  0  0  0  0  0
  -23.6125   18.2343  -23.9375 C   0  0  0  0  0  0  0  0  0  0  0  0
  -24.1556   16.8569  -22.9921 Cl  0  0  0  0  0  0  0  0  0  0  0  0
 12 13  1  0  0  0
 13  8  1  0  0  0
  8  9  1  0  0  0
  9 10  2  0  0  0
  9  1  1  0  0  0
  1  2  1  0  0  0
  2  3  1  0  0  0
  3  4  1  0  0  0
  4  5  1  0  0  0
  5  6  1  0  0  0
  6  7  2  0  0  0
  6 27  1  0  0  0
 27 28  1  0  0  0
 28 29  1  0  0  0
 27 30  1  0  0  0
 30 31  2  0  0  0
 31 32  1  0  0  0
 32 33  2  0  0  0
 33 34  1  0  0  0
 33 35  1  0  0  0
 35 36  2  0  0  0
  3 37  1  0  0  0
 37 38  2  0  0  0
 37 39  2  0  0  0
 37 40  1  0  0  0
 40 41  2  0  0  0
 41 42  1  0  0  0
 42 43  2  0  0  0
 43 44  1  0  0  0
 44 45  2  0  0  0
 45 46  1  0  0  0
 13 14  1  0  0  0
 14 15  2  0  0  0
 14 16  1  0  0  0
 16 17  2  0  0  0
 16 18  1  0  0  0
 18 20  1  0  0  0
 20 21  1  0  0  0
 21 22  2  0  0  0
 22 23  1  0  0  0
 23 24  2  0  0  0
 24 25  1  0  0  0
 25 26  2  0  0  0
  5  1  1  0  0  0
 29 27  1  0  0  0
 36 30  1  0  0  0
 45 40  1  0  0  0
 26 21  1  0  0  0
  8 11  1  0  0  0
 18 19  1  0  0  0
M  END
> <minimizedAffinity>
-8.14033

> <CNNscore>
0.2273105234

> <CNNaffinity>
6.7266173363

> <CNN_VS>
1.5290309191

> <CNNaffinity_variance>
0.3530748487

$$$$
[H]c1c([H])c([H])c(C([H])([H])N([H])C(=O)C(=O)[C@@]([H])(N([H])C(=O)[C@@]2([H])N(C(=O)C3(c4c([H])c([H])c(Cl)c([H])c4[H])C([H])([H])C3([H])[H])C([H])([H])[C@]([H])(S(=O)(=O)c3c([H])c([H])c([H])c([H])c3Cl)C2([H])[H])C([H])([H])[H])c([H])c1[H]


 46 50  0  0  0  0  0  0  0  0999 V2000
  -18.6262   17.9018  -19.1594 C   0  0  0  0  0  0  0  0  0  0  0  0
  -19.4079   19.2199  -19.2181 C   0  0  0  0  0  0  0  0  0  0  0  0
  -20.8029   18.7858  -19.6502 C   0  0  0  0  0  0  0  0  0  0  0  0
  -20.6277   17.3357  -20.0573 C   0  0  0  0  0  0  0  0  0  0  0  0
  -19.1498   17.2581  -20.3349 N   0  0  0  0  0  0  0  0  0  0  0  0
  -18.6845   16.7125  -21.5083 C   0  0  0  0  0  0  0  0  0  0  0  0
  -19.6226   16.2903  -22.3229 O   0  0  0  0  0  0  0  0  0  0  0  0
  -19.5971   17.9203  -16.8576 N   0  0  0  0  0  0  0  0  0  0  0  0
  -18.8755   17.2538  -17.8830 C   0  0  0  0  0  0  0  0  0  0  0  0
  -18.4872   16.0712  -17.5822 O   0  0  0  0  0  0  0  0  0  0  0  0
  -19.9268   18.8959  -17.0674 H   0  0  0  0  0  0  0  0  0  0  0  0
  -19.6761   18.2748  -14.4208 C   0  0  0  0  0  0  0  0  0  0  0  0
  -19.8880   17.3290  -15.5528 C   0  0  0  0  0  0  0  0  0  0  0  0
  -21.2990   16.8102  -15.5466 C   0  0  0  0  0  0  0  0  0  0  0  0
  -22.1779   17.4930  -14.9851 O   0  0  0  0  0  0  0  0  0  0  0  0
  -21.6320   15.5630  -16.1679 C   0  0  0  0  0  0  0  0  0  0  0  0
  -22.7600   15.3962  -16.6474 O   0  0  0  0  0  0  0  0  0  0  0  0
  -20.6747   14.5176  -16.2316 N   0  0  0  0  0  0  0  0  0  0  0  0
  -19.7319   14.7149  -15.7822 H   0  0  0  0  0  0  0  0  0  0  0  0
  -20.8203   13.2293  -16.8203 C   0  0  0  0  0  0  0  0  0  0  0  0
  -20.0215   13.0250  -18.0292 C   0  0  0  0  0  0  0  0  0  0  0  0
  -20.4060   13.6877  -19.1708 C   0  0  0  0  0  0  0  0  0  0  0  0
  -19.6890   13.4953  -20.3295 C   0  0  0  0  0  0  0  0  0  0  0  0
  -18.6054   12.6598  -20.3663 C   0  0  0  0  0  0  0  0  0  0  0  0
  -18.2373   12.0035  -19.2043 C   0  0  0  0  0  0  0  0  0  0  0  0
  -18.9351   12.1811  -18.0436 C   0  0  0  0  0  0  0  0  0  0  0  0
  -17.3493   16.5008  -22.0904 C   0  0  0  0  0  0  0  0  0  0  0  0
  -16.3269   15.9029  -21.1348 C   0  0  0  0  0  0  0  0  0  0  0  0
  -16.2752   17.3507  -21.4874 C   0  0  0  0  0  0  0  0  0  0  0  0
  -17.2159   15.9126  -23.4369 C   0  0  0  0  0  0  0  0  0  0  0  0
  -16.5430   16.7012  -24.4039 C   0  0  0  0  0  0  0  0  0  0  0  0
  -16.3505   16.2638  -25.6917 C   0  0  0  0  0  0  0  0  0  0  0  0
  -16.8002   15.0349  -26.1153 C   0  0  0  0  0  0  0  0  0  0  0  0
  -16.5424   14.4953  -27.7772 Cl  0  0  0  0  0  0  0  0  0  0  0  0
  -17.4497   14.2658  -25.1920 C   0  0  0  0  0  0  0  0  0  0  0  0
  -17.6494   14.7108  -23.8681 C   0  0  0  0  0  0  0  0  0  0  0  0
  -21.2533   19.7735  -21.0395 S   0  0  0  0  0  0  0  0  0  0  0  0
  -20.0477   20.4874  -21.5908 O   0  0  0  0  0  0  0  0  0  0  0  0
  -22.2286   20.8431  -20.5587 O   0  0  0  0  0  0  0  0  0  0  0  0
  -22.0695   18.8852  -22.2865 C   0  0  0  0  0  0  0  0  0  0  0  0
  -21.6203   18.7019  -23.5614 C   0  0  0  0  0  0  0  0  0  0  0  0
  -22.3529   17.9580  -24.4671 C   0  0  0  0  0  0  0  0  0  0  0  0
  -23.5650   17.3758  -24.1120 C   0  0  0  0  0  0  0  0  0  0  0  0
  -24.0284   17.5530  -22.8330 C   0  0  0  0  0  0  0  0  0  0  0  0
  -23.2838   18.2976  -21.9448 C   0  0  0  0  0  0  0  0  0  0  0  0
  -23.9321   18.4930  -20.3239 Cl  0  0  0  0  0  0  0  0  0  0  0  0
 12 13  1  0  0  0
 13  8  1  0  0  0
  8  9  1  0  0  0
  9 10  2  0  0  0
  9  1  1  0  0  0
  1  2  1  0  0  0
  2  3  1  0  0  0
  3  4  1  0  0  0
  4  5  1  0  0  0
  5  6  1  0  0  0
  6  7  2  0  0  0
  6 27  1  0  0  0
 27 28  1  0  0  0
 28 29  1  0  0  0
 27 30  1  0  0  0
 30 31  2  0  0  0
 31 32  1  0  0  0
 32 33  2  0  0  0
 33 34  1  0  0  0
 33 35  1  0  0  0
 35 36  2  0  0  0
  3 37  1  0  0  0
 37 38  2  0  0  0
 37 39  2  0  0  0
 37 40  1  0  0  0
 40 41  2  0  0  0
 41 42  1  0  0  0
 42 43  2  0  0  0
 43 44  1  0  0  0
 44 45  2  0  0  0
 45 46  1  0  0  0
 13 14  1  0  0  0
 14 15  2  0  0  0
 14 16  1  0  0  0
 16 17  2  0  0  0
 16 18  1  0  0  0
 18 20  1  0  0  0
 20 21  1  0  0  0
 21 22  2  0  0  0
 22 23  1  0  0  0
 23 24  2  0  0  0
 24 25  1  0  0  0
 25 26  2  0  0  0
  5  1  1  0  0  0
 29 27  1  0  0  0
 36 30  1  0  0  0
 45 40  1  0  0  0
 26 21  1  0  0  0
  8 11  1  0  0  0
 18 19  1  0  0  0
M  END
> <minimizedAffinity>
-9.02634

> <CNNscore>
0.2036352903

> <CNNaffinity>
7.0952086449

> <CNN_VS>
1.4448348284

> <CNNaffinity_variance>
0.5567399263

$$$$
[H]c1c([H])c([H])c(C([H])([H])N([H])C(=O)C(=O)[C@@]([H])(N([H])C(=O)[C@@]2([H])N(C(=O)C3(c4c([H])c([H])c(Cl)c([H])c4[H])C([H])([H])C3([H])[H])C([H])([H])[C@]([H])(S(=O)(=O)c3c([H])c([H])c([H])c([H])c3Cl)C2([H])[H])C([H])([H])[H])c([H])c1[H]


 46 50  0  0  0  0  0  0  0  0999 V2000
  -19.7175   14.3143  -17.2010 C   0  0  0  0  0  0  0  0  0  0  0  0
  -19.9688   15.4626  -16.2160 C   0  0  0  0  0  0  0  0  0  0  0  0
  -21.3760   15.9292  -16.5671 C   0  0  0  0  0  0  0  0  0  0  0  0
  -21.6883   15.2121  -17.8661 C   0  0  0  0  0  0  0  0  0  0  0  0
  -20.3148   14.8755  -18.3835 N   0  0  0  0  0  0  0  0  0  0  0  0
  -19.9587   15.1795  -19.6765 C   0  0  0  0  0  0  0  0  0  0  0  0
  -20.8987   15.7697  -20.3765 O   0  0  0  0  0  0  0  0  0  0  0  0
  -20.7182   13.0116  -15.3188 N   0  0  0  0  0  0  0  0  0  0  0  0
  -20.3080   13.0950  -16.6756 C   0  0  0  0  0  0  0  0  0  0  0  0
  -20.5074   12.0322  -17.3614 O   0  0  0  0  0  0  0  0  0  0  0  0
  -20.5644   13.8642  -14.7238 H   0  0  0  0  0  0  0  0  0  0  0  0
  -22.0408   10.9712  -15.7161 C   0  0  0  0  0  0  0  0  0  0  0  0
  -21.3224   11.8206  -14.7244 C   0  0  0  0  0  0  0  0  0  0  0  0
  -20.2592   11.0228  -14.0221 C   0  0  0  0  0  0  0  0  0  0  0  0
  -19.5031   10.3097  -14.7105 O   0  0  0  0  0  0  0  0  0  0  0  0
  -20.1134   11.0755  -12.5980 C   0  0  0  0  0  0  0  0  0  0  0  0
  -20.9823   11.6253  -11.9103 O   0  0  0  0  0  0  0  0  0  0  0  0
  -18.9746   10.5034  -11.9740 N   0  0  0  0  0  0  0  0  0  0  0  0
  -18.2536   10.0658  -12.6209 H   0  0  0  0  0  0  0  0  0  0  0  0
  -18.6720   10.4459  -10.5838 C   0  0  0  0  0  0  0  0  0  0  0  0
  -17.8151    9.3238  -10.1992 C   0  0  0  0  0  0  0  0  0  0  0  0
  -18.0354    8.1111  -10.8083 C   0  0  0  0  0  0  0  0  0  0  0  0
  -17.2618    7.0314  -10.4483 C   0  0  0  0  0  0  0  0  0  0  0  0
  -16.2819    7.1421   -9.4991 C   0  0  0  0  0  0  0  0  0  0  0  0
  -16.0786    8.3733   -8.8996 C   0  0  0  0  0  0  0  0  0  0  0  0
  -16.8350    9.4575   -9.2430 C   0  0  0  0  0  0  0  0  0  0  0  0
  -18.7350   15.0118  -20.4770 C   0  0  0  0  0  0  0  0  0  0  0  0
  -17.7180   16.1338  -20.3259 C   0  0  0  0  0  0  0  0  0  0  0  0
  -18.5601   16.0375  -21.5527 C   0  0  0  0  0  0  0  0  0  0  0  0
  -18.0638   13.6992  -20.5331 C   0  0  0  0  0  0  0  0  0  0  0  0
  -17.5855   13.2911  -21.8037 C   0  0  0  0  0  0  0  0  0  0  0  0
  -16.9393   12.0927  -21.9862 C   0  0  0  0  0  0  0  0  0  0  0  0
  -16.7198   11.2211  -20.9452 C   0  0  0  0  0  0  0  0  0  0  0  0
  -15.8881    9.6847  -21.2052 Cl  0  0  0  0  0  0  0  0  0  0  0  0
  -17.1758   11.6038  -19.7158 C   0  0  0  0  0  0  0  0  0  0  0  0
  -17.8398   12.8338  -19.5236 C   0  0  0  0  0  0  0  0  0  0  0  0
  -21.3034   17.6727  -16.8192 S   0  0  0  0  0  0  0  0  0  0  0  0
  -22.4177   18.1201  -17.7277 O   0  0  0  0  0  0  0  0  0  0  0  0
  -19.9905   17.9904  -17.5274 O   0  0  0  0  0  0  0  0  0  0  0  0
  -21.3031   18.5871  -15.3447 C   0  0  0  0  0  0  0  0  0  0  0  0
  -21.3980   18.0719  -14.0851 C   0  0  0  0  0  0  0  0  0  0  0  0
  -21.3708   18.9013  -12.9799 C   0  0  0  0  0  0  0  0  0  0  0  0
  -21.2472   20.2802  -13.1136 C   0  0  0  0  0  0  0  0  0  0  0  0
  -21.1515   20.8113  -14.3748 C   0  0  0  0  0  0  0  0  0  0  0  0
  -21.1804   19.9681  -15.4638 C   0  0  0  0  0  0  0  0  0  0  0  0
  -21.0589   20.7082  -17.0524 Cl  0  0  0  0  0  0  0  0  0  0  0  0
 12 13  1  0  0  0
 13  8  1  0  0  0
  8  9  1  0  0  0
  9 10  2  0  0  0
  9  1  1  0  0  0
  1  2  1  0  0  0
  2  3  1  0  0  0
  3  4  1  0  0  0
  4  5  1  0  0  0
  5  6  1  0  0  0
  6  7  2  0  0  0
  6 27  1  0  0  0
 27 28  1  0  0  0
 28 29  1  0  0  0
 27 30  1  0  0  0
 30 31  2  0  0  0
 31 32  1  0  0  0
 32 33  2  0  0  0
 33 34  1  0  0  0
 33 35  1  0  0  0
 35 36  2  0  0  0
  3 37  1  0  0  0
 37 38  2  0  0  0
 37 39  2  0  0  0
 37 40  1  0  0  0
 40 41  2  0  0  0
 41 42  1  0  0  0
 42 43  2  0  0  0
 43 44  1  0  0  0
 44 45  2  0  0  0
 45 46  1  0  0  0
 13 14  1  0  0  0
 14 15  2  0  0  0
 14 16  1  0  0  0
 16 17  2  0  0  0
 16 18  1  0  0  0
 18 20  1  0  0  0
 20 21  1  0  0  0
 21 22  2  0  0  0
 22 23  1  0  0  0
 23 24  2  0  0  0
 24 25  1  0  0  0
 25 26  2  0  0  0
  5  1  1  0  0  0
 29 27  1  0  0  0
 36 30  1  0  0  0
 45 40  1  0  0  0
 26 21  1  0  0  0
  8 11  1  0  0  0
 18 19  1  0  0  0
M  END
> <minimizedAffinity>
-8.75858

> <CNNscore>
0.2015169412

> <CNNaffinity>
6.6489701271

> <CNN_VS>
1.3398801088

> <CNNaffinity_variance>
0.2070840150

$$$$
[H]c1c([H])c([H])c(C([H])([H])N([H])C(=O)C(=O)[C@@]([H])(N([H])C(=O)[C@@]2([H])N(C(=O)C3(c4c([H])c([H])c(Cl)c([H])c4[H])C([H])([H])C3([H])[H])C([H])([H])[C@]([H])(S(=O)(=O)c3c([H])c([H])c([H])c([H])c3Cl)C2([H])[H])C([H])([H])[H])c([H])c1[H]


 46 50  0  0  0  0  0  0  0  0999 V2000
  -18.9766   13.9480  -21.4635 C   0  0  0  0  0  0  0  0  0  0  0  0
  -18.1464   14.1445  -22.7379 C   0  0  0  0  0  0  0  0  0  0  0  0
  -16.8692   14.8024  -22.2310 C   0  0  0  0  0  0  0  0  0  0  0  0
  -17.1876   15.1662  -20.7939 C   0  0  0  0  0  0  0  0  0  0  0  0
  -18.6932   15.1910  -20.7966 N   0  0  0  0  0  0  0  0  0  0  0  0
  -19.3777   16.2665  -20.2810 C   0  0  0  0  0  0  0  0  0  0  0  0
  -18.6138   17.2248  -19.8118 O   0  0  0  0  0  0  0  0  0  0  0  0
  -18.7962   12.5308  -19.4139 N   0  0  0  0  0  0  0  0  0  0  0  0
  -18.5512   12.7279  -20.7986 C   0  0  0  0  0  0  0  0  0  0  0  0
  -17.9466   11.7594  -21.3784 O   0  0  0  0  0  0  0  0  0  0  0  0
  -19.2858   13.3084  -18.9038 H   0  0  0  0  0  0  0  0  0  0  0  0
  -16.9655   11.3331  -18.2806 C   0  0  0  0  0  0  0  0  0  0  0  0
  -18.4008   11.3289  -18.6819 C   0  0  0  0  0  0  0  0  0  0  0  0
  -19.2830   11.1702  -17.4751 C   0  0  0  0  0  0  0  0  0  0  0  0
  -19.9976   12.1330  -17.1340 O   0  0  0  0  0  0  0  0  0  0  0  0
  -19.3064    9.9464  -16.7308 C   0  0  0  0  0  0  0  0  0  0  0  0
  -18.8697    8.9075  -17.2408 O   0  0  0  0  0  0  0  0  0  0  0  0
  -19.8323    9.9207  -15.4130 N   0  0  0  0  0  0  0  0  0  0  0  0
  -20.2122   10.8406  -15.0400 H   0  0  0  0  0  0  0  0  0  0  0  0
  -19.9200    8.8112  -14.5250 C   0  0  0  0  0  0  0  0  0  0  0  0
  -19.4719    9.0938  -13.1609 C   0  0  0  0  0  0  0  0  0  0  0  0
  -19.7915   10.3176  -12.6220 C   0  0  0  0  0  0  0  0  0  0  0  0
  -19.3618   10.6213  -11.3505 C   0  0  0  0  0  0  0  0  0  0  0  0
  -18.6251    9.7318  -10.6160 C   0  0  0  0  0  0  0  0  0  0  0  0
  -18.3157    8.5058  -11.1797 C   0  0  0  0  0  0  0  0  0  0  0  0
  -18.7331    8.1844  -12.4399 C   0  0  0  0  0  0  0  0  0  0  0  0
  -20.8011   16.6148  -20.1433 C   0  0  0  0  0  0  0  0  0  0  0  0
  -21.1757   17.2418  -18.8082 C   0  0  0  0  0  0  0  0  0  0  0  0
  -21.5285   15.8232  -19.1022 C   0  0  0  0  0  0  0  0  0  0  0  0
  -21.5086   17.2815  -21.2531 C   0  0  0  0  0  0  0  0  0  0  0  0
  -22.8826   16.9659  -21.4030 C   0  0  0  0  0  0  0  0  0  0  0  0
  -23.6522   17.5240  -22.3946 C   0  0  0  0  0  0  0  0  0  0  0  0
  -23.1322   18.4212  -23.2981 C   0  0  0  0  0  0  0  0  0  0  0  0
  -24.1416   19.1239  -24.5658 Cl  0  0  0  0  0  0  0  0  0  0  0  0
  -21.8093   18.7335  -23.1632 C   0  0  0  0  0  0  0  0  0  0  0  0
  -21.0150   18.1630  -22.1461 C   0  0  0  0  0  0  0  0  0  0  0  0
  -16.6065   16.2532  -23.1980 S   0  0  0  0  0  0  0  0  0  0  0  0
  -15.6496   17.1840  -22.5014 O   0  0  0  0  0  0  0  0  0  0  0  0
  -17.9392   16.9852  -23.3178 O   0  0  0  0  0  0  0  0  0  0  0  0
  -16.0778   15.9213  -24.8168 C   0  0  0  0  0  0  0  0  0  0  0  0
  -16.7252   16.2892  -25.9598 C   0  0  0  0  0  0  0  0  0  0  0  0
  -16.1973   15.9816  -27.1995 C   0  0  0  0  0  0  0  0  0  0  0  0
  -14.9966   15.2905  -27.3229 C   0  0  0  0  0  0  0  0  0  0  0  0
  -14.3357   14.9141  -26.1812 C   0  0  0  0  0  0  0  0  0  0  0  0
  -14.8780   15.2301  -24.9548 C   0  0  0  0  0  0  0  0  0  0  0  0
  -13.9878   14.7169  -23.5300 Cl  0  0  0  0  0  0  0  0  0  0  0  0
 12 13  1  0  0  0
 13  8  1  0  0  0
  8  9  1  0  0  0
  9 10  2  0  0  0
  9  1  1  0  0  0
  1  2  1  0  0  0
  2  3  1  0  0  0
  3  4  1  0  0  0
  4  5  1  0  0  0
  5  6  1  0  0  0
  6  7  2  0  0  0
  6 27  1  0  0  0
 27 28  1  0  0  0
 28 29  1  0  0  0
 27 30  1  0  0  0
 30 31  2  0  0  0
 31 32  1  0  0  0
 32 33  2  0  0  0
 33 34  1  0  0  0
 33 35  1  0  0  0
 35 36  2  0  0  0
  3 37  1  0  0  0
 37 38  2  0  0  0
 37 39  2  0  0  0
 37 40  1  0  0  0
 40 41  2  0  0  0
 41 42  1  0  0  0
 42 43  2  0  0  0
 43 44  1  0  0  0
 44 45  2  0  0  0
 45 46  1  0  0  0
 13 14  1  0  0  0
 14 15  2  0  0  0
 14 16  1  0  0  0
 16 17  2  0  0  0
 16 18  1  0  0  0
 18 20  1  0  0  0
 20 21  1  0  0  0
 21 22  2  0  0  0
 22 23  1  0  0  0
 23 24  2  0  0  0
 24 25  1  0  0  0
 25 26  2  0  0  0
  5  1  1  0  0  0
 29 27  1  0  0  0
 36 30  1  0  0  0
 45 40  1  0  0  0
 26 21  1  0  0  0
  8 11  1  0  0  0
 18 19  1  0  0  0
M  END
> <minimizedAffinity>
-8.53815

> <CNNscore>
0.1786132753

> <CNNaffinity>
7.3195457458

> <CNN_VS>
1.3073680401

> <CNNaffinity_variance>
0.0854955539

$$$$
[H]c1c([H])c([H])c(C([H])([H])N([H])C(=O)C(=O)[C@@]([H])(N([H])C(=O)[C@@]2([H])N(C(=O)C3(c4c([H])c([H])c(Cl)c([H])c4[H])C([H])([H])C3([H])[H])C([H])([H])[C@]([H])(S(=O)(=O)c3c([H])c([H])c([H])c([H])c3Cl)C2([H])[H])C([H])([H])[H])c([H])c1[H]


 46 50  0  0  0  0  0  0  0  0999 V2000
  -18.9435   18.1122  -18.9598 C   0  0  0  0  0  0  0  0  0  0  0  0
  -19.6788   19.4490  -19.1151 C   0  0  0  0  0  0  0  0  0  0  0  0
  -21.0330   19.0447  -19.6843 C   0  0  0  0  0  0  0  0  0  0  0  0
  -20.8562   17.5847  -20.0535 C   0  0  0  0  0  0  0  0  0  0  0  0
  -19.3601   17.4648  -20.1753 N   0  0  0  0  0  0  0  0  0  0  0  0
  -18.7911   16.8900  -21.2875 C   0  0  0  0  0  0  0  0  0  0  0  0
  -19.6511   16.4801  -22.1898 O   0  0  0  0  0  0  0  0  0  0  0  0
  -20.0123   16.2387  -17.6991 N   0  0  0  0  0  0  0  0  0  0  0  0
  -19.3410   17.4899  -17.7083 C   0  0  0  0  0  0  0  0  0  0  0  0
  -19.1265   17.9908  -16.5495 O   0  0  0  0  0  0  0  0  0  0  0  0
  -20.2104   15.8002  -18.6335 H   0  0  0  0  0  0  0  0  0  0  0  0
  -21.7850   15.9797  -16.0078 C   0  0  0  0  0  0  0  0  0  0  0  0
  -20.4372   15.5535  -16.4797 C   0  0  0  0  0  0  0  0  0  0  0  0
  -20.4064   14.0681  -16.7089 C   0  0  0  0  0  0  0  0  0  0  0  0
  -21.4752   13.4331  -16.6172 O   0  0  0  0  0  0  0  0  0  0  0  0
  -19.1830   13.3928  -17.0245 C   0  0  0  0  0  0  0  0  0  0  0  0
  -18.0993   13.9438  -16.7962 O   0  0  0  0  0  0  0  0  0  0  0  0
  -19.2098   12.0966  -17.6014 N   0  0  0  0  0  0  0  0  0  0  0  0
  -20.1716   11.6869  -17.7934 H   0  0  0  0  0  0  0  0  0  0  0  0
  -18.1052   11.2738  -17.9618 C   0  0  0  0  0  0  0  0  0  0  0  0
  -17.6594   11.4351  -19.3463 C   0  0  0  0  0  0  0  0  0  0  0  0
  -16.6132   10.6544  -19.7777 C   0  0  0  0  0  0  0  0  0  0  0  0
  -16.1557   10.8021  -21.0671 C   0  0  0  0  0  0  0  0  0  0  0  0
  -16.7201   11.7082  -21.9238 C   0  0  0  0  0  0  0  0  0  0  0  0
  -17.7724   12.4831  -21.4668 C   0  0  0  0  0  0  0  0  0  0  0  0
  -18.2419   12.3516  -20.1909 C   0  0  0  0  0  0  0  0  0  0  0  0
  -17.4091   16.6353  -21.7254 C   0  0  0  0  0  0  0  0  0  0  0  0
  -16.5636   15.8478  -20.7349 C   0  0  0  0  0  0  0  0  0  0  0  0
  -16.3670   17.3171  -20.8955 C   0  0  0  0  0  0  0  0  0  0  0  0
  -17.1421   16.1967  -23.1085 C   0  0  0  0  0  0  0  0  0  0  0  0
  -16.2652   17.0112  -23.8684 C   0  0  0  0  0  0  0  0  0  0  0  0
  -15.9338   16.7079  -25.1665 C   0  0  0  0  0  0  0  0  0  0  0  0
  -16.4346   15.5957  -25.8020 C   0  0  0  0  0  0  0  0  0  0  0  0
  -15.9953   15.2277  -27.4728 Cl  0  0  0  0  0  0  0  0  0  0  0  0
  -17.2802   14.8028  -25.0796 C   0  0  0  0  0  0  0  0  0  0  0  0
  -17.6232   15.1103  -23.7459 C   0  0  0  0  0  0  0  0  0  0  0  0
  -21.3104   20.0229  -21.1247 S   0  0  0  0  0  0  0  0  0  0  0  0
  -20.0334   20.6908  -21.5614 O   0  0  0  0  0  0  0  0  0  0  0  0
  -22.2942   21.1293  -20.7584 O   0  0  0  0  0  0  0  0  0  0  0  0
  -22.0257   19.1397  -22.4356 C   0  0  0  0  0  0  0  0  0  0  0  0
  -21.4462   18.8990  -23.6469 C   0  0  0  0  0  0  0  0  0  0  0  0
  -22.1094   18.1657  -24.6127 C   0  0  0  0  0  0  0  0  0  0  0  0
  -23.3818   17.6525  -24.3841 C   0  0  0  0  0  0  0  0  0  0  0  0
  -23.9760   17.8879  -23.1703 C   0  0  0  0  0  0  0  0  0  0  0  0
  -23.2989   18.6209  -22.2206 C   0  0  0  0  0  0  0  0  0  0  0  0
  -24.1141   18.8929  -20.6885 Cl  0  0  0  0  0  0  0  0  0  0  0  0
 12 13  1  0  0  0
 13  8  1  0  0  0
  8  9  1  0  0  0
  9 10  2  0  0  0
  9  1  1  0  0  0
  1  2  1  0  0  0
  2  3  1  0  0  0
  3  4  1  0  0  0
  4  5  1  0  0  0
  5  6  1  0  0  0
  6  7  2  0  0  0
  6 27  1  0  0  0
 27 28  1  0  0  0
 28 29  1  0  0  0
 27 30  1  0  0  0
 30 31  2  0  0  0
 31 32  1  0  0  0
 32 33  2  0  0  0
 33 34  1  0  0  0
 33 35  1  0  0  0
 35 36  2  0  0  0
  3 37  1  0  0  0
 37 38  2  0  0  0
 37 39  2  0  0  0
 37 40  1  0  0  0
 40 41  2  0  0  0
 41 42  1  0  0  0
 42 43  2  0  0  0
 43 44  1  0  0  0
 44 45  2  0  0  0
 45 46  1  0  0  0
 13 14  1  0  0  0
 14 15  2  0  0  0
 14 16  1  0  0  0
 16 17  2  0  0  0
 16 18  1  0  0  0
 18 20  1  0  0  0
 20 21  1  0  0  0
 21 22  2  0  0  0
 22 23  1  0  0  0
 23 24  2  0  0  0
 24 25  1  0  0  0
 25 26  2  0  0  0
  5  1  1  0  0  0
 29 27  1  0  0  0
 36 30  1  0  0  0
 45 40  1  0  0  0
 26 21  1  0  0  0
  8 11  1  0  0  0
 18 19  1  0  0  0
M  END
> <minimizedAffinity>
-9.34523

> <CNNscore>
0.1724741012

> <CNNaffinity>
7.2221574783

> <CNN_VS>
1.2456351519

> <CNNaffinity_variance>
0.7121677995

$$$$
[H]c1c([H])c([H])c(C([H])([H])N([H])C(=O)C(=O)[C@@]([H])(N([H])C(=O)[C@@]2([H])N(C(=O)C3(c4c([H])c([H])c(Cl)c([H])c4[H])C([H])([H])C3([H])[H])C([H])([H])[C@]([H])(S(=O)(=O)c3c([H])c([H])c([H])c([H])c3Cl)C2([H])[H])C([H])([H])[H])c([H])c1[H]


 46 50  0  0  0  0  0  0  0  0999 V2000
  -17.7352   14.9373  -19.7039 C   0  0  0  0  0  0  0  0  0  0  0  0
  -17.2101   15.4116  -21.0646 C   0  0  0  0  0  0  0  0  0  0  0  0
  -18.4266   15.2946  -21.9743 C   0  0  0  0  0  0  0  0  0  0  0  0
  -19.4347   14.5241  -21.1440 C   0  0  0  0  0  0  0  0  0  0  0  0
  -18.5565   13.8364  -20.1324 N   0  0  0  0  0  0  0  0  0  0  0  0
  -18.6754   12.4856  -19.9039 C   0  0  0  0  0  0  0  0  0  0  0  0
  -19.5905   11.8882  -20.6303 O   0  0  0  0  0  0  0  0  0  0  0  0
  -18.4973   17.3160  -19.6571 N   0  0  0  0  0  0  0  0  0  0  0  0
  -18.4036   16.0419  -19.0373 C   0  0  0  0  0  0  0  0  0  0  0  0
  -18.9495   15.9676  -17.8814 O   0  0  0  0  0  0  0  0  0  0  0  0
  -18.0548   17.4156  -20.6052 H   0  0  0  0  0  0  0  0  0  0  0  0
  -18.2209   19.3498  -18.2942 C   0  0  0  0  0  0  0  0  0  0  0  0
  -19.1575   18.4692  -19.0481 C   0  0  0  0  0  0  0  0  0  0  0  0
  -19.8713   19.2526  -20.1143 C   0  0  0  0  0  0  0  0  0  0  0  0
  -20.5740   20.2217  -19.7661 O   0  0  0  0  0  0  0  0  0  0  0  0
  -19.7520   18.8995  -21.4976 C   0  0  0  0  0  0  0  0  0  0  0  0
  -18.6592   19.0049  -22.0675 O   0  0  0  0  0  0  0  0  0  0  0  0
  -20.8829   18.4335  -22.2169 N   0  0  0  0  0  0  0  0  0  0  0  0
  -21.7973   18.3865  -21.6770 H   0  0  0  0  0  0  0  0  0  0  0  0
  -20.9485   18.0235  -23.5788 C   0  0  0  0  0  0  0  0  0  0  0  0
  -22.1037   18.5447  -24.3105 C   0  0  0  0  0  0  0  0  0  0  0  0
  -22.5530   19.8030  -23.9864 C   0  0  0  0  0  0  0  0  0  0  0  0
  -23.6530   20.3094  -24.6399 C   0  0  0  0  0  0  0  0  0  0  0  0
  -24.3054   19.5865  -25.6019 C   0  0  0  0  0  0  0  0  0  0  0  0
  -23.8346   18.3219  -25.9112 C   0  0  0  0  0  0  0  0  0  0  0  0
  -22.7440   17.8011  -25.2748 C   0  0  0  0  0  0  0  0  0  0  0  0
  -17.9891   11.5223  -19.0278 C   0  0  0  0  0  0  0  0  0  0  0  0
  -16.6004   11.9510  -18.5764 C   0  0  0  0  0  0  0  0  0  0  0  0
  -16.7642   10.9092  -19.6305 C   0  0  0  0  0  0  0  0  0  0  0  0
  -18.7235   10.8756  -17.9236 C   0  0  0  0  0  0  0  0  0  0  0  0
  -18.4015    9.5198  -17.6630 C   0  0  0  0  0  0  0  0  0  0  0  0
  -19.0118    8.8081  -16.6591 C   0  0  0  0  0  0  0  0  0  0  0  0
  -19.9702    9.3718  -15.8496 C   0  0  0  0  0  0  0  0  0  0  0  0
  -20.7424    8.4356  -14.5663 Cl  0  0  0  0  0  0  0  0  0  0  0  0
  -20.2885   10.6781  -16.0909 C   0  0  0  0  0  0  0  0  0  0  0  0
  -19.6641   11.4131  -17.1207 C   0  0  0  0  0  0  0  0  0  0  0  0
  -17.9378   14.3598  -23.3870 S   0  0  0  0  0  0  0  0  0  0  0  0
  -18.9114   14.5656  -24.5171 O   0  0  0  0  0  0  0  0  0  0  0  0
  -17.9889   12.8821  -23.0127 O   0  0  0  0  0  0  0  0  0  0  0  0
  -16.3134   14.6826  -23.9040 C   0  0  0  0  0  0  0  0  0  0  0  0
  -15.2570   13.8256  -23.8009 C   0  0  0  0  0  0  0  0  0  0  0  0
  -14.0065   14.1886  -24.2643 C   0  0  0  0  0  0  0  0  0  0  0  0
  -13.7842   15.4319  -24.8469 C   0  0  0  0  0  0  0  0  0  0  0  0
  -14.8380   16.3033  -24.9562 C   0  0  0  0  0  0  0  0  0  0  0  0
  -16.0767   15.9231  -24.4885 C   0  0  0  0  0  0  0  0  0  0  0  0
  -17.3848   17.0841  -24.6520 Cl  0  0  0  0  0  0  0  0  0  0  0  0
 12 13  1  0  0  0
 13  8  1  0  0  0
  8  9  1  0  0  0
  9 10  2  0  0  0
  9  1  1  0  0  0
  1  2  1  0  0  0
  2  3  1  0  0  0
  3  4  1  0  0  0
  4  5  1  0  0  0
  5  6  1  0  0  0
  6  7  2  0  0  0
  6 27  1  0  0  0
 27 28  1  0  0  0
 28 29  1  0  0  0
 27 30  1  0  0  0
 30 31  2  0  0  0
 31 32  1  0  0  0
 32 33  2  0  0  0
 33 34  1  0  0  0
 33 35  1  0  0  0
 35 36  2  0  0  0
  3 37  1  0  0  0
 37 38  2  0  0  0
 37 39  2  0  0  0
 37 40  1  0  0  0
 40 41  2  0  0  0
 41 42  1  0  0  0
 42 43  2  0  0  0
 43 44  1  0  0  0
 44 45  2  0  0  0
 45 46  1  0  0  0
 13 14  1  0  0  0
 14 15  2  0  0  0
 14 16  1  0  0  0
 16 17  2  0  0  0
 16 18  1  0  0  0
 18 20  1  0  0  0
 20 21  1  0  0  0
 21 22  2  0  0  0
 22 23  1  0  0  0
 23 24  2  0  0  0
 24 25  1  0  0  0
 25 26  2  0  0  0
  5  1  1  0  0  0
 29 27  1  0  0  0
 36 30  1  0  0  0
 45 40  1  0  0  0
 26 21  1  0  0  0
  8 11  1  0  0  0
 18 19  1  0  0  0
M  END
> <minimizedAffinity>
-7.83103

> <CNNscore>
0.1627564281

> <CNNaffinity>
7.1881699562

> <CNN_VS>
1.1699209213

> <CNNaffinity_variance>
0.1186946779

$$$$
[H]OC(=O)c1c([H])c([H])c(-c2c([H])c([H])c(N3C(=O)N(c4nc([H])nc(C([H])([H])[H])c4[H])C4(C3=O)C([H])([H])C([H])([H])N(C([H])([H])c3nc([H])c([H])c([H])c3C([H])([H])[H])C([H])([H])C4([H])[H])c([H])c2[H])c([H])c1[H]


 43 48  0  0  0  0  0  0  0  0999 V2000
  -17.5240   13.5527  -21.5970 N   0  0  0  0  0  0  0  0  0  0  0  0
  -17.4242   12.4685  -20.6631 C   0  0  0  0  0  0  0  0  0  0  0  0
  -16.5147   11.5997  -20.6728 O   0  0  0  0  0  0  0  0  0  0  0  0
  -18.5173   12.5345  -19.7266 N   0  0  0  0  0  0  0  0  0  0  0  0
  -19.2588   13.7006  -20.1554 C   0  0  0  0  0  0  0  0  0  0  0  0
  -20.4712   13.9090  -19.9453 O   0  0  0  0  0  0  0  0  0  0  0  0
  -18.2916   14.5588  -20.8739 C   0  0  0  0  0  0  0  0  0  0  0  0
  -17.3792   15.2272  -19.8706 C   0  0  0  0  0  0  0  0  0  0  0  0
  -17.4128   16.7377  -20.0419 C   0  0  0  0  0  0  0  0  0  0  0  0
  -18.7799   17.2242  -20.0041 N   0  0  0  0  0  0  0  0  0  0  0  0
  -19.6100   16.6411  -20.9963 C   0  0  0  0  0  0  0  0  0  0  0  0
  -18.8939   15.5756  -21.7721 C   0  0  0  0  0  0  0  0  0  0  0  0
  -14.0280   14.8652  -24.9161 C   0  0  0  0  0  0  0  0  0  0  0  0
  -15.2999   14.2013  -24.5294 C   0  0  0  0  0  0  0  0  0  0  0  0
  -15.7958   14.1981  -23.2440 C   0  0  0  0  0  0  0  0  0  0  0  0
  -16.9766   13.5806  -22.8999 C   0  0  0  0  0  0  0  0  0  0  0  0
  -17.6565   12.9599  -23.8812 N   0  0  0  0  0  0  0  0  0  0  0  0
  -17.1939   12.9472  -25.1504 C   0  0  0  0  0  0  0  0  0  0  0  0
  -16.0362   13.5573  -25.4681 N   0  0  0  0  0  0  0  0  0  0  0  0
  -18.8050   11.6745  -18.6346 C   0  0  0  0  0  0  0  0  0  0  0  0
  -18.1929   10.4261  -18.5686 C   0  0  0  0  0  0  0  0  0  0  0  0
  -18.4601    9.5703  -17.5306 C   0  0  0  0  0  0  0  0  0  0  0  0
  -19.3401    9.9246  -16.5290 C   0  0  0  0  0  0  0  0  0  0  0  0
  -19.9657   11.1523  -16.5597 C   0  0  0  0  0  0  0  0  0  0  0  0
  -19.6792   12.0021  -17.6205 C   0  0  0  0  0  0  0  0  0  0  0  0
  -19.5728    8.9475  -15.4563 C   0  0  0  0  0  0  0  0  0  0  0  0
  -19.1890    9.1932  -14.1546 C   0  0  0  0  0  0  0  0  0  0  0  0
  -19.4015    8.2775  -13.1277 C   0  0  0  0  0  0  0  0  0  0  0  0
  -20.0185    7.0692  -13.3973 C   0  0  0  0  0  0  0  0  0  0  0  0
  -20.3989    6.8317  -14.7000 C   0  0  0  0  0  0  0  0  0  0  0  0
  -20.1876    7.7421  -15.7218 C   0  0  0  0  0  0  0  0  0  0  0  0
  -20.2630    6.0777  -12.3595 C   0  0  0  0  0  0  0  0  0  0  0  0
  -20.9140    4.9060  -12.7044 O   0  0  0  0  0  0  0  0  0  0  0  0
  -19.9126    6.2329  -11.1666 O   0  0  0  0  0  0  0  0  0  0  0  0
  -21.9188    4.8347  -12.5680 H   0  0  0  0  0  0  0  0  0  0  0  0
  -18.7150   18.6541  -19.9921 C   0  0  0  0  0  0  0  0  0  0  0  0
  -19.3135   19.3119  -18.8394 C   0  0  0  0  0  0  0  0  0  0  0  0
  -19.5029   18.6790  -17.6886 N   0  0  0  0  0  0  0  0  0  0  0  0
  -20.0460   19.2730  -16.6239 C   0  0  0  0  0  0  0  0  0  0  0  0
  -20.4312   20.5826  -16.6926 C   0  0  0  0  0  0  0  0  0  0  0  0
  -20.2630   21.2897  -17.8496 C   0  0  0  0  0  0  0  0  0  0  0  0
  -19.6944   20.6307  -18.9301 C   0  0  0  0  0  0  0  0  0  0  0  0
  -19.4958   21.3621  -20.2025 C   0  0  0  0  0  0  0  0  0  0  0  0
 13 14  1  0  0  0
 14 15  2  0  0  0
 15 16  1  0  0  0
 16 17  2  0  0  0
 17 18  1  0  0  0
 18 19  2  0  0  0
 16  1  1  0  0  0
  1  2  1  0  0  0
  2  3  2  0  0  0
  2  4  1  0  0  0
  4  5  1  0  0  0
  5  6  2  0  0  0
  5  7  1  0  0  0
  7  8  1  0  0  0
  8  9  1  0  0  0
  9 10  1  0  0  0
 10 36  1  0  0  0
 36 37  1  0  0  0
 37 38  2  0  0  0
 38 39  1  0  0  0
 39 40  2  0  0  0
 40 41  1  0  0  0
 41 42  2  0  0  0
 42 43  1  0  0  0
 10 11  1  0  0  0
 11 12  1  0  0  0
  4 20  1  0  0  0
 20 21  2  0  0  0
 21 22  1  0  0  0
 22 23  2  0  0  0
 23 24  1  0  0  0
 24 25  2  0  0  0
 23 26  1  0  0  0
 26 27  2  0  0  0
 27 28  1  0  0  0
 28 29  2  0  0  0
 29 30  1  0  0  0
 30 31  2  0  0  0
 29 32  1  0  0  0
 32 33  1  0  0  0
 32 34  2  0  0  0
 19 14  1  0  0  0
  7  1  1  0  0  0
 12  7  1  0  0  0
 25 20  1  0  0  0
 31 26  1  0  0  0
 42 37  1  0  0  0
 33 35  1  0  0  0
M  END
> <minimizedAffinity>
-9.76885

> <CNNscore>
0.4375859797

> <CNNaffinity>
7.4567604065

> <CNN_VS>
3.2629737854

> <CNNaffinity_variance>
0.0474633463

$$$$
[H]OC(=O)c1c([H])c([H])c(-c2c([H])c([H])c(N3C(=O)N(c4nc([H])nc(C([H])([H])[H])c4[H])C4(C3=O)C([H])([H])C([H])([H])N(C([H])([H])c3nc([H])c([H])c([H])c3C([H])([H])[H])C([H])([H])C4([H])[H])c([H])c2[H])c([H])c1[H]


 43 48  0  0  0  0  0  0  0  0999 V2000
  -17.5998   13.5081  -21.5097 N   0  0  0  0  0  0  0  0  0  0  0  0
  -17.4714   12.4395  -20.5614 C   0  0  0  0  0  0  0  0  0  0  0  0
  -16.5204   11.6167  -20.5380 O   0  0  0  0  0  0  0  0  0  0  0  0
  -18.5906   12.4607  -19.6542 N   0  0  0  0  0  0  0  0  0  0  0  0
  -19.3770   13.5844  -20.1149 C   0  0  0  0  0  0  0  0  0  0  0  0
  -20.6033   13.7347  -19.9383 O   0  0  0  0  0  0  0  0  0  0  0  0
  -18.4347   14.4821  -20.8179 C   0  0  0  0  0  0  0  0  0  0  0  0
  -17.5829   15.2048  -19.7990 C   0  0  0  0  0  0  0  0  0  0  0  0
  -17.6862   16.7100  -19.9881 C   0  0  0  0  0  0  0  0  0  0  0  0
  -19.0761   17.1287  -19.9908 N   0  0  0  0  0  0  0  0  0  0  0  0
  -19.8502   16.4954  -20.9975 C   0  0  0  0  0  0  0  0  0  0  0  0
  -19.0625   15.4590  -21.7426 C   0  0  0  0  0  0  0  0  0  0  0  0
  -14.0797   14.9479  -24.7495 C   0  0  0  0  0  0  0  0  0  0  0  0
  -15.3308   14.2316  -24.3897 C   0  0  0  0  0  0  0  0  0  0  0  0
  -15.8594   14.2164  -23.1174 C   0  0  0  0  0  0  0  0  0  0  0  0
  -17.0205   13.5501  -22.7983 C   0  0  0  0  0  0  0  0  0  0  0  0
  -17.6467   12.8925  -23.7912 N   0  0  0  0  0  0  0  0  0  0  0  0
  -17.1512   12.8905  -25.0479 C   0  0  0  0  0  0  0  0  0  0  0  0
  -16.0135   13.5485  -25.3412 N   0  0  0  0  0  0  0  0  0  0  0  0
  -18.8642   11.5983  -18.5603 C   0  0  0  0  0  0  0  0  0  0  0  0
  -18.2827   10.3342  -18.5250 C   0  0  0  0  0  0  0  0  0  0  0  0
  -18.5375    9.4761  -17.4859 C   0  0  0  0  0  0  0  0  0  0  0  0
  -19.3745    9.8436  -16.4527 C   0  0  0  0  0  0  0  0  0  0  0  0
  -19.9688   11.0871  -16.4523 C   0  0  0  0  0  0  0  0  0  0  0  0
  -19.6956   11.9390  -17.5151 C   0  0  0  0  0  0  0  0  0  0  0  0
  -19.5968    8.8630  -15.3808 C   0  0  0  0  0  0  0  0  0  0  0  0
  -20.2314    7.6614  -15.6161 C   0  0  0  0  0  0  0  0  0  0  0  0
  -20.4501    6.7229  -14.6114 C   0  0  0  0  0  0  0  0  0  0  0  0
  -20.0247    6.9817  -13.3209 C   0  0  0  0  0  0  0  0  0  0  0  0
  -19.3916    8.1842  -13.0944 C   0  0  0  0  0  0  0  0  0  0  0  0
  -19.1739    9.1181  -14.0933 C   0  0  0  0  0  0  0  0  0  0  0  0
  -20.2299    6.0340  -12.2348 C   0  0  0  0  0  0  0  0  0  0  0  0
  -20.6902    4.7653  -12.5421 O   0  0  0  0  0  0  0  0  0  0  0  0
  -20.0103    6.3106  -11.0327 O   0  0  0  0  0  0  0  0  0  0  0  0
  -21.6853    4.5672  -12.4814 H   0  0  0  0  0  0  0  0  0  0  0  0
  -19.0819   18.5601  -19.9932 C   0  0  0  0  0  0  0  0  0  0  0  0
  -19.5101   19.1958  -21.2311 C   0  0  0  0  0  0  0  0  0  0  0  0
  -18.7125   19.2855  -22.2878 N   0  0  0  0  0  0  0  0  0  0  0  0
  -19.0958   19.8616  -23.4292 C   0  0  0  0  0  0  0  0  0  0  0  0
  -20.3522   20.3878  -23.5426 C   0  0  0  0  0  0  0  0  0  0  0  0
  -21.2212   20.3273  -22.4899 C   0  0  0  0  0  0  0  0  0  0  0  0
  -20.7789   19.7193  -21.3238 C   0  0  0  0  0  0  0  0  0  0  0  0
  -21.6906   19.6343  -20.1598 C   0  0  0  0  0  0  0  0  0  0  0  0
 13 14  1  0  0  0
 14 15  2  0  0  0
 15 16  1  0  0  0
 16 17  2  0  0  0
 17 18  1  0  0  0
 18 19  2  0  0  0
 16  1  1  0  0  0
  1  2  1  0  0  0
  2  3  2  0  0  0
  2  4  1  0  0  0
  4  5  1  0  0  0
  5  6  2  0  0  0
  5  7  1  0  0  0
  7  8  1  0  0  0
  8  9  1  0  0  0
  9 10  1  0  0  0
 10 36  1  0  0  0
 36 37  1  0  0  0
 37 38  2  0  0  0
 38 39  1  0  0  0
 39 40  2  0  0  0
 40 41  1  0  0  0
 41 42  2  0  0  0
 42 43  1  0  0  0
 10 11  1  0  0  0
 11 12  1  0  0  0
  4 20  1  0  0  0
 20 21  2  0  0  0
 21 22  1  0  0  0
 22 23  2  0  0  0
 23 24  1  0  0  0
 24 25  2  0  0  0
 23 26  1  0  0  0
 26 27  2  0  0  0
 27 28  1  0  0  0
 28 29  2  0  0  0
 29 30  1  0  0  0
 30 31  2  0  0  0
 29 32  1  0  0  0
 32 33  1  0  0  0
 32 34  2  0  0  0
 19 14  1  0  0  0
  7  1  1  0  0  0
 12  7  1  0  0  0
 25 20  1  0  0  0
 31 26  1  0  0  0
 42 37  1  0  0  0
 33 35  1  0  0  0
M  END
> <minimizedAffinity>
-9.75583

> <CNNscore>
0.3740884066

> <CNNaffinity>
7.3844108582

> <CNN_VS>
2.7624225616

> <CNNaffinity_variance>
0.0696802661

$$$$
[H]OC(=O)c1c([H])c([H])c(-c2c([H])c([H])c(N3C(=O)N(c4nc([H])nc(C([H])([H])[H])c4[H])C4(C3=O)C([H])([H])C([H])([H])N(C([H])([H])c3nc([H])c([H])c([H])c3C([H])([H])[H])C([H])([H])C4([H])[H])c([H])c2[H])c([H])c1[H]


 43 48  0  0  0  0  0  0  0  0999 V2000
  -18.5521   13.1927  -19.4551 N   0  0  0  0  0  0  0  0  0  0  0  0
  -18.2540   12.0159  -18.6909 C   0  0  0  0  0  0  0  0  0  0  0  0
  -17.2952   11.2364  -18.9257 O   0  0  0  0  0  0  0  0  0  0  0  0
  -19.2156   11.8732  -17.6273 N   0  0  0  0  0  0  0  0  0  0  0  0
  -20.0871   13.0144  -17.8054 C   0  0  0  0  0  0  0  0  0  0  0  0
  -21.2727   13.0904  -17.4231 O   0  0  0  0  0  0  0  0  0  0  0  0
  -19.2859   14.0336  -18.5178 C   0  0  0  0  0  0  0  0  0  0  0  0
  -18.2979   14.6516  -17.5545 C   0  0  0  0  0  0  0  0  0  0  0  0
  -18.4596   16.1631  -17.5205 C   0  0  0  0  0  0  0  0  0  0  0  0
  -19.8404   16.5217  -17.2522 N   0  0  0  0  0  0  0  0  0  0  0  0
  -20.7514   15.9939  -18.2035 C   0  0  0  0  0  0  0  0  0  0  0  0
  -20.0714   15.0961  -19.1942 C   0  0  0  0  0  0  0  0  0  0  0  0
  -18.2421   16.0509  -23.5410 C   0  0  0  0  0  0  0  0  0  0  0  0
  -18.0208   14.7860  -22.7935 C   0  0  0  0  0  0  0  0  0  0  0  0
  -18.3944   14.6035  -21.4800 C   0  0  0  0  0  0  0  0  0  0  0  0
  -18.1850   13.4255  -20.8000 C   0  0  0  0  0  0  0  0  0  0  0  0
  -17.5869   12.4243  -21.4711 N   0  0  0  0  0  0  0  0  0  0  0  0
  -17.2101   12.5752  -22.7596 C   0  0  0  0  0  0  0  0  0  0  0  0
  -17.4236   13.7357  -23.4086 N   0  0  0  0  0  0  0  0  0  0  0  0
  -19.2955   10.8655  -16.6308 C   0  0  0  0  0  0  0  0  0  0  0  0
  -19.6096   11.2219  -15.3225 C   0  0  0  0  0  0  0  0  0  0  0  0
  -19.6832   10.2707  -14.3372 C   0  0  0  0  0  0  0  0  0  0  0  0
  -19.4482    8.9406  -14.6176 C   0  0  0  0  0  0  0  0  0  0  0  0
  -19.1346    8.5488  -15.9012 C   0  0  0  0  0  0  0  0  0  0  0  0
  -19.0660    9.5299  -16.8823 C   0  0  0  0  0  0  0  0  0  0  0  0
  -19.5438    7.9873  -13.5033 C   0  0  0  0  0  0  0  0  0  0  0  0
  -20.2982    6.8364  -13.5949 C   0  0  0  0  0  0  0  0  0  0  0  0
  -20.3995    5.9243  -12.5481 C   0  0  0  0  0  0  0  0  0  0  0  0
  -19.7281    6.1582  -11.3616 C   0  0  0  0  0  0  0  0  0  0  0  0
  -18.9767    7.3100  -11.2783 C   0  0  0  0  0  0  0  0  0  0  0  0
  -18.8757    8.2177  -12.3191 C   0  0  0  0  0  0  0  0  0  0  0  0
  -19.8020    5.2364  -10.2370 C   0  0  0  0  0  0  0  0  0  0  0  0
  -20.4374    4.0204  -10.4192 O   0  0  0  0  0  0  0  0  0  0  0  0
  -19.3179    5.4900   -9.1096 O   0  0  0  0  0  0  0  0  0  0  0  0
  -21.4143    3.9234  -10.1557 H   0  0  0  0  0  0  0  0  0  0  0  0
  -19.8748   17.9398  -17.0606 C   0  0  0  0  0  0  0  0  0  0  0  0
  -20.4500   18.7184  -18.1481 C   0  0  0  0  0  0  0  0  0  0  0  0
  -19.7787   18.9689  -19.2651 N   0  0  0  0  0  0  0  0  0  0  0  0
  -20.2974   19.6772  -20.2705 C   0  0  0  0  0  0  0  0  0  0  0  0
  -21.5664   20.1758  -20.1737 C   0  0  0  0  0  0  0  0  0  0  0  0
  -22.3096   19.9526  -19.0490 C   0  0  0  0  0  0  0  0  0  0  0  0
  -21.7289   19.2113  -18.0300 C   0  0  0  0  0  0  0  0  0  0  0  0
  -22.5014   18.9481  -16.7942 C   0  0  0  0  0  0  0  0  0  0  0  0
 13 14  1  0  0  0
 14 15  2  0  0  0
 15 16  1  0  0  0
 16 17  2  0  0  0
 17 18  1  0  0  0
 18 19  2  0  0  0
 16  1  1  0  0  0
  1  2  1  0  0  0
  2  3  2  0  0  0
  2  4  1  0  0  0
  4  5  1  0  0  0
  5  6  2  0  0  0
  5  7  1  0  0  0
  7  8  1  0  0  0
  8  9  1  0  0  0
  9 10  1  0  0  0
 10 36  1  0  0  0
 36 37  1  0  0  0
 37 38  2  0  0  0
 38 39  1  0  0  0
 39 40  2  0  0  0
 40 41  1  0  0  0
 41 42  2  0  0  0
 42 43  1  0  0  0
 10 11  1  0  0  0
 11 12  1  0  0  0
  4 20  1  0  0  0
 20 21  2  0  0  0
 21 22  1  0  0  0
 22 23  2  0  0  0
 23 24  1  0  0  0
 24 25  2  0  0  0
 23 26  1  0  0  0
 26 27  2  0  0  0
 27 28  1  0  0  0
 28 29  2  0  0  0
 29 30  1  0  0  0
 30 31  2  0  0  0
 29 32  1  0  0  0
 32 33  1  0  0  0
 32 34  2  0  0  0
 19 14  1  0  0  0
  7  1  1  0  0  0
 12  7  1  0  0  0
 25 20  1  0  0  0
 31 26  1  0  0  0
 42 37  1  0  0  0
 33 35  1  0  0  0
M  END
> <minimizedAffinity>
-7.73638

> <CNNscore>
0.3090992272

> <CNNaffinity>
7.0444054604

> <CNN_VS>
2.1774203777

> <CNNaffinity_variance>
0.1810697466

$$$$
[H]OC(=O)c1c([H])c([H])c(-c2c([H])c([H])c(N3C(=O)N(c4nc([H])nc(C([H])([H])[H])c4[H])C4(C3=O)C([H])([H])C([H])([H])N(C([H])([H])c3nc([H])c([H])c([H])c3C([H])([H])[H])C([H])([H])C4([H])[H])c([H])c2[H])c([H])c1[H]


 43 48  0  0  0  0  0  0  0  0999 V2000
  -20.9453   17.2627  -20.9653 N   0  0  0  0  0  0  0  0  0  0  0  0
  -20.0527   16.6273  -21.8911 C   0  0  0  0  0  0  0  0  0  0  0  0
  -20.2295   16.5812  -23.1356 O   0  0  0  0  0  0  0  0  0  0  0  0
  -18.9382   16.0590  -21.1761 N   0  0  0  0  0  0  0  0  0  0  0  0
  -19.2201   16.3880  -19.7957 C   0  0  0  0  0  0  0  0  0  0  0  0
  -18.7984   15.7658  -18.7993 O   0  0  0  0  0  0  0  0  0  0  0  0
  -20.0901   17.5838  -19.8297 C   0  0  0  0  0  0  0  0  0  0  0  0
  -19.2570   18.7945  -20.1851 C   0  0  0  0  0  0  0  0  0  0  0  0
  -19.4069   19.8752  -19.1261 C   0  0  0  0  0  0  0  0  0  0  0  0
  -19.1253   19.3384  -17.8071 N   0  0  0  0  0  0  0  0  0  0  0  0
  -19.9611   18.2467  -17.4562 C   0  0  0  0  0  0  0  0  0  0  0  0
  -20.8598   17.8414  -18.5868 C   0  0  0  0  0  0  0  0  0  0  0  0
  -24.7688   19.6138  -23.1592 C   0  0  0  0  0  0  0  0  0  0  0  0
  -24.1951   18.6207  -22.2146 C   0  0  0  0  0  0  0  0  0  0  0  0
  -22.8418   18.4219  -22.0492 C   0  0  0  0  0  0  0  0  0  0  0  0
  -22.3238   17.4996  -21.1690 C   0  0  0  0  0  0  0  0  0  0  0  0
  -23.1997   16.7731  -20.4509 N   0  0  0  0  0  0  0  0  0  0  0  0
  -24.5319   16.9470  -20.5926 C   0  0  0  0  0  0  0  0  0  0  0  0
  -25.0201   17.8548  -21.4591 N   0  0  0  0  0  0  0  0  0  0  0  0
  -17.8200   15.3519  -21.6905 C   0  0  0  0  0  0  0  0  0  0  0  0
  -18.0188   14.3659  -22.6526 C   0  0  0  0  0  0  0  0  0  0  0  0
  -16.9581   13.6595  -23.1595 C   0  0  0  0  0  0  0  0  0  0  0  0
  -15.6711   13.9080  -22.7295 C   0  0  0  0  0  0  0  0  0  0  0  0
  -15.4342   14.8767  -21.7782 C   0  0  0  0  0  0  0  0  0  0  0  0
  -16.5241   15.5792  -21.2796 C   0  0  0  0  0  0  0  0  0  0  0  0
  -14.5930   13.1035  -23.3211 C   0  0  0  0  0  0  0  0  0  0  0  0
  -13.9234   12.1407  -22.5954 C   0  0  0  0  0  0  0  0  0  0  0  0
  -12.8996   11.3713  -23.1414 C   0  0  0  0  0  0  0  0  0  0  0  0
  -12.5213   11.5605  -24.4583 C   0  0  0  0  0  0  0  0  0  0  0  0
  -13.1953   12.5241  -25.1763 C   0  0  0  0  0  0  0  0  0  0  0  0
  -14.2136   13.2897  -24.6338 C   0  0  0  0  0  0  0  0  0  0  0  0
  -11.4566   10.7828  -25.0760 C   0  0  0  0  0  0  0  0  0  0  0  0
  -10.5076   10.1943  -24.2582 O   0  0  0  0  0  0  0  0  0  0  0  0
  -11.3563   10.6196  -26.3141 O   0  0  0  0  0  0  0  0  0  0  0  0
   -9.6281   10.6749  -24.0884 H   0  0  0  0  0  0  0  0  0  0  0  0
  -19.1128   20.4447  -16.8989 C   0  0  0  0  0  0  0  0  0  0  0  0
  -19.9147   20.2916  -15.6934 C   0  0  0  0  0  0  0  0  0  0  0  0
  -21.2056   19.9883  -15.7416 N   0  0  0  0  0  0  0  0  0  0  0  0
  -21.9495   19.8407  -14.6432 C   0  0  0  0  0  0  0  0  0  0  0  0
  -21.3867   20.0021  -13.4082 C   0  0  0  0  0  0  0  0  0  0  0  0
  -20.0618   20.3152  -13.2912 C   0  0  0  0  0  0  0  0  0  0  0  0
  -19.3284   20.4588  -14.4602 C   0  0  0  0  0  0  0  0  0  0  0  0
  -17.8894   20.7986  -14.3760 C   0  0  0  0  0  0  0  0  0  0  0  0
 13 14  1  0  0  0
 14 15  2  0  0  0
 15 16  1  0  0  0
 16 17  2  0  0  0
 17 18  1  0  0  0
 18 19  2  0  0  0
 16  1  1  0  0  0
  1  2  1  0  0  0
  2  3  2  0  0  0
  2  4  1  0  0  0
  4  5  1  0  0  0
  5  6  2  0  0  0
  5  7  1  0  0  0
  7  8  1  0  0  0
  8  9  1  0  0  0
  9 10  1  0  0  0
 10 36  1  0  0  0
 36 37  1  0  0  0
 37 38  2  0  0  0
 38 39  1  0  0  0
 39 40  2  0  0  0
 40 41  1  0  0  0
 41 42  2  0  0  0
 42 43  1  0  0  0
 10 11  1  0  0  0
 11 12  1  0  0  0
  4 20  1  0  0  0
 20 21  2  0  0  0
 21 22  1  0  0  0
 22 23  2  0  0  0
 23 24  1  0  0  0
 24 25  2  0  0  0
 23 26  1  0  0  0
 26 27  2  0  0  0
 27 28  1  0  0  0
 28 29  2  0  0  0
 29 30  1  0  0  0
 30 31  2  0  0  0
 29 32  1  0  0  0
 32 33  1  0  0  0
 32 34  2  0  0  0
 19 14  1  0  0  0
  7  1  1  0  0  0
 12  7  1  0  0  0
 25 20  1  0  0  0
 31 26  1  0  0  0
 42 37  1  0  0  0
 33 35  1  0  0  0
M  END
> <minimizedAffinity>
34.57333

> <CNNscore>
0.2735129893

> <CNNaffinity>
6.5513887405

> <CNN_VS>
1.7918899059

> <CNNaffinity_variance>
1.1146910191

$$$$
[H]OC(=O)c1c([H])c([H])c(-c2c([H])c([H])c(N3C(=O)N(c4nc([H])nc(C([H])([H])[H])c4[H])C4(C3=O)C([H])([H])C([H])([H])N(C([H])([H])c3nc([H])c([H])c([H])c3C([H])([H])[H])C([H])([H])C4([H])[H])c([H])c2[H])c([H])c1[H]


 43 48  0  0  0  0  0  0  0  0999 V2000
  -19.1498   14.8772  -19.2482 N   0  0  0  0  0  0  0  0  0  0  0  0
  -18.7812   13.6423  -18.6183 C   0  0  0  0  0  0  0  0  0  0  0  0
  -17.6520   13.0978  -18.7214 O   0  0  0  0  0  0  0  0  0  0  0  0
  -19.8963   13.1343  -17.8602 N   0  0  0  0  0  0  0  0  0  0  0  0
  -20.9298   14.1233  -18.0767 C   0  0  0  0  0  0  0  0  0  0  0  0
  -22.1585   13.9210  -17.9936 O   0  0  0  0  0  0  0  0  0  0  0  0
  -20.2279   15.3826  -18.4078 C   0  0  0  0  0  0  0  0  0  0  0  0
  -19.6225   15.9601  -17.1484 C   0  0  0  0  0  0  0  0  0  0  0  0
  -20.1027   17.3863  -16.9307 C   0  0  0  0  0  0  0  0  0  0  0  0
  -21.5527   17.4459  -16.9631 N   0  0  0  0  0  0  0  0  0  0  0  0
  -22.1064   16.9663  -18.1784 C   0  0  0  0  0  0  0  0  0  0  0  0
  -21.0561   16.4072  -19.0917 C   0  0  0  0  0  0  0  0  0  0  0  0
  -17.2758   14.5245  -23.8661 C   0  0  0  0  0  0  0  0  0  0  0  0
  -17.6476   15.2861  -22.6457 C   0  0  0  0  0  0  0  0  0  0  0  0
  -18.2226   14.7089  -21.5347 C   0  0  0  0  0  0  0  0  0  0  0  0
  -18.5604   15.4261  -20.4098 C   0  0  0  0  0  0  0  0  0  0  0  0
  -18.3074   16.7476  -20.4223 N   0  0  0  0  0  0  0  0  0  0  0  0
  -17.7443   17.3401  -21.4978 C   0  0  0  0  0  0  0  0  0  0  0  0
  -17.4204   16.6215  -22.5897 N   0  0  0  0  0  0  0  0  0  0  0  0
  -19.9735   11.9533  -17.0764 C   0  0  0  0  0  0  0  0  0  0  0  0
  -18.9341   11.6431  -16.2041 C   0  0  0  0  0  0  0  0  0  0  0  0
  -18.9771   10.5033  -15.4425 C   0  0  0  0  0  0  0  0  0  0  0  0
  -20.0487    9.6382  -15.5219 C   0  0  0  0  0  0  0  0  0  0  0  0
  -21.0970    9.9113  -16.3739 C   0  0  0  0  0  0  0  0  0  0  0  0
  -21.0313   11.0716  -17.1351 C   0  0  0  0  0  0  0  0  0  0  0  0
  -20.0134    8.4382  -14.6744 C   0  0  0  0  0  0  0  0  0  0  0  0
  -20.3359    7.1912  -15.1675 C   0  0  0  0  0  0  0  0  0  0  0  0
  -20.3082    6.0454  -14.3772 C   0  0  0  0  0  0  0  0  0  0  0  0
  -19.9472    6.1345  -13.0449 C   0  0  0  0  0  0  0  0  0  0  0  0
  -19.6265    7.3838  -12.5603 C   0  0  0  0  0  0  0  0  0  0  0  0
  -19.6540    8.5238  -13.3458 C   0  0  0  0  0  0  0  0  0  0  0  0
  -19.9034    4.9669  -12.1762 C   0  0  0  0  0  0  0  0  0  0  0  0
  -21.0686    4.5688  -11.5440 O   0  0  0  0  0  0  0  0  0  0  0  0
  -18.8607    4.3030  -11.9719 O   0  0  0  0  0  0  0  0  0  0  0  0
  -21.2507    4.8775  -10.5928 H   0  0  0  0  0  0  0  0  0  0  0  0
  -21.9257   18.7728  -16.5768 C   0  0  0  0  0  0  0  0  0  0  0  0
  -21.1455   19.8529  -17.1636 C   0  0  0  0  0  0  0  0  0  0  0  0
  -19.8197   19.8722  -17.1097 N   0  0  0  0  0  0  0  0  0  0  0  0
  -19.0939   20.8544  -17.6482 C   0  0  0  0  0  0  0  0  0  0  0  0
  -19.7129   21.8929  -18.2858 C   0  0  0  0  0  0  0  0  0  0  0  0
  -21.0759   21.9314  -18.3751 C   0  0  0  0  0  0  0  0  0  0  0  0
  -21.7886   20.8889  -17.8006 C   0  0  0  0  0  0  0  0  0  0  0  0
  -23.2676   20.8941  -17.8752 C   0  0  0  0  0  0  0  0  0  0  0  0
 13 14  1  0  0  0
 14 15  2  0  0  0
 15 16  1  0  0  0
 16 17  2  0  0  0
 17 18  1  0  0  0
 18 19  2  0  0  0
 16  1  1  0  0  0
  1  2  1  0  0  0
  2  3  2  0  0  0
  2  4  1  0  0  0
  4  5  1  0  0  0
  5  6  2  0  0  0
  5  7  1  0  0  0
  7  8  1  0  0  0
  8  9  1  0  0  0
  9 10  1  0  0  0
 10 36  1  0  0  0
 36 37  1  0  0  0
 37 38  2  0  0  0
 38 39  1  0  0  0
 39 40  2  0  0  0
 40 41  1  0  0  0
 41 42  2  0  0  0
 42 43  1  0  0  0
 10 11  1  0  0  0
 11 12  1  0  0  0
  4 20  1  0  0  0
 20 21  2  0  0  0
 21 22  1  0  0  0
 22 23  2  0  0  0
 23 24  1  0  0  0
 24 25  2  0  0  0
 23 26  1  0  0  0
 26 27  2  0  0  0
 27 28  1  0  0  0
 28 29  2  0  0  0
 29 30  1  0  0  0
 30 31  2  0  0  0
 29 32  1  0  0  0
 32 33  1  0  0  0
 32 34  2  0  0  0
 19 14  1  0  0  0
  7  1  1  0  0  0
 12  7  1  0  0  0
 25 20  1  0  0  0
 31 26  1  0  0  0
 42 37  1  0  0  0
 33 35  1  0  0  0
M  END
> <minimizedAffinity>
-3.73563

> <CNNscore>
0.2727930248

> <CNNaffinity>
6.5756669044

> <CNN_VS>
1.7937960625

> <CNNaffinity_variance>
0.4299267828

$$$$
[H]OC(=O)c1c([H])c([H])c(-c2c([H])c([H])c(N3C(=O)N(c4nc([H])nc(C([H])([H])[H])c4[H])C4(C3=O)C([H])([H])C([H])([H])N(C([H])([H])c3nc([H])c([H])c([H])c3C([H])([H])[H])C([H])([H])C4([H])[H])c([H])c2[H])c([H])c1[H]


 43 48  0  0  0  0  0  0  0  0999 V2000
  -17.9644   13.8825  -21.2881 N   0  0  0  0  0  0  0  0  0  0  0  0
  -17.9007   12.9219  -20.2247 C   0  0  0  0  0  0  0  0  0  0  0  0
  -16.9467   12.1230  -20.0408 O   0  0  0  0  0  0  0  0  0  0  0  0
  -19.0878   13.0185  -19.4137 N   0  0  0  0  0  0  0  0  0  0  0  0
  -19.8461   14.0735  -20.0503 C   0  0  0  0  0  0  0  0  0  0  0  0
  -21.0839   14.2198  -19.9856 O   0  0  0  0  0  0  0  0  0  0  0  0
  -18.8601   14.9088  -20.7700 C   0  0  0  0  0  0  0  0  0  0  0  0
  -18.0977   15.7496  -19.7710 C   0  0  0  0  0  0  0  0  0  0  0  0
  -18.2000   17.2245  -20.1261 C   0  0  0  0  0  0  0  0  0  0  0  0
  -19.5893   17.6160  -20.2803 N   0  0  0  0  0  0  0  0  0  0  0  0
  -20.2760   16.8669  -21.2707 C   0  0  0  0  0  0  0  0  0  0  0  0
  -19.4226   15.7719  -21.8387 C   0  0  0  0  0  0  0  0  0  0  0  0
  -17.5894   12.4396  -26.0565 C   0  0  0  0  0  0  0  0  0  0  0  0
  -17.0765   13.1141  -24.8360 C   0  0  0  0  0  0  0  0  0  0  0  0
  -17.7741   13.1724  -23.6492 C   0  0  0  0  0  0  0  0  0  0  0  0
  -17.2862   13.7990  -22.5254 C   0  0  0  0  0  0  0  0  0  0  0  0
  -16.0722   14.3721  -22.6170 N   0  0  0  0  0  0  0  0  0  0  0  0
  -15.3660   14.3303  -23.7679 C   0  0  0  0  0  0  0  0  0  0  0  0
  -15.8600   13.7121  -24.8575 N   0  0  0  0  0  0  0  0  0  0  0  0
  -19.4382   12.2712  -18.2588 C   0  0  0  0  0  0  0  0  0  0  0  0
  -20.2211   12.8646  -17.2727 C   0  0  0  0  0  0  0  0  0  0  0  0
  -20.5661   12.1699  -16.1416 C   0  0  0  0  0  0  0  0  0  0  0  0
  -20.1466   10.8693  -15.9535 C   0  0  0  0  0  0  0  0  0  0  0  0
  -19.3702   10.2476  -16.9075 C   0  0  0  0  0  0  0  0  0  0  0  0
  -19.0337   10.9710  -18.0448 C   0  0  0  0  0  0  0  0  0  0  0  0
  -20.5575   10.1989  -14.7119 C   0  0  0  0  0  0  0  0  0  0  0  0
  -21.8241   10.3531  -14.1883 C   0  0  0  0  0  0  0  0  0  0  0  0
  -22.2279    9.7257  -13.0131 C   0  0  0  0  0  0  0  0  0  0  0  0
  -21.3447    8.9123  -12.3263 C   0  0  0  0  0  0  0  0  0  0  0  0
  -20.0816    8.7634  -12.8562 C   0  0  0  0  0  0  0  0  0  0  0  0
  -19.6793    9.3874  -14.0250 C   0  0  0  0  0  0  0  0  0  0  0  0
  -21.7176    8.2345  -11.0928 C   0  0  0  0  0  0  0  0  0  0  0  0
  -22.0169    6.8841  -11.1446 O   0  0  0  0  0  0  0  0  0  0  0  0
  -21.7812    8.8144   -9.9841 O   0  0  0  0  0  0  0  0  0  0  0  0
  -22.9866    6.5908  -11.2276 H   0  0  0  0  0  0  0  0  0  0  0  0
  -19.6084   19.0389  -20.4351 C   0  0  0  0  0  0  0  0  0  0  0  0
  -20.9247   19.6570  -20.5050 C   0  0  0  0  0  0  0  0  0  0  0  0
  -21.5562   19.8377  -21.6580 N   0  0  0  0  0  0  0  0  0  0  0  0
  -22.7650   20.3987  -21.7338 C   0  0  0  0  0  0  0  0  0  0  0  0
  -23.4005   20.8124  -20.5966 C   0  0  0  0  0  0  0  0  0  0  0  0
  -22.8029   20.6545  -19.3780 C   0  0  0  0  0  0  0  0  0  0  0  0
  -21.5465   20.0666  -19.3482 C   0  0  0  0  0  0  0  0  0  0  0  0
  -20.8649   19.8784  -18.0470 C   0  0  0  0  0  0  0  0  0  0  0  0
 13 14  1  0  0  0
 14 15  2  0  0  0
 15 16  1  0  0  0
 16 17  2  0  0  0
 17 18  1  0  0  0
 18 19  2  0  0  0
 16  1  1  0  0  0
  1  2  1  0  0  0
  2  3  2  0  0  0
  2  4  1  0  0  0
  4  5  1  0  0  0
  5  6  2  0  0  0
  5  7  1  0  0  0
  7  8  1  0  0  0
  8  9  1  0  0  0
  9 10  1  0  0  0
 10 36  1  0  0  0
 36 37  1  0  0  0
 37 38  2  0  0  0
 38 39  1  0  0  0
 39 40  2  0  0  0
 40 41  1  0  0  0
 41 42  2  0  0  0
 42 43  1  0  0  0
 10 11  1  0  0  0
 11 12  1  0  0  0
  4 20  1  0  0  0
 20 21  2  0  0  0
 21 22  1  0  0  0
 22 23  2  0  0  0
 23 24  1  0  0  0
 24 25  2  0  0  0
 23 26  1  0  0  0
 26 27  2  0  0  0
 27 28  1  0  0  0
 28 29  2  0  0  0
 29 30  1  0  0  0
 30 31  2  0  0  0
 29 32  1  0  0  0
 32 33  1  0  0  0
 32 34  2  0  0  0
 19 14  1  0  0  0
  7  1  1  0  0  0
 12  7  1  0  0  0
 25 20  1  0  0  0
 31 26  1  0  0  0
 42 37  1  0  0  0
 33 35  1  0  0  0
M  END
> <minimizedAffinity>
-8.54929

> <CNNscore>
0.2658918798

> <CNNaffinity>
7.1435966492

> <CNN_VS>
1.8994243145

> <CNNaffinity_variance>
0.1841126233

$$$$
[H]OC(=O)c1c([H])c([H])c(-c2c([H])c([H])c(N3C(=O)N(c4nc([H])nc(C([H])([H])[H])c4[H])C4(C3=O)C([H])([H])C([H])([H])N(C([H])([H])c3nc([H])c([H])c([H])c3C([H])([H])[H])C([H])([H])C4([H])[H])c([H])c2[H])c([H])c1[H]


 43 48  0  0  0  0  0  0  0  0999 V2000
  -18.6205   13.3226  -19.1657 N   0  0  0  0  0  0  0  0  0  0  0  0
  -19.1484   13.1344  -17.8452 C   0  0  0  0  0  0  0  0  0  0  0  0
  -18.6619   12.3546  -16.9866 O   0  0  0  0  0  0  0  0  0  0  0  0
  -20.3081   13.9702  -17.6643 N   0  0  0  0  0  0  0  0  0  0  0  0
  -20.4348   14.6509  -18.9347 C   0  0  0  0  0  0  0  0  0  0  0  0
  -21.4895   15.1264  -19.4027 O   0  0  0  0  0  0  0  0  0  0  0  0
  -19.0819   14.6554  -19.5329 C   0  0  0  0  0  0  0  0  0  0  0  0
  -18.2246   15.6734  -18.8154 C   0  0  0  0  0  0  0  0  0  0  0  0
  -17.6398   16.6702  -19.8034 C   0  0  0  0  0  0  0  0  0  0  0  0
  -18.6896   17.2581  -20.6154 N   0  0  0  0  0  0  0  0  0  0  0  0
  -19.4427   16.2976  -21.3391 C   0  0  0  0  0  0  0  0  0  0  0  0
  -19.0388   14.8940  -20.9974 C   0  0  0  0  0  0  0  0  0  0  0  0
  -17.8743    8.8948  -21.3562 C   0  0  0  0  0  0  0  0  0  0  0  0
  -17.4453   10.2599  -20.9560 C   0  0  0  0  0  0  0  0  0  0  0  0
  -18.2462   11.1333  -20.2530 C   0  0  0  0  0  0  0  0  0  0  0  0
  -17.8353   12.3947  -19.8870 C   0  0  0  0  0  0  0  0  0  0  0  0
  -16.5923   12.7661  -20.2442 N   0  0  0  0  0  0  0  0  0  0  0  0
  -15.7854   11.9302  -20.9336 C   0  0  0  0  0  0  0  0  0  0  0  0
  -16.2051   10.6993  -21.2829 N   0  0  0  0  0  0  0  0  0  0  0  0
  -21.1326   14.1097  -16.5172 C   0  0  0  0  0  0  0  0  0  0  0  0
  -21.2470   15.3548  -15.9055 C   0  0  0  0  0  0  0  0  0  0  0  0
  -22.0281   15.5165  -14.7898 C   0  0  0  0  0  0  0  0  0  0  0  0
  -22.7177   14.4520  -14.2474 C   0  0  0  0  0  0  0  0  0  0  0  0
  -22.6296   13.2038  -14.8250 C   0  0  0  0  0  0  0  0  0  0  0  0
  -21.8327   13.0643  -15.9543 C   0  0  0  0  0  0  0  0  0  0  0  0
  -23.5283   14.7111  -13.0493 C   0  0  0  0  0  0  0  0  0  0  0  0
  -23.4464   13.9096  -11.9299 C   0  0  0  0  0  0  0  0  0  0  0  0
  -24.2081   14.1414  -10.7879 C   0  0  0  0  0  0  0  0  0  0  0  0
  -25.0872   15.2087  -10.7497 C   0  0  0  0  0  0  0  0  0  0  0  0
  -25.1630   16.0043  -11.8719 C   0  0  0  0  0  0  0  0  0  0  0  0
  -24.4057   15.7742  -13.0081 C   0  0  0  0  0  0  0  0  0  0  0  0
  -25.9067   15.4935   -9.5804 C   0  0  0  0  0  0  0  0  0  0  0  0
  -26.2161   16.8120   -9.2947 O   0  0  0  0  0  0  0  0  0  0  0  0
  -26.3468   14.6021   -8.8178 O   0  0  0  0  0  0  0  0  0  0  0  0
  -25.6454   17.3253   -8.6283 H   0  0  0  0  0  0  0  0  0  0  0  0
  -18.0869   18.3028  -21.3863 C   0  0  0  0  0  0  0  0  0  0  0  0
  -19.0004   19.2706  -21.9766 C   0  0  0  0  0  0  0  0  0  0  0  0
  -18.9682   19.5703  -23.2689 N   0  0  0  0  0  0  0  0  0  0  0  0
  -19.8038   20.4520  -23.8221 C   0  0  0  0  0  0  0  0  0  0  0  0
  -20.7386   21.0857  -23.0522 C   0  0  0  0  0  0  0  0  0  0  0  0
  -20.8228   20.8208  -21.7144 C   0  0  0  0  0  0  0  0  0  0  0  0
  -19.9337   19.8973  -21.1837 C   0  0  0  0  0  0  0  0  0  0  0  0
  -19.9920   19.5831  -19.7376 C   0  0  0  0  0  0  0  0  0  0  0  0
 13 14  1  0  0  0
 14 15  2  0  0  0
 15 16  1  0  0  0
 16 17  2  0  0  0
 17 18  1  0  0  0
 18 19  2  0  0  0
 16  1  1  0  0  0
  1  2  1  0  0  0
  2  3  2  0  0  0
  2  4  1  0  0  0
  4  5  1  0  0  0
  5  6  2  0  0  0
  5  7  1  0  0  0
  7  8  1  0  0  0
  8  9  1  0  0  0
  9 10  1  0  0  0
 10 36  1  0  0  0
 36 37  1  0  0  0
 37 38  2  0  0  0
 38 39  1  0  0  0
 39 40  2  0  0  0
 40 41  1  0  0  0
 41 42  2  0  0  0
 42 43  1  0  0  0
 10 11  1  0  0  0
 11 12  1  0  0  0
  4 20  1  0  0  0
 20 21  2  0  0  0
 21 22  1  0  0  0
 22 23  2  0  0  0
 23 24  1  0  0  0
 24 25  2  0  0  0
 23 26  1  0  0  0
 26 27  2  0  0  0
 27 28  1  0  0  0
 28 29  2  0  0  0
 29 30  1  0  0  0
 30 31  2  0  0  0
 29 32  1  0  0  0
 32 33  1  0  0  0
 32 34  2  0  0  0
 19 14  1  0  0  0
  7  1  1  0  0  0
 12  7  1  0  0  0
 25 20  1  0  0  0
 31 26  1  0  0  0
 42 37  1  0  0  0
 33 35  1  0  0  0
M  END
> <minimizedAffinity>
-2.20290

> <CNNscore>
0.2445259541

> <CNNaffinity>
6.5680289268

> <CNN_VS>
1.6060535908

> <CNNaffinity_variance>
0.7047373056

$$$$
[H]OC(=O)c1c([H])c([H])c(-c2c([H])c([H])c(N3C(=O)N(c4nc([H])nc(C([H])([H])[H])c4[H])C4(C3=O)C([H])([H])C([H])([H])N(C([H])([H])c3nc([H])c([H])c([H])c3C([H])([H])[H])C([H])([H])C4([H])[H])c([H])c2[H])c([H])c1[H]


 43 48  0  0  0  0  0  0  0  0999 V2000
  -17.6696   13.8964  -21.4948 N   0  0  0  0  0  0  0  0  0  0  0  0
  -17.6142   12.9340  -20.4325 C   0  0  0  0  0  0  0  0  0  0  0  0
  -16.7000   12.0823  -20.2881 O   0  0  0  0  0  0  0  0  0  0  0  0
  -18.7575   13.0981  -19.5710 N   0  0  0  0  0  0  0  0  0  0  0  0
  -19.4818   14.1943  -20.1769 C   0  0  0  0  0  0  0  0  0  0  0  0
  -20.7053   14.4106  -20.0589 O   0  0  0  0  0  0  0  0  0  0  0  0
  -18.4823   14.9721  -20.9410 C   0  0  0  0  0  0  0  0  0  0  0  0
  -17.6306   15.7684  -19.9784 C   0  0  0  0  0  0  0  0  0  0  0  0
  -17.6645   17.2467  -20.3328 C   0  0  0  0  0  0  0  0  0  0  0  0
  -19.0348   17.7164  -20.4276 N   0  0  0  0  0  0  0  0  0  0  0  0
  -19.8053   17.0072  -21.3851 C   0  0  0  0  0  0  0  0  0  0  0  0
  -19.0409   15.8654  -21.9867 C   0  0  0  0  0  0  0  0  0  0  0  0
  -13.9960   14.8294  -24.7497 C   0  0  0  0  0  0  0  0  0  0  0  0
  -15.2877   14.2086  -24.3575 C   0  0  0  0  0  0  0  0  0  0  0  0
  -15.8533   14.3535  -23.1095 C   0  0  0  0  0  0  0  0  0  0  0  0
  -17.0517   13.7743  -22.7601 C   0  0  0  0  0  0  0  0  0  0  0  0
  -17.6775   13.0391  -23.6973 N   0  0  0  0  0  0  0  0  0  0  0  0
  -17.1462   12.8801  -24.9292 C   0  0  0  0  0  0  0  0  0  0  0  0
  -15.9722   13.4550  -25.2528 N   0  0  0  0  0  0  0  0  0  0  0  0
  -19.0991   12.3722  -18.3999 C   0  0  0  0  0  0  0  0  0  0  0  0
  -19.6379   13.0490  -17.3095 C   0  0  0  0  0  0  0  0  0  0  0  0
  -19.9674   12.3750  -16.1614 C   0  0  0  0  0  0  0  0  0  0  0  0
  -19.7733   11.0130  -16.0590 C   0  0  0  0  0  0  0  0  0  0  0  0
  -19.2423   10.3081  -17.1176 C   0  0  0  0  0  0  0  0  0  0  0  0
  -18.9165   11.0122  -18.2700 C   0  0  0  0  0  0  0  0  0  0  0  0
  -20.1497   10.3694  -14.7926 C   0  0  0  0  0  0  0  0  0  0  0  0
  -21.0150    9.2963  -14.7524 C   0  0  0  0  0  0  0  0  0  0  0  0
  -21.3818    8.6767  -13.5610 C   0  0  0  0  0  0  0  0  0  0  0  0
  -20.8731    9.1357  -12.3594 C   0  0  0  0  0  0  0  0  0  0  0  0
  -20.0094   10.2080  -12.4082 C   0  0  0  0  0  0  0  0  0  0  0  0
  -19.6443   10.8247  -13.5930 C   0  0  0  0  0  0  0  0  0  0  0  0
  -21.2259    8.5233  -11.0864 C   0  0  0  0  0  0  0  0  0  0  0  0
  -20.2564    7.8077  -10.4054 O   0  0  0  0  0  0  0  0  0  0  0  0
  -22.3665    8.6120  -10.5755 O   0  0  0  0  0  0  0  0  0  0  0  0
  -20.2097    6.7986  -10.5182 H   0  0  0  0  0  0  0  0  0  0  0  0
  -18.9799   19.1380  -20.5853 C   0  0  0  0  0  0  0  0  0  0  0  0
  -20.2293   19.7896  -20.9515 C   0  0  0  0  0  0  0  0  0  0  0  0
  -21.2498   19.8777  -20.1079 N   0  0  0  0  0  0  0  0  0  0  0  0
  -22.3980   20.4769  -20.4308 C   0  0  0  0  0  0  0  0  0  0  0  0
  -22.5569   21.0297  -21.6707 C   0  0  0  0  0  0  0  0  0  0  0  0
  -21.5431   20.9720  -22.5851 C   0  0  0  0  0  0  0  0  0  0  0  0
  -20.3683   20.3393  -22.2049 C   0  0  0  0  0  0  0  0  0  0  0  0
  -19.2461   20.2551  -23.1676 C   0  0  0  0  0  0  0  0  0  0  0  0
 13 14  1  0  0  0
 14 15  2  0  0  0
 15 16  1  0  0  0
 16 17  2  0  0  0
 17 18  1  0  0  0
 18 19  2  0  0  0
 16  1  1  0  0  0
  1  2  1  0  0  0
  2  3  2  0  0  0
  2  4  1  0  0  0
  4  5  1  0  0  0
  5  6  2  0  0  0
  5  7  1  0  0  0
  7  8  1  0  0  0
  8  9  1  0  0  0
  9 10  1  0  0  0
 10 36  1  0  0  0
 36 37  1  0  0  0
 37 38  2  0  0  0
 38 39  1  0  0  0
 39 40  2  0  0  0
 40 41  1  0  0  0
 41 42  2  0  0  0
 42 43  1  0  0  0
 10 11  1  0  0  0
 11 12  1  0  0  0
  4 20  1  0  0  0
 20 21  2  0  0  0
 21 22  1  0  0  0
 22 23  2  0  0  0
 23 24  1  0  0  0
 24 25  2  0  0  0
 23 26  1  0  0  0
 26 27  2  0  0  0
 27 28  1  0  0  0
 28 29  2  0  0  0
 29 30  1  0  0  0
 30 31  2  0  0  0
 29 32  1  0  0  0
 32 33  1  0  0  0
 32 34  2  0  0  0
 19 14  1  0  0  0
  7  1  1  0  0  0
 12  7  1  0  0  0
 25 20  1  0  0  0
 31 26  1  0  0  0
 42 37  1  0  0  0
 33 35  1  0  0  0
M  END
> <minimizedAffinity>
-8.93298

> <CNNscore>
0.2256918401

> <CNNaffinity>
7.1725287437

> <CNN_VS>
1.6187812090

> <CNNaffinity_variance>
0.0845161304

$$$$
[H]OC(=O)c1c([H])c([H])c(-c2c([H])c([H])c(N3C(=O)N(c4nc([H])nc(C([H])([H])[H])c4[H])C4(C3=O)C([H])([H])C([H])([H])N(C([H])([H])c3nc([H])c([H])c([H])c3C([H])([H])[H])C([H])([H])C4([H])[H])c([H])c2[H])c([H])c1[H]


 43 48  0  0  0  0  0  0  0  0999 V2000
  -18.2389   13.5527  -18.9848 N   0  0  0  0  0  0  0  0  0  0  0  0
  -18.9670   13.9309  -17.8081 C   0  0  0  0  0  0  0  0  0  0  0  0
  -18.7970   13.4235  -16.6698 O   0  0  0  0  0  0  0  0  0  0  0  0
  -19.9101   14.9698  -18.1359 N   0  0  0  0  0  0  0  0  0  0  0  0
  -19.7025   15.1791  -19.5524 C   0  0  0  0  0  0  0  0  0  0  0  0
  -20.5433   15.6426  -20.3498 O   0  0  0  0  0  0  0  0  0  0  0  0
  -18.3197   14.7351  -19.8330 C   0  0  0  0  0  0  0  0  0  0  0  0
  -17.3494   15.7686  -19.3071 C   0  0  0  0  0  0  0  0  0  0  0  0
  -16.4198   16.2402  -20.4140 C   0  0  0  0  0  0  0  0  0  0  0  0
  -17.1836   16.6872  -21.5646 N   0  0  0  0  0  0  0  0  0  0  0  0
  -18.0391   15.6859  -22.0928 C   0  0  0  0  0  0  0  0  0  0  0  0
  -18.0272   14.4397  -21.2580 C   0  0  0  0  0  0  0  0  0  0  0  0
  -17.1775    9.5477  -21.7766 C   0  0  0  0  0  0  0  0  0  0  0  0
  -17.0747   10.3579  -20.5353 C   0  0  0  0  0  0  0  0  0  0  0  0
  -17.7087   11.5689  -20.3628 C   0  0  0  0  0  0  0  0  0  0  0  0
  -17.6064   12.3083  -19.2067 C   0  0  0  0  0  0  0  0  0  0  0  0
  -16.8471   11.8034  -18.2172 N   0  0  0  0  0  0  0  0  0  0  0  0
  -16.2141   10.6184  -18.3588 C   0  0  0  0  0  0  0  0  0  0  0  0
  -16.3264    9.9088  -19.4978 N   0  0  0  0  0  0  0  0  0  0  0  0
  -20.8232   15.6426  -17.2824 C   0  0  0  0  0  0  0  0  0  0  0  0
  -20.6341   16.9943  -17.0093 C   0  0  0  0  0  0  0  0  0  0  0  0
  -21.4945   17.6672  -16.1799 C   0  0  0  0  0  0  0  0  0  0  0  0
  -22.5658   17.0226  -15.5969 C   0  0  0  0  0  0  0  0  0  0  0  0
  -22.7861   15.6846  -15.8434 C   0  0  0  0  0  0  0  0  0  0  0  0
  -21.9016   15.0243  -16.6868 C   0  0  0  0  0  0  0  0  0  0  0  0
  -23.4364   17.8164  -14.7184 C   0  0  0  0  0  0  0  0  0  0  0  0
  -24.4371   18.6208  -15.2221 C   0  0  0  0  0  0  0  0  0  0  0  0
  -25.2690   19.3792  -14.4032 C   0  0  0  0  0  0  0  0  0  0  0  0
  -25.1062   19.3419  -13.0301 C   0  0  0  0  0  0  0  0  0  0  0  0
  -24.1044   18.5359  -12.5351 C   0  0  0  0  0  0  0  0  0  0  0  0
  -23.2765   17.7814  -13.3492 C   0  0  0  0  0  0  0  0  0  0  0  0
  -25.9492   20.1166  -12.1305 C   0  0  0  0  0  0  0  0  0  0  0  0
  -26.3093   21.4001  -12.5028 O   0  0  0  0  0  0  0  0  0  0  0  0
  -26.3656   19.6780  -11.0332 O   0  0  0  0  0  0  0  0  0  0  0  0
  -25.7656   22.1891  -12.1637 H   0  0  0  0  0  0  0  0  0  0  0  0
  -16.2543   17.2750  -22.4811 C   0  0  0  0  0  0  0  0  0  0  0  0
  -15.8373   16.4358  -23.5953 C   0  0  0  0  0  0  0  0  0  0  0  0
  -15.1277   15.3291  -23.4149 N   0  0  0  0  0  0  0  0  0  0  0  0
  -14.7440   14.5495  -24.4282 C   0  0  0  0  0  0  0  0  0  0  0  0
  -15.0807   14.8790  -25.7112 C   0  0  0  0  0  0  0  0  0  0  0  0
  -15.8103   16.0064  -25.9634 C   0  0  0  0  0  0  0  0  0  0  0  0
  -16.1866   16.7859  -24.8791 C   0  0  0  0  0  0  0  0  0  0  0  0
  -16.9776   18.0164  -25.1105 C   0  0  0  0  0  0  0  0  0  0  0  0
 13 14  1  0  0  0
 14 15  2  0  0  0
 15 16  1  0  0  0
 16 17  2  0  0  0
 17 18  1  0  0  0
 18 19  2  0  0  0
 16  1  1  0  0  0
  1  2  1  0  0  0
  2  3  2  0  0  0
  2  4  1  0  0  0
  4  5  1  0  0  0
  5  6  2  0  0  0
  5  7  1  0  0  0
  7  8  1  0  0  0
  8  9  1  0  0  0
  9 10  1  0  0  0
 10 36  1  0  0  0
 36 37  1  0  0  0
 37 38  2  0  0  0
 38 39  1  0  0  0
 39 40  2  0  0  0
 40 41  1  0  0  0
 41 42  2  0  0  0
 42 43  1  0  0  0
 10 11  1  0  0  0
 11 12  1  0  0  0
  4 20  1  0  0  0
 20 21  2  0  0  0
 21 22  1  0  0  0
 22 23  2  0  0  0
 23 24  1  0  0  0
 24 25  2  0  0  0
 23 26  1  0  0  0
 26 27  2  0  0  0
 27 28  1  0  0  0
 28 29  2  0  0  0
 29 30  1  0  0  0
 30 31  2  0  0  0
 29 32  1  0  0  0
 32 33  1  0  0  0
 32 34  2  0  0  0
 19 14  1  0  0  0
  7  1  1  0  0  0
 12  7  1  0  0  0
 25 20  1  0  0  0
 31 26  1  0  0  0
 42 37  1  0  0  0
 33 35  1  0  0  0
M  END
> <minimizedAffinity>
-5.58568

> <CNNscore>
0.1849303842

> <CNNaffinity>
6.8244934082

> <CNN_VS>
1.2620562315

> <CNNaffinity_variance>
0.1728097200

$$$$
[H]c1nc(N2C([H])([H])[C@@]3([H])N(C([H])([H])[H])C([H])([H])[C@@]2([H])C3([H])[H])c([H])c([H])c1-c1c([H])c([H])c([H])c2c1c([H])c([H])n2[H]


 24 28  0  0  0  0  0  0  0  0999 V2000
  -17.2331   12.7765  -21.9698 C   0  0  0  0  0  0  0  0  0  0  0  0
  -18.3254   13.4326  -21.1782 C   0  0  0  0  0  0  0  0  0  0  0  0
  -18.8118   12.8033  -19.9066 C   0  0  0  0  0  0  0  0  0  0  0  0
  -18.2060   11.5178  -19.4263 C   0  0  0  0  0  0  0  0  0  0  0  0
  -17.1137   10.8617  -20.2178 C   0  0  0  0  0  0  0  0  0  0  0  0
  -16.6272   11.4911  -21.4895 N   0  0  0  0  0  0  0  0  0  0  0  0
  -18.6924   10.8885  -18.1546 C   0  0  0  0  0  0  0  0  0  0  0  0
  -18.2336    9.5116  -17.7758 C   0  0  0  0  0  0  0  0  0  0  0  0
  -18.7200    8.8822  -16.5042 C   0  0  0  0  0  0  0  0  0  0  0  0
  -19.6654    9.6299  -15.6111 C   0  0  0  0  0  0  0  0  0  0  0  0
  -20.1242   11.0068  -15.9899 C   0  0  0  0  0  0  0  0  0  0  0  0
  -21.0456   11.9789  -15.3145 N   0  0  0  0  0  0  0  0  0  0  0  0
  -21.1285   13.2090  -16.1688 C   0  0  0  0  0  0  0  0  0  0  0  0
  -20.2585   12.9972  -17.3722 C   0  0  0  0  0  0  0  0  0  0  0  0
  -19.6378   11.6361  -17.2616 C   0  0  0  0  0  0  0  0  0  0  0  0
  -21.7588   11.7594  -14.0132 H   0  0  0  0  0  0  0  0  0  0  0  0
  -14.8907   15.5908  -26.9821 C   0  0  0  0  0  0  0  0  0  0  0  0
  -15.3772   14.9614  -25.7104 N   0  0  0  0  0  0  0  0  0  0  0  0
  -14.7862   15.1602  -24.3461 C   0  0  0  0  0  0  0  0  0  0  0  0
  -15.5838   14.3444  -23.3722 C   0  0  0  0  0  0  0  0  0  0  0  0
  -16.6677   13.6415  -24.1345 C   0  0  0  0  0  0  0  0  0  0  0  0
  -16.5400   14.0229  -25.5797 C   0  0  0  0  0  0  0  0  0  0  0  0
  -17.3375   13.2072  -24.6058 C   0  0  0  0  0  0  0  0  0  0  0  0
  -16.7466   13.4059  -23.2414 N   0  0  0  0  0  0  0  0  0  0  0  0
 17 18  1  0  0  0
 18 19  1  0  0  0
 19 20  1  0  0  0
 20 21  1  0  0  0
 21 22  1  0  0  0
 22 23  1  0  0  0
 23 24  1  0  0  0
 24  1  1  0  0  0
  1  2  2  0  0  0
  2  3  1  0  0  0
  3  4  2  0  0  0
  4  5  1  0  0  0
  5  6  2  0  0  0
  4  7  1  0  0  0
  7  8  1  0  0  0
  8  9  2  0  0  0
  9 10  1  0  0  0
 10 11  2  0  0  0
 11 12  1  0  0  0
 12 13  1  0  0  0
 13 14  2  0  0  0
 14 15  1  0  0  0
 22 18  1  0  0  0
  6  1  1  0  0  0
 15  7  2  0  0  0
 24 20  1  0  0  0
 15 11  1  0  0  0
 12 16  1  0  0  0
M  END
> <minimizedAffinity>
-8.88430

> <CNNscore>
0.6765693426

> <CNNaffinity>
6.4590888023

> <CNN_VS>
4.3700213432

> <CNNaffinity_variance>
0.0629235879

$$$$
[H]c1nc(N2C([H])([H])[C@@]3([H])N(C([H])([H])[H])C([H])([H])[C@@]2([H])C3([H])[H])c([H])c([H])c1-c1c([H])c([H])c([H])c2c1c([H])c([H])n2[H]


 24 28  0  0  0  0  0  0  0  0999 V2000
  -18.5492   11.5081  -19.1293 C   0  0  0  0  0  0  0  0  0  0  0  0
  -19.2488   12.7484  -19.6009 C   0  0  0  0  0  0  0  0  0  0  0  0
  -18.8175   13.4149  -20.8735 C   0  0  0  0  0  0  0  0  0  0  0  0
  -17.6865   12.8412  -21.6747 C   0  0  0  0  0  0  0  0  0  0  0  0
  -16.9868   11.6010  -21.2032 C   0  0  0  0  0  0  0  0  0  0  0  0
  -17.4182   10.9344  -19.9305 N   0  0  0  0  0  0  0  0  0  0  0  0
  -17.2552   13.5077  -22.9474 C   0  0  0  0  0  0  0  0  0  0  0  0
  -17.2841   12.7468  -24.2397 C   0  0  0  0  0  0  0  0  0  0  0  0
  -16.8528   13.4133  -25.5123 C   0  0  0  0  0  0  0  0  0  0  0  0
  -16.3926   14.8409  -25.4927 C   0  0  0  0  0  0  0  0  0  0  0  0
  -16.3638   15.6018  -24.2004 C   0  0  0  0  0  0  0  0  0  0  0  0
  -15.9620   17.0095  -23.8734 N   0  0  0  0  0  0  0  0  0  0  0  0
  -16.1449   17.2129  -22.3986 C   0  0  0  0  0  0  0  0  0  0  0  0
  -16.6598   15.9310  -21.8141 C   0  0  0  0  0  0  0  0  0  0  0  0
  -16.7951   14.9353  -22.9278 C   0  0  0  0  0  0  0  0  0  0  0  0
  -15.4645   18.0339  -24.8497 H   0  0  0  0  0  0  0  0  0  0  0  0
  -20.0484    8.4002  -13.9695 C   0  0  0  0  0  0  0  0  0  0  0  0
  -19.6171    9.0668  -15.2422 N   0  0  0  0  0  0  0  0  0  0  0  0
  -18.6289    8.5232  -16.2311 C   0  0  0  0  0  0  0  0  0  0  0  0
  -18.4993    9.5144  -17.3495 C   0  0  0  0  0  0  0  0  0  0  0  0
  -19.4074   10.6706  -17.0518 C   0  0  0  0  0  0  0  0  0  0  0  0
  -20.0983   10.3939  -15.7494 C   0  0  0  0  0  0  0  0  0  0  0  0
  -19.9687   11.3851  -16.8677 C   0  0  0  0  0  0  0  0  0  0  0  0
  -18.9805   10.8416  -17.8567 N   0  0  0  0  0  0  0  0  0  0  0  0
 17 18  1  0  0  0
 18 19  1  0  0  0
 19 20  1  0  0  0
 20 21  1  0  0  0
 21 22  1  0  0  0
 22 23  1  0  0  0
 23 24  1  0  0  0
 24  1  1  0  0  0
  1  2  2  0  0  0
  2  3  1  0  0  0
  3  4  2  0  0  0
  4  5  1  0  0  0
  5  6  2  0  0  0
  4  7  1  0  0  0
  7  8  1  0  0  0
  8  9  2  0  0  0
  9 10  1  0  0  0
 10 11  2  0  0  0
 11 12  1  0  0  0
 12 13  1  0  0  0
 13 14  2  0  0  0
 14 15  1  0  0  0
 22 18  1  0  0  0
  6  1  1  0  0  0
 15  7  2  0  0  0
 24 20  1  0  0  0
 15 11  1  0  0  0
 12 16  1  0  0  0
M  END
> <minimizedAffinity>
-8.49182

> <CNNscore>
0.5392816663

> <CNNaffinity>
6.0195465088

> <CNN_VS>
3.2462310791

> <CNNaffinity_variance>
0.1037037224

$$$$
[H]c1nc(N2C([H])([H])[C@@]3([H])N(C([H])([H])[H])C([H])([H])[C@@]2([H])C3([H])[H])c([H])c([H])c1-c1c([H])c([H])c([H])c2c1c([H])c([H])n2[H]


 24 28  0  0  0  0  0  0  0  0999 V2000
  -18.2607   11.8909  -19.3614 C   0  0  0  0  0  0  0  0  0  0  0  0
  -18.6859   13.3267  -19.4494 C   0  0  0  0  0  0  0  0  0  0  0  0
  -18.2132   14.1805  -20.5885 C   0  0  0  0  0  0  0  0  0  0  0  0
  -17.3152   13.5984  -21.6397 C   0  0  0  0  0  0  0  0  0  0  0  0
  -16.8900   12.1627  -21.5517 C   0  0  0  0  0  0  0  0  0  0  0  0
  -17.3628   11.3089  -20.4125 N   0  0  0  0  0  0  0  0  0  0  0  0
  -16.8425   14.4522  -22.7788 C   0  0  0  0  0  0  0  0  0  0  0  0
  -16.2222   15.7904  -22.5060 C   0  0  0  0  0  0  0  0  0  0  0  0
  -15.7495   16.6442  -23.6450 C   0  0  0  0  0  0  0  0  0  0  0  0
  -15.8971   16.1598  -25.0570 C   0  0  0  0  0  0  0  0  0  0  0  0
  -16.5173   14.8216  -25.3298 C   0  0  0  0  0  0  0  0  0  0  0  0
  -16.7929   14.0847  -26.6070 N   0  0  0  0  0  0  0  0  0  0  0  0
  -17.4359   12.7755  -26.2571 C   0  0  0  0  0  0  0  0  0  0  0  0
  -17.5578   12.7032  -24.7638 C   0  0  0  0  0  0  0  0  0  0  0  0
  -16.9901   13.9678  -24.1907 C   0  0  0  0  0  0  0  0  0  0  0  0
  -16.4803   14.5716  -27.9909 H   0  0  0  0  0  0  0  0  0  0  0  0
  -20.5105    8.6995  -14.5361 C   0  0  0  0  0  0  0  0  0  0  0  0
  -20.0377    9.5532  -15.6753 N   0  0  0  0  0  0  0  0  0  0  0  0
  -20.5425   10.9233  -16.0188 C   0  0  0  0  0  0  0  0  0  0  0  0
  -19.7939   11.4036  -17.2267 C   0  0  0  0  0  0  0  0  0  0  0  0
  -18.8265   10.3304  -17.6297 C   0  0  0  0  0  0  0  0  0  0  0  0
  -18.9772    9.1867  -16.6708 C   0  0  0  0  0  0  0  0  0  0  0  0
  -18.2287    9.6670  -17.8787 C   0  0  0  0  0  0  0  0  0  0  0  0
  -18.7334   11.0372  -18.2223 N   0  0  0  0  0  0  0  0  0  0  0  0
 17 18  1  0  0  0
 18 19  1  0  0  0
 19 20  1  0  0  0
 20 21  1  0  0  0
 21 22  1  0  0  0
 22 23  1  0  0  0
 23 24  1  0  0  0
 24  1  1  0  0  0
  1  2  2  0  0  0
  2  3  1  0  0  0
  3  4  2  0  0  0
  4  5  1  0  0  0
  5  6  2  0  0  0
  4  7  1  0  0  0
  7  8  1  0  0  0
  8  9  2  0  0  0
  9 10  1  0  0  0
 10 11  2  0  0  0
 11 12  1  0  0  0
 12 13  1  0  0  0
 13 14  2  0  0  0
 14 15  1  0  0  0
 22 18  1  0  0  0
  6  1  1  0  0  0
 15  7  2  0  0  0
 24 20  1  0  0  0
 15 11  1  0  0  0
 12 16  1  0  0  0
M  END
> <minimizedAffinity>
-8.69788

> <CNNscore>
0.5287102461

> <CNNaffinity>
6.1317038536

> <CNN_VS>
3.2418947220

> <CNNaffinity_variance>
0.1011290401

$$$$
[H]c1nc(N2C([H])([H])[C@@]3([H])N(C([H])([H])[H])C([H])([H])[C@@]2([H])C3([H])[H])c([H])c([H])c1-c1c([H])c([H])c([H])c2c1c([H])c([H])n2[H]


 24 28  0  0  0  0  0  0  0  0999 V2000
  -19.9025   10.1650  -15.2475 C   0  0  0  0  0  0  0  0  0  0  0  0
  -19.3382    9.3488  -16.3724 C   0  0  0  0  0  0  0  0  0  0  0  0
  -18.9442   10.0141  -17.6576 C   0  0  0  0  0  0  0  0  0  0  0  0
  -19.1144   11.4959  -17.8181 C   0  0  0  0  0  0  0  0  0  0  0  0
  -19.6787   12.3121  -16.6932 C   0  0  0  0  0  0  0  0  0  0  0  0
  -20.0727   11.6467  -15.4079 N   0  0  0  0  0  0  0  0  0  0  0  0
  -18.7204   12.1612  -19.1034 C   0  0  0  0  0  0  0  0  0  0  0  0
  -19.4231   13.4097  -19.5479 C   0  0  0  0  0  0  0  0  0  0  0  0
  -19.0291   14.0750  -20.8331 C   0  0  0  0  0  0  0  0  0  0  0  0
  -17.9323   13.4920  -21.6740 C   0  0  0  0  0  0  0  0  0  0  0  0
  -17.2295   12.2435  -21.2296 C   0  0  0  0  0  0  0  0  0  0  0  0
  -16.1196   11.4435  -21.8445 N   0  0  0  0  0  0  0  0  0  0  0  0
  -15.8277   10.2837  -20.9392 C   0  0  0  0  0  0  0  0  0  0  0  0
  -16.7572   10.3669  -19.7648 C   0  0  0  0  0  0  0  0  0  0  0  0
  -17.6236   11.5782  -19.9443 C   0  0  0  0  0  0  0  0  0  0  0  0
  -15.4238   11.7496  -23.1376 H   0  0  0  0  0  0  0  0  0  0  0  0
  -21.1067    7.5035   -9.7706 C   0  0  0  0  0  0  0  0  0  0  0  0
  -20.7127    8.1689  -11.0560 N   0  0  0  0  0  0  0  0  0  0  0  0
  -19.3769    8.7804  -11.3588 C   0  0  0  0  0  0  0  0  0  0  0  0
  -19.4239    9.3290  -12.7541 C   0  0  0  0  0  0  0  0  0  0  0  0
  -20.7888    9.0566  -13.3136 C   0  0  0  0  0  0  0  0  0  0  0  0
  -21.5853    8.3395  -12.2640 C   0  0  0  0  0  0  0  0  0  0  0  0
  -21.6323    8.8881  -13.6593 C   0  0  0  0  0  0  0  0  0  0  0  0
  -20.2965    9.4997  -13.9622 N   0  0  0  0  0  0  0  0  0  0  0  0
 17 18  1  0  0  0
 18 19  1  0  0  0
 19 20  1  0  0  0
 20 21  1  0  0  0
 21 22  1  0  0  0
 22 23  1  0  0  0
 23 24  1  0  0  0
 24  1  1  0  0  0
  1  2  2  0  0  0
  2  3  1  0  0  0
  3  4  2  0  0  0
  4  5  1  0  0  0
  5  6  2  0  0  0
  4  7  1  0  0  0
  7  8  1  0  0  0
  8  9  2  0  0  0
  9 10  1  0  0  0
 10 11  2  0  0  0
 11 12  1  0  0  0
 12 13  1  0  0  0
 13 14  2  0  0  0
 14 15  1  0  0  0
 22 18  1  0  0  0
  6  1  1  0  0  0
 15  7  2  0  0  0
 24 20  1  0  0  0
 15 11  1  0  0  0
 12 16  1  0  0  0
M  END
> <minimizedAffinity>
-7.39709

> <CNNscore>
0.4428017735

> <CNNaffinity>
5.4786133766

> <CNN_VS>
2.4259397984

> <CNNaffinity_variance>
0.0442113765

$$$$
[H]c1nc(N2C([H])([H])[C@@]3([H])N(C([H])([H])[H])C([H])([H])[C@@]2([H])C3([H])[H])c([H])c([H])c1-c1c([H])c([H])c([H])c2c1c([H])c([H])n2[H]


 24 28  0  0  0  0  0  0  0  0999 V2000
  -19.3870    9.9145  -16.5537 C   0  0  0  0  0  0  0  0  0  0  0  0
  -20.1653   11.1930  -16.6536 C   0  0  0  0  0  0  0  0  0  0  0  0
  -19.8940   12.1506  -17.7757 C   0  0  0  0  0  0  0  0  0  0  0  0
  -18.8443   11.8298  -18.7982 C   0  0  0  0  0  0  0  0  0  0  0  0
  -18.0659   10.5515  -18.6984 C   0  0  0  0  0  0  0  0  0  0  0  0
  -18.3373    9.5939  -17.5762 N   0  0  0  0  0  0  0  0  0  0  0  0
  -18.5730   12.7875  -19.9203 C   0  0  0  0  0  0  0  0  0  0  0  0
  -19.3381   14.0746  -20.0095 C   0  0  0  0  0  0  0  0  0  0  0  0
  -19.0669   15.0322  -21.1316 C   0  0  0  0  0  0  0  0  0  0  0  0
  -18.0304   14.7028  -22.1647 C   0  0  0  0  0  0  0  0  0  0  0  0
  -17.2652   13.4158  -22.0756 C   0  0  0  0  0  0  0  0  0  0  0  0
  -16.1921   12.8242  -22.9407 N   0  0  0  0  0  0  0  0  0  0  0  0
  -15.8002   11.5008  -22.3532 C   0  0  0  0  0  0  0  0  0  0  0  0
  -16.6311   11.2746  -21.1250 C   0  0  0  0  0  0  0  0  0  0  0  0
  -17.5365   12.4581  -20.9534 C   0  0  0  0  0  0  0  0  0  0  0  0
  -15.6127   13.4466  -24.1764 H   0  0  0  0  0  0  0  0  0  0  0  0
  -20.2142    6.1984  -11.6511 C   0  0  0  0  0  0  0  0  0  0  0  0
  -19.9429    7.1560  -12.7733 N   0  0  0  0  0  0  0  0  0  0  0  0
  -19.0180    8.3358  -12.7214 C   0  0  0  0  0  0  0  0  0  0  0  0
  -19.0523    9.0109  -14.0604 C   0  0  0  0  0  0  0  0  0  0  0  0
  -19.9984    8.2484  -14.9400 C   0  0  0  0  0  0  0  0  0  0  0  0
  -20.5488    7.1020  -14.1444 C   0  0  0  0  0  0  0  0  0  0  0  0
  -20.5832    7.7771  -15.4835 C   0  0  0  0  0  0  0  0  0  0  0  0
  -19.6583    8.9570  -15.4316 N   0  0  0  0  0  0  0  0  0  0  0  0
 17 18  1  0  0  0
 18 19  1  0  0  0
 19 20  1  0  0  0
 20 21  1  0  0  0
 21 22  1  0  0  0
 22 23  1  0  0  0
 23 24  1  0  0  0
 24  1  1  0  0  0
  1  2  2  0  0  0
  2  3  1  0  0  0
  3  4  2  0  0  0
  4  5  1  0  0  0
  5  6  2  0  0  0
  4  7  1  0  0  0
  7  8  1  0  0  0
  8  9  2  0  0  0
  9 10  1  0  0  0
 10 11  2  0  0  0
 11 12  1  0  0  0
 12 13  1  0  0  0
 13 14  2  0  0  0
 14 15  1  0  0  0
 22 18  1  0  0  0
  6  1  1  0  0  0
 15  7  2  0  0  0
 24 20  1  0  0  0
 15 11  1  0  0  0
 12 16  1  0  0  0
M  END
> <minimizedAffinity>
-7.33816

> <CNNscore>
0.3998661637

> <CNNaffinity>
5.7901663780

> <CNN_VS>
2.3152916431

> <CNNaffinity_variance>
0.1713514030

$$$$
[H]c1nc(N2C([H])([H])[C@@]3([H])N(C([H])([H])[H])C([H])([H])[C@@]2([H])C3([H])[H])c([H])c([H])c1-c1c([H])c([H])c([H])c2c1c([H])c([H])n2[H]


 24 28  0  0  0  0  0  0  0  0999 V2000
  -17.7085   13.4198  -21.4808 C   0  0  0  0  0  0  0  0  0  0  0  0
  -19.0193   14.0329  -21.0858 C   0  0  0  0  0  0  0  0  0  0  0  0
  -19.6932   13.6081  -19.8148 C   0  0  0  0  0  0  0  0  0  0  0  0
  -19.0564   12.5702  -18.9388 C   0  0  0  0  0  0  0  0  0  0  0  0
  -17.7456   11.9571  -19.3338 C   0  0  0  0  0  0  0  0  0  0  0  0
  -17.0717   12.3820  -20.6048 N   0  0  0  0  0  0  0  0  0  0  0  0
  -19.7303   12.1455  -17.6678 C   0  0  0  0  0  0  0  0  0  0  0  0
  -20.6800   13.0771  -16.9750 C   0  0  0  0  0  0  0  0  0  0  0  0
  -21.3540   12.6524  -15.7041 C   0  0  0  0  0  0  0  0  0  0  0  0
  -21.0782   11.2960  -15.1259 C   0  0  0  0  0  0  0  0  0  0  0  0
  -20.1285   10.3644  -15.8187 C   0  0  0  0  0  0  0  0  0  0  0  0
  -19.6638    8.9768  -15.4889 N   0  0  0  0  0  0  0  0  0  0  0  0
  -18.7027    8.5440  -16.5561 C   0  0  0  0  0  0  0  0  0  0  0  0
  -18.5733    9.6640  -17.5455 C   0  0  0  0  0  0  0  0  0  0  0  0
  -19.4545   10.7891  -17.0897 C   0  0  0  0  0  0  0  0  0  0  0  0
  -20.0861    8.1647  -14.3006 H   0  0  0  0  0  0  0  0  0  0  0  0
  -14.7327   15.5296  -26.5031 C   0  0  0  0  0  0  0  0  0  0  0  0
  -15.4067   15.1048  -25.2321 N   0  0  0  0  0  0  0  0  0  0  0  0
  -15.2928   15.7896  -23.9024 C   0  0  0  0  0  0  0  0  0  0  0  0
  -16.1285   15.0287  -22.9162 C   0  0  0  0  0  0  0  0  0  0  0  0
  -16.7589   13.8736  -23.6363 C   0  0  0  0  0  0  0  0  0  0  0  0
  -16.3127   13.9207  -25.0677 C   0  0  0  0  0  0  0  0  0  0  0  0
  -17.1484   13.1598  -24.0815 C   0  0  0  0  0  0  0  0  0  0  0  0
  -17.0346   13.8445  -22.7517 N   0  0  0  0  0  0  0  0  0  0  0  0
 17 18  1  0  0  0
 18 19  1  0  0  0
 19 20  1  0  0  0
 20 21  1  0  0  0
 21 22  1  0  0  0
 22 23  1  0  0  0
 23 24  1  0  0  0
 24  1  1  0  0  0
  1  2  2  0  0  0
  2  3  1  0  0  0
  3  4  2  0  0  0
  4  5  1  0  0  0
  5  6  2  0  0  0
  4  7  1  0  0  0
  7  8  1  0  0  0
  8  9  2  0  0  0
  9 10  1  0  0  0
 10 11  2  0  0  0
 11 12  1  0  0  0
 12 13  1  0  0  0
 13 14  2  0  0  0
 14 15  1  0  0  0
 22 18  1  0  0  0
  6  1  1  0  0  0
 15  7  2  0  0  0
 24 20  1  0  0  0
 15 11  1  0  0  0
 12 16  1  0  0  0
M  END
> <minimizedAffinity>
-8.29040

> <CNNscore>
0.3915188611

> <CNNaffinity>
6.0871844292

> <CNN_VS>
2.3832476139

> <CNNaffinity_variance>
0.0954405591

$$$$
[H]c1nc(N2C([H])([H])[C@@]3([H])N(C([H])([H])[H])C([H])([H])[C@@]2([H])C3([H])[H])c([H])c([H])c1-c1c([H])c([H])c([H])c2c1c([H])c([H])n2[H]


 24 28  0  0  0  0  0  0  0  0999 V2000
  -17.2780   12.8047  -21.9941 C   0  0  0  0  0  0  0  0  0  0  0  0
  -16.6674   11.5262  -21.5012 C   0  0  0  0  0  0  0  0  0  0  0  0
  -17.1514   10.9076  -20.2234 C   0  0  0  0  0  0  0  0  0  0  0  0
  -18.2461   11.5674  -19.4383 C   0  0  0  0  0  0  0  0  0  0  0  0
  -18.8568   12.8458  -19.9310 C   0  0  0  0  0  0  0  0  0  0  0  0
  -18.3727   13.4644  -21.2090 N   0  0  0  0  0  0  0  0  0  0  0  0
  -18.7302   10.9487  -18.1604 C   0  0  0  0  0  0  0  0  0  0  0  0
  -18.2873    9.5667  -17.7814 C   0  0  0  0  0  0  0  0  0  0  0  0
  -18.7712    8.9480  -16.5036 C   0  0  0  0  0  0  0  0  0  0  0  0
  -19.6982    9.7114  -15.6046 C   0  0  0  0  0  0  0  0  0  0  0  0
  -20.1411   11.0935  -15.9836 C   0  0  0  0  0  0  0  0  0  0  0  0
  -21.0429   12.0803  -15.3032 N   0  0  0  0  0  0  0  0  0  0  0  0
  -21.1161   13.3089  -16.1606 C   0  0  0  0  0  0  0  0  0  0  0  0
  -20.2597   13.0814  -17.3709 C   0  0  0  0  0  0  0  0  0  0  0  0
  -19.6571   11.7121  -17.2615 C   0  0  0  0  0  0  0  0  0  0  0  0
  -21.7476   11.8747  -13.9951 H   0  0  0  0  0  0  0  0  0  0  0  0
  -14.9442   15.5755  -27.0345 C   0  0  0  0  0  0  0  0  0  0  0  0
  -15.4283   14.9568  -25.7566 N   0  0  0  0  0  0  0  0  0  0  0  0
  -14.8321   15.1636  -24.3958 C   0  0  0  0  0  0  0  0  0  0  0  0
  -15.6288   14.3574  -23.4133 C   0  0  0  0  0  0  0  0  0  0  0  0
  -16.7174   13.6522  -24.1669 C   0  0  0  0  0  0  0  0  0  0  0  0
  -16.5934   14.0227  -25.6152 C   0  0  0  0  0  0  0  0  0  0  0  0
  -17.3901   13.2165  -24.6328 C   0  0  0  0  0  0  0  0  0  0  0  0
  -16.7940   13.4233  -23.2719 N   0  0  0  0  0  0  0  0  0  0  0  0
 17 18  1  0  0  0
 18 19  1  0  0  0
 19 20  1  0  0  0
 20 21  1  0  0  0
 21 22  1  0  0  0
 22 23  1  0  0  0
 23 24  1  0  0  0
 24  1  1  0  0  0
  1  2  2  0  0  0
  2  3  1  0  0  0
  3  4  2  0  0  0
  4  5  1  0  0  0
  5  6  2  0  0  0
  4  7  1  0  0  0
  7  8  1  0  0  0
  8  9  2  0  0  0
  9 10  1  0  0  0
 10 11  2  0  0  0
 11 12  1  0  0  0
 12 13  1  0  0  0
 13 14  2  0  0  0
 14 15  1  0  0  0
 22 18  1  0  0  0
  6  1  1  0  0  0
 15  7  2  0  0  0
 24 20  1  0  0  0
 15 11  1  0  0  0
 12 16  1  0  0  0
M  END
> <minimizedAffinity>
-8.85320

> <CNNscore>
0.3775315285

> <CNNaffinity>
6.0457477570

> <CNN_VS>
2.2824604511

> <CNNaffinity_variance>
0.0681062192

$$$$
[H]c1nc(N2C([H])([H])[C@@]3([H])N(C([H])([H])[H])C([H])([H])[C@@]2([H])C3([H])[H])c([H])c([H])c1-c1c([H])c([H])c([H])c2c1c([H])c([H])n2[H]


 24 28  0  0  0  0  0  0  0  0999 V2000
  -17.3048   12.8674  -21.8993 C   0  0  0  0  0  0  0  0  0  0  0  0
  -16.6153   11.6340  -21.3960 C   0  0  0  0  0  0  0  0  0  0  0  0
  -17.0867   10.9729  -20.1349 C   0  0  0  0  0  0  0  0  0  0  0  0
  -18.2478   11.5452  -19.3769 C   0  0  0  0  0  0  0  0  0  0  0  0
  -18.9374   12.7786  -19.8801 C   0  0  0  0  0  0  0  0  0  0  0  0
  -18.4659   13.4397  -21.1413 N   0  0  0  0  0  0  0  0  0  0  0  0
  -18.7193   10.8840  -18.1157 C   0  0  0  0  0  0  0  0  0  0  0  0
  -18.2629    9.4948  -17.7813 C   0  0  0  0  0  0  0  0  0  0  0  0
  -18.7343    8.8337  -16.5202 C   0  0  0  0  0  0  0  0  0  0  0  0
  -19.6622    9.5617  -15.5933 C   0  0  0  0  0  0  0  0  0  0  0  0
  -20.1187   10.9509  -15.9277 C   0  0  0  0  0  0  0  0  0  0  0  0
  -21.0245   11.9090  -15.2127 N   0  0  0  0  0  0  0  0  0  0  0  0
  -21.1129   13.1624  -16.0319 C   0  0  0  0  0  0  0  0  0  0  0  0
  -20.2617   12.9789  -17.2533 C   0  0  0  0  0  0  0  0  0  0  0  0
  -19.6472   11.6120  -17.1889 C   0  0  0  0  0  0  0  0  0  0  0  0
  -21.7199   11.6579  -13.9075 H   0  0  0  0  0  0  0  0  0  0  0  0
  -15.6674   15.3500  -27.3478 C   0  0  0  0  0  0  0  0  0  0  0  0
  -16.1389   14.6889  -26.0866 N   0  0  0  0  0  0  0  0  0  0  0  0
  -17.2229   13.6572  -25.9840 C   0  0  0  0  0  0  0  0  0  0  0  0
  -17.3631   13.2740  -24.5406 C   0  0  0  0  0  0  0  0  0  0  0  0
  -16.3658   14.0690  -23.7510 C   0  0  0  0  0  0  0  0  0  0  0  0
  -15.6092   14.9434  -24.7065 C   0  0  0  0  0  0  0  0  0  0  0  0
  -15.7494   14.5603  -23.2631 C   0  0  0  0  0  0  0  0  0  0  0  0
  -16.8334   13.5285  -23.1604 N   0  0  0  0  0  0  0  0  0  0  0  0
 17 18  1  0  0  0
 18 19  1  0  0  0
 19 20  1  0  0  0
 20 21  1  0  0  0
 21 22  1  0  0  0
 22 23  1  0  0  0
 23 24  1  0  0  0
 24  1  1  0  0  0
  1  2  2  0  0  0
  2  3  1  0  0  0
  3  4  2  0  0  0
  4  5  1  0  0  0
  5  6  2  0  0  0
  4  7  1  0  0  0
  7  8  1  0  0  0
  8  9  2  0  0  0
  9 10  1  0  0  0
 10 11  2  0  0  0
 11 12  1  0  0  0
 12 13  1  0  0  0
 13 14  2  0  0  0
 14 15  1  0  0  0
 22 18  1  0  0  0
  6  1  1  0  0  0
 15  7  2  0  0  0
 24 20  1  0  0  0
 15 11  1  0  0  0
 12 16  1  0  0  0
M  END
> <minimizedAffinity>
-8.69112

> <CNNscore>
0.3611131608

> <CNNaffinity>
6.0189599991

> <CNN_VS>
2.1735255718

> <CNNaffinity_variance>
0.0716979355

$$$$
[H]c1nc(N2C([H])([H])[C@@]3([H])N(C([H])([H])[H])C([H])([H])[C@@]2([H])C3([H])[H])c([H])c([H])c1-c1c([H])c([H])c([H])c2c1c([H])c([H])n2[H]


 24 28  0  0  0  0  0  0  0  0999 V2000
  -18.0434   12.1761  -19.5689 C   0  0  0  0  0  0  0  0  0  0  0  0
  -17.5063   11.4219  -20.7491 C   0  0  0  0  0  0  0  0  0  0  0  0
  -16.8856   12.1649  -21.8948 C   0  0  0  0  0  0  0  0  0  0  0  0
  -16.8021   13.6622  -21.8604 C   0  0  0  0  0  0  0  0  0  0  0  0
  -17.3391   14.4165  -20.6803 C   0  0  0  0  0  0  0  0  0  0  0  0
  -17.9598   13.6734  -19.5346 N   0  0  0  0  0  0  0  0  0  0  0  0
  -16.1814   14.4053  -23.0062 C   0  0  0  0  0  0  0  0  0  0  0  0
  -15.0491   13.7899  -23.7738 C   0  0  0  0  0  0  0  0  0  0  0  0
  -14.4285   14.5328  -24.9194 C   0  0  0  0  0  0  0  0  0  0  0  0
  -14.9401   15.8913  -25.2977 C   0  0  0  0  0  0  0  0  0  0  0  0
  -16.0724   16.5066  -24.5301 C   0  0  0  0  0  0  0  0  0  0  0  0
  -16.7832   17.8200  -24.6703 N   0  0  0  0  0  0  0  0  0  0  0  0
  -17.8432   17.8888  -23.6112 C   0  0  0  0  0  0  0  0  0  0  0  0
  -17.7875   16.6178  -22.8164 C   0  0  0  0  0  0  0  0  0  0  0  0
  -16.6930   15.7636  -23.3843 C   0  0  0  0  0  0  0  0  0  0  0  0
  -16.4862   18.8788  -25.6905 H   0  0  0  0  0  0  0  0  0  0  0  0
  -20.3239    8.7501  -14.9223 C   0  0  0  0  0  0  0  0  0  0  0  0
  -19.7033    9.4931  -16.0681 N   0  0  0  0  0  0  0  0  0  0  0  0
  -18.6038    8.9877  -16.9545 C   0  0  0  0  0  0  0  0  0  0  0  0
  -18.2942   10.0542  -17.9628 C   0  0  0  0  0  0  0  0  0  0  0  0
  -19.2022   11.2188  -17.6995 C   0  0  0  0  0  0  0  0  0  0  0  0
  -20.0731   10.8720  -16.5285 C   0  0  0  0  0  0  0  0  0  0  0  0
  -19.7634   11.9385  -17.5367 C   0  0  0  0  0  0  0  0  0  0  0  0
  -18.6640   11.4332  -18.4233 N   0  0  0  0  0  0  0  0  0  0  0  0
 17 18  1  0  0  0
 18 19  1  0  0  0
 19 20  1  0  0  0
 20 21  1  0  0  0
 21 22  1  0  0  0
 22 23  1  0  0  0
 23 24  1  0  0  0
 24  1  1  0  0  0
  1  2  2  0  0  0
  2  3  1  0  0  0
  3  4  2  0  0  0
  4  5  1  0  0  0
  5  6  2  0  0  0
  4  7  1  0  0  0
  7  8  1  0  0  0
  8  9  2  0  0  0
  9 10  1  0  0  0
 10 11  2  0  0  0
 11 12  1  0  0  0
 12 13  1  0  0  0
 13 14  2  0  0  0
 14 15  1  0  0  0
 22 18  1  0  0  0
  6  1  1  0  0  0
 15  7  2  0  0  0
 24 20  1  0  0  0
 15 11  1  0  0  0
 12 16  1  0  0  0
M  END
> <minimizedAffinity>
-8.62680

> <CNNscore>
0.3477206826

> <CNNaffinity>
5.8844671249

> <CNN_VS>
2.0461509228

> <CNNaffinity_variance>
0.1104206219

$$$$
[H]O[C@]1([H])C([H])([H])C([H])([H])[C@@]([H])(n2c([H])c(-c3c([H])c([H])c(S(=O)(=O)C([H])([H])[H])c(F)c3[H])c3c([H])nc(N([H])C([H])([H])C([H])([H])C([H])([H])C([H])([H])[H])nc32)C([H])([H])C1([H])[H]


 34 37  0  0  0  0  0  0  0  0999 V2000
  -16.4236   12.8723  -22.9168 C   0  0  0  0  0  0  0  0  0  0  0  0
  -16.6207   11.6702  -22.3474 N   0  0  0  0  0  0  0  0  0  0  0  0
  -17.2359   11.5155  -21.1550 C   0  0  0  0  0  0  0  0  0  0  0  0
  -17.6854   12.6237  -20.4825 C   0  0  0  0  0  0  0  0  0  0  0  0
  -18.3322   12.7711  -19.2804 C   0  0  0  0  0  0  0  0  0  0  0  0
  -18.5218   14.1518  -19.1464 C   0  0  0  0  0  0  0  0  0  0  0  0
  -18.0081   14.7754  -20.2216 N   0  0  0  0  0  0  0  0  0  0  0  0
  -17.4839   13.8609  -21.0662 C   0  0  0  0  0  0  0  0  0  0  0  0
  -16.8578   13.9483  -22.2681 N   0  0  0  0  0  0  0  0  0  0  0  0
  -18.0081   16.2051  -20.4548 C   0  0  0  0  0  0  0  0  0  0  0  0
  -18.9208   16.8790  -19.4606 C   0  0  0  0  0  0  0  0  0  0  0  0
  -18.7705   18.3678  -19.4535 C   0  0  0  0  0  0  0  0  0  0  0  0
  -17.8777   18.8966  -20.5306 C   0  0  0  0  0  0  0  0  0  0  0  0
  -18.4200   18.8165  -21.8012 O   0  0  0  0  0  0  0  0  0  0  0  0
  -16.5382   18.2162  -20.5304 C   0  0  0  0  0  0  0  0  0  0  0  0
  -16.6162   16.7560  -20.2302 C   0  0  0  0  0  0  0  0  0  0  0  0
  -17.7182   18.6701  -22.4882 H   0  0  0  0  0  0  0  0  0  0  0  0
  -18.7422   11.7437  -18.3315 C   0  0  0  0  0  0  0  0  0  0  0  0
  -18.1217   10.5034  -18.3416 C   0  0  0  0  0  0  0  0  0  0  0  0
  -18.4950    9.5050  -17.4479 C   0  0  0  0  0  0  0  0  0  0  0  0
  -19.4873    9.7304  -16.5374 C   0  0  0  0  0  0  0  0  0  0  0  0
  -20.1052   10.9605  -16.5248 C   0  0  0  0  0  0  0  0  0  0  0  0
  -21.0828   11.2243  -15.6491 F   0  0  0  0  0  0  0  0  0  0  0  0
  -19.7419   11.9631  -17.4103 C   0  0  0  0  0  0  0  0  0  0  0  0
  -20.0121    8.5261  -15.3826 S   0  0  0  0  0  0  0  0  0  0  0  0
  -19.5250    9.0941  -13.7620 C   0  0  0  0  0  0  0  0  0  0  0  0
  -21.5220    8.5217  -15.4056 O   0  0  0  0  0  0  0  0  0  0  0  0
  -19.4460    7.1941  -15.6984 O   0  0  0  0  0  0  0  0  0  0  0  0
  -15.7640   12.9215  -24.1761 N   0  0  0  0  0  0  0  0  0  0  0  0
  -15.5230   12.0574  -24.7082 H   0  0  0  0  0  0  0  0  0  0  0  0
  -15.3875   14.1837  -24.7939 C   0  0  0  0  0  0  0  0  0  0  0  0
  -16.1604   14.4712  -26.0334 C   0  0  0  0  0  0  0  0  0  0  0  0
  -16.1468   15.5669  -28.2853 C   0  0  0  0  0  0  0  0  0  0  0  0
  -15.5058   15.4683  -26.9407 C   0  0  0  0  0  0  0  0  0  0  0  0
 33 34  1  0  0  0
 34 32  1  0  0  0
 32 31  1  0  0  0
 31 29  1  0  0  0
 29  1  1  0  0  0
  1  2  2  0  0  0
  2  3  1  0  0  0
  3  4  2  0  0  0
  4  5  1  0  0  0
  5  6  2  0  0  0
  6  7  1  0  0  0
  7 10  1  0  0  0
 10 11  1  0  0  0
 11 12  1  0  0  0
 12 13  1  0  0  0
 13 14  1  0  0  0
 13 15  1  0  0  0
 15 16  1  0  0  0
  7  8  1  0  0  0
  8  9  2  0  0  0
  5 18  1  0  0  0
 18 19  2  0  0  0
 19 20  1  0  0  0
 20 21  2  0  0  0
 21 22  1  0  0  0
 22 23  1  0  0  0
 22 24  2  0  0  0
 21 25  1  0  0  0
 25 26  1  0  0  0
 25 27  2  0  0  0
 25 28  2  0  0  0
  9  1  1  0  0  0
 24 18  1  0  0  0
  8  4  1  0  0  0
 16 10  1  0  0  0
 29 30  1  0  0  0
 14 17  1  0  0  0
M  END
> <minimizedAffinity>
-9.35906

> <CNNscore>
0.5566177964

> <CNNaffinity>
7.3290481567

> <CNN_VS>
4.0794787407

> <CNNaffinity_variance>
0.0519398227

$$$$
[H]O[C@]1([H])C([H])([H])C([H])([H])[C@@]([H])(n2c([H])c(-c3c([H])c([H])c(S(=O)(=O)C([H])([H])[H])c(F)c3[H])c3c([H])nc(N([H])C([H])([H])C([H])([H])C([H])([H])C([H])([H])[H])nc32)C([H])([H])C1([H])[H]


 34 37  0  0  0  0  0  0  0  0999 V2000
  -16.6377   12.8456  -22.9335 C   0  0  0  0  0  0  0  0  0  0  0  0
  -16.8838   11.6554  -22.3581 N   0  0  0  0  0  0  0  0  0  0  0  0
  -17.4776   11.5332  -21.1511 C   0  0  0  0  0  0  0  0  0  0  0  0
  -17.8521   12.6634  -20.4694 C   0  0  0  0  0  0  0  0  0  0  0  0
  -18.4613   12.8444  -19.2523 C   0  0  0  0  0  0  0  0  0  0  0  0
  -18.5749   14.2331  -19.1156 C   0  0  0  0  0  0  0  0  0  0  0  0
  -18.0552   14.8290  -20.2035 N   0  0  0  0  0  0  0  0  0  0  0  0
  -17.6001   13.8884  -21.0592 C   0  0  0  0  0  0  0  0  0  0  0  0
  -16.9992   13.9428  -22.2759 N   0  0  0  0  0  0  0  0  0  0  0  0
  -17.9858   16.2568  -20.4384 C   0  0  0  0  0  0  0  0  0  0  0  0
  -18.8783   16.9741  -19.4562 C   0  0  0  0  0  0  0  0  0  0  0  0
  -18.6590   18.4543  -19.4490 C   0  0  0  0  0  0  0  0  0  0  0  0
  -17.7294   18.9391  -20.5157 C   0  0  0  0  0  0  0  0  0  0  0  0
  -18.2593   18.8822  -21.7928 O   0  0  0  0  0  0  0  0  0  0  0  0
  -16.4232   18.1972  -20.4983 C   0  0  0  0  0  0  0  0  0  0  0  0
  -16.5727   16.7428  -20.1973 C   0  0  0  0  0  0  0  0  0  0  0  0
  -17.5568   18.7021  -22.4710 H   0  0  0  0  0  0  0  0  0  0  0  0
  -18.9017   11.8399  -18.2926 C   0  0  0  0  0  0  0  0  0  0  0  0
  -19.9730   12.1059  -17.4531 C   0  0  0  0  0  0  0  0  0  0  0  0
  -20.4123   11.1654  -16.5272 C   0  0  0  0  0  0  0  0  0  0  0  0
  -19.7911    9.9534  -16.4279 C   0  0  0  0  0  0  0  0  0  0  0  0
  -18.7273    9.6863  -17.2597 C   0  0  0  0  0  0  0  0  0  0  0  0
  -18.0893    8.5111  -17.1961 F   0  0  0  0  0  0  0  0  0  0  0  0
  -18.2806   10.6156  -18.1862 C   0  0  0  0  0  0  0  0  0  0  0  0
  -20.2847    8.7204  -15.2898 S   0  0  0  0  0  0  0  0  0  0  0  0
  -19.1456    8.7760  -13.9167 C   0  0  0  0  0  0  0  0  0  0  0  0
  -21.6342    9.1321  -14.7514 O   0  0  0  0  0  0  0  0  0  0  0  0
  -20.3230    7.3835  -15.9267 O   0  0  0  0  0  0  0  0  0  0  0  0
  -16.0068   12.8602  -24.2083 N   0  0  0  0  0  0  0  0  0  0  0  0
  -15.9455   12.0067  -24.8047 H   0  0  0  0  0  0  0  0  0  0  0  0
  -15.4100   14.0700  -24.7528 C   0  0  0  0  0  0  0  0  0  0  0  0
  -16.2347   14.6848  -25.8291 C   0  0  0  0  0  0  0  0  0  0  0  0
  -15.9952   15.4850  -28.1901 C   0  0  0  0  0  0  0  0  0  0  0  0
  -15.4480   15.5106  -26.8013 C   0  0  0  0  0  0  0  0  0  0  0  0
 33 34  1  0  0  0
 34 32  1  0  0  0
 32 31  1  0  0  0
 31 29  1  0  0  0
 29  1  1  0  0  0
  1  2  2  0  0  0
  2  3  1  0  0  0
  3  4  2  0  0  0
  4  5  1  0  0  0
  5  6  2  0  0  0
  6  7  1  0  0  0
  7 10  1  0  0  0
 10 11  1  0  0  0
 11 12  1  0  0  0
 12 13  1  0  0  0
 13 14  1  0  0  0
 13 15  1  0  0  0
 15 16  1  0  0  0
  7  8  1  0  0  0
  8  9  2  0  0  0
  5 18  1  0  0  0
 18 19  2  0  0  0
 19 20  1  0  0  0
 20 21  2  0  0  0
 21 22  1  0  0  0
 22 23  1  0  0  0
 22 24  2  0  0  0
 21 25  1  0  0  0
 25 26  1  0  0  0
 25 27  2  0  0  0
 25 28  2  0  0  0
  9  1  1  0  0  0
 24 18  1  0  0  0
  8  4  1  0  0  0
 16 10  1  0  0  0
 29 30  1  0  0  0
 14 17  1  0  0  0
M  END
> <minimizedAffinity>
-9.28543

> <CNNscore>
0.5460600257

> <CNNaffinity>
7.2540235519

> <CNN_VS>
3.9611322880

> <CNNaffinity_variance>
0.0379388854

$$$$
[H]O[C@]1([H])C([H])([H])C([H])([H])[C@@]([H])(n2c([H])c(-c3c([H])c([H])c(S(=O)(=O)C([H])([H])[H])c(F)c3[H])c3c([H])nc(N([H])C([H])([H])C([H])([H])C([H])([H])C([H])([H])[H])nc32)C([H])([H])C1([H])[H]


 34 37  0  0  0  0  0  0  0  0999 V2000
  -16.6235   12.8981  -22.8024 C   0  0  0  0  0  0  0  0  0  0  0  0
  -16.8906   11.6820  -22.2946 N   0  0  0  0  0  0  0  0  0  0  0  0
  -17.4576   11.5021  -21.0820 C   0  0  0  0  0  0  0  0  0  0  0  0
  -17.7813   12.5979  -20.3227 C   0  0  0  0  0  0  0  0  0  0  0  0
  -18.3545   12.7204  -19.0811 C   0  0  0  0  0  0  0  0  0  0  0  0
  -18.4233   14.1006  -18.8566 C   0  0  0  0  0  0  0  0  0  0  0  0
  -17.9132   14.7478  -19.9195 N   0  0  0  0  0  0  0  0  0  0  0  0
  -17.5076   13.8495  -20.8429 C   0  0  0  0  0  0  0  0  0  0  0  0
  -16.9358   13.9622  -22.0696 N   0  0  0  0  0  0  0  0  0  0  0  0
  -17.8071   16.1849  -20.0683 C   0  0  0  0  0  0  0  0  0  0  0  0
  -16.3699   16.5607  -20.3304 C   0  0  0  0  0  0  0  0  0  0  0  0
  -16.2137   17.9843  -20.7641 C   0  0  0  0  0  0  0  0  0  0  0  0
  -17.4749   18.7854  -20.6955 C   0  0  0  0  0  0  0  0  0  0  0  0
  -17.8880   19.0759  -19.4071 O   0  0  0  0  0  0  0  0  0  0  0  0
  -18.6029   18.1159  -21.4279 C   0  0  0  0  0  0  0  0  0  0  0  0
  -18.6132   16.6316  -21.2691 C   0  0  0  0  0  0  0  0  0  0  0  0
  -18.8778   19.1214  -19.3435 H   0  0  0  0  0  0  0  0  0  0  0  0
  -18.8006   11.6712  -18.1732 C   0  0  0  0  0  0  0  0  0  0  0  0
  -18.1719   10.4350  -18.1799 C   0  0  0  0  0  0  0  0  0  0  0  0
  -18.5790    9.4161  -17.3251 C   0  0  0  0  0  0  0  0  0  0  0  0
  -19.6137    9.6168  -16.4569 C   0  0  0  0  0  0  0  0  0  0  0  0
  -20.2401   10.8427  -16.4478 C   0  0  0  0  0  0  0  0  0  0  0  0
  -21.2588   11.0826  -15.6130 F   0  0  0  0  0  0  0  0  0  0  0  0
  -19.8432   11.8655  -17.2950 C   0  0  0  0  0  0  0  0  0  0  0  0
  -20.1829    8.3858  -15.3524 S   0  0  0  0  0  0  0  0  0  0  0  0
  -19.8296    8.9511  -13.6966 C   0  0  0  0  0  0  0  0  0  0  0  0
  -21.6866    8.3373  -15.4831 O   0  0  0  0  0  0  0  0  0  0  0  0
  -19.5561    7.0743  -15.6379 O   0  0  0  0  0  0  0  0  0  0  0  0
  -16.0243   12.9738  -24.0903 N   0  0  0  0  0  0  0  0  0  0  0  0
  -16.1352   12.2150  -24.7973 H   0  0  0  0  0  0  0  0  0  0  0  0
  -15.2209   14.1174  -24.4943 C   0  0  0  0  0  0  0  0  0  0  0  0
  -15.7373   14.7781  -25.7245 C   0  0  0  0  0  0  0  0  0  0  0  0
  -15.8794   16.7607  -24.2011 C   0  0  0  0  0  0  0  0  0  0  0  0
  -16.3172   16.1392  -25.4859 C   0  0  0  0  0  0  0  0  0  0  0  0
 33 34  1  0  0  0
 34 32  1  0  0  0
 32 31  1  0  0  0
 31 29  1  0  0  0
 29  1  1  0  0  0
  1  2  2  0  0  0
  2  3  1  0  0  0
  3  4  2  0  0  0
  4  5  1  0  0  0
  5  6  2  0  0  0
  6  7  1  0  0  0
  7 10  1  0  0  0
 10 11  1  0  0  0
 11 12  1  0  0  0
 12 13  1  0  0  0
 13 14  1  0  0  0
 13 15  1  0  0  0
 15 16  1  0  0  0
  7  8  1  0  0  0
  8  9  2  0  0  0
  5 18  1  0  0  0
 18 19  2  0  0  0
 19 20  1  0  0  0
 20 21  2  0  0  0
 21 22  1  0  0  0
 22 23  1  0  0  0
 22 24  2  0  0  0
 21 25  1  0  0  0
 25 26  1  0  0  0
 25 27  2  0  0  0
 25 28  2  0  0  0
  9  1  1  0  0  0
 24 18  1  0  0  0
  8  4  1  0  0  0
 16 10  1  0  0  0
 29 30  1  0  0  0
 14 17  1  0  0  0
M  END
> <minimizedAffinity>
-9.15444

> <CNNscore>
0.4940237105

> <CNNaffinity>
7.2870802879

> <CNN_VS>
3.5999903679

> <CNNaffinity_variance>
0.0618029349

$$$$
[H]O[C@]1([H])C([H])([H])C([H])([H])[C@@]([H])(n2c([H])c(-c3c([H])c([H])c(S(=O)(=O)C([H])([H])[H])c(F)c3[H])c3c([H])nc(N([H])C([H])([H])C([H])([H])C([H])([H])C([H])([H])[H])nc32)C([H])([H])C1([H])[H]


 34 37  0  0  0  0  0  0  0  0999 V2000
  -16.6895   12.9427  -22.7567 C   0  0  0  0  0  0  0  0  0  0  0  0
  -16.9764   11.7325  -22.2458 N   0  0  0  0  0  0  0  0  0  0  0  0
  -17.5557   11.5655  -21.0371 C   0  0  0  0  0  0  0  0  0  0  0  0
  -17.8714   12.6689  -20.2853 C   0  0  0  0  0  0  0  0  0  0  0  0
  -18.4531   12.8044  -19.0491 C   0  0  0  0  0  0  0  0  0  0  0  0
  -18.5059   14.1864  -18.8314 C   0  0  0  0  0  0  0  0  0  0  0  0
  -17.9788   14.8221  -19.8928 N   0  0  0  0  0  0  0  0  0  0  0  0
  -17.5773   13.9144  -20.8089 C   0  0  0  0  0  0  0  0  0  0  0  0
  -16.9940   14.0142  -22.0313 N   0  0  0  0  0  0  0  0  0  0  0  0
  -17.8529   16.2570  -20.0472 C   0  0  0  0  0  0  0  0  0  0  0  0
  -16.4191   16.6075  -20.3587 C   0  0  0  0  0  0  0  0  0  0  0  0
  -16.2532   18.0279  -20.7994 C   0  0  0  0  0  0  0  0  0  0  0  0
  -17.4972   18.8508  -20.6889 C   0  0  0  0  0  0  0  0  0  0  0  0
  -17.8610   19.1495  -19.3876 O   0  0  0  0  0  0  0  0  0  0  0  0
  -18.6610   18.2004  -21.3816 C   0  0  0  0  0  0  0  0  0  0  0  0
  -18.6916   16.7167  -21.2204 C   0  0  0  0  0  0  0  0  0  0  0  0
  -18.8472   19.2123  -19.2904 H   0  0  0  0  0  0  0  0  0  0  0  0
  -18.9202   11.7652  -18.1403 C   0  0  0  0  0  0  0  0  0  0  0  0
  -20.0470   11.9809  -17.3610 C   0  0  0  0  0  0  0  0  0  0  0  0
  -20.5129   11.0064  -16.4846 C   0  0  0  0  0  0  0  0  0  0  0  0
  -19.8635    9.8103  -16.3751 C   0  0  0  0  0  0  0  0  0  0  0  0
  -18.7446    9.5930  -17.1472 C   0  0  0  0  0  0  0  0  0  0  0  0
  -18.0775    8.4348  -17.0716 F   0  0  0  0  0  0  0  0  0  0  0  0
  -18.2710   10.5564  -18.0241 C   0  0  0  0  0  0  0  0  0  0  0  0
  -20.3876    8.5369  -15.2966 S   0  0  0  0  0  0  0  0  0  0  0  0
  -19.2788    8.5333  -13.8979 C   0  0  0  0  0  0  0  0  0  0  0  0
  -21.7468    8.9348  -14.7723 O   0  0  0  0  0  0  0  0  0  0  0  0
  -20.4180    7.2258  -15.9856 O   0  0  0  0  0  0  0  0  0  0  0  0
  -16.0787   13.0049  -24.0399 N   0  0  0  0  0  0  0  0  0  0  0  0
  -16.3998   12.4104  -24.8345 H   0  0  0  0  0  0  0  0  0  0  0  0
  -14.9689   13.9039  -24.3163 C   0  0  0  0  0  0  0  0  0  0  0  0
  -15.3736   15.0869  -25.1244 C   0  0  0  0  0  0  0  0  0  0  0  0
  -16.7581   17.0710  -24.4776 C   0  0  0  0  0  0  0  0  0  0  0  0
  -15.4520   16.3613  -24.3397 C   0  0  0  0  0  0  0  0  0  0  0  0
 33 34  1  0  0  0
 34 32  1  0  0  0
 32 31  1  0  0  0
 31 29  1  0  0  0
 29  1  1  0  0  0
  1  2  2  0  0  0
  2  3  1  0  0  0
  3  4  2  0  0  0
  4  5  1  0  0  0
  5  6  2  0  0  0
  6  7  1  0  0  0
  7 10  1  0  0  0
 10 11  1  0  0  0
 11 12  1  0  0  0
 12 13  1  0  0  0
 13 14  1  0  0  0
 13 15  1  0  0  0
 15 16  1  0  0  0
  7  8  1  0  0  0
  8  9  2  0  0  0
  5 18  1  0  0  0
 18 19  2  0  0  0
 19 20  1  0  0  0
 20 21  2  0  0  0
 21 22  1  0  0  0
 22 23  1  0  0  0
 22 24  2  0  0  0
 21 25  1  0  0  0
 25 26  1  0  0  0
 25 27  2  0  0  0
 25 28  2  0  0  0
  9  1  1  0  0  0
 24 18  1  0  0  0
  8  4  1  0  0  0
 16 10  1  0  0  0
 29 30  1  0  0  0
 14 17  1  0  0  0
M  END
> <minimizedAffinity>
-9.15864

> <CNNscore>
0.4501534104

> <CNNaffinity>
7.2101578712

> <CNN_VS>
3.2456772327

> <CNNaffinity_variance>
0.0813982040

$$$$
[H]O[C@]1([H])C([H])([H])C([H])([H])[C@@]([H])(n2c([H])c(-c3c([H])c([H])c(S(=O)(=O)C([H])([H])[H])c(F)c3[H])c3c([H])nc(N([H])C([H])([H])C([H])([H])C([H])([H])C([H])([H])[H])nc32)C([H])([H])C1([H])[H]


 34 37  0  0  0  0  0  0  0  0999 V2000
  -18.5063   10.4777  -17.7834 C   0  0  0  0  0  0  0  0  0  0  0  0
  -17.7463   10.3755  -18.8879 N   0  0  0  0  0  0  0  0  0  0  0  0
  -17.5340   11.4097  -19.7303 C   0  0  0  0  0  0  0  0  0  0  0  0
  -18.1121   12.6245  -19.4614 C   0  0  0  0  0  0  0  0  0  0  0  0
  -18.0747   13.8277  -20.1217 C   0  0  0  0  0  0  0  0  0  0  0  0
  -18.8666   14.6829  -19.3459 C   0  0  0  0  0  0  0  0  0  0  0  0
  -19.3409   14.0059  -18.2850 N   0  0  0  0  0  0  0  0  0  0  0  0
  -18.8940   12.7320  -18.3260 C   0  0  0  0  0  0  0  0  0  0  0  0
  -19.0680   11.6533  -17.5195 N   0  0  0  0  0  0  0  0  0  0  0  0
  -20.1992   14.5432  -17.2491 C   0  0  0  0  0  0  0  0  0  0  0  0
  -19.6412   15.8576  -16.7624 C   0  0  0  0  0  0  0  0  0  0  0  0
  -20.6014   16.6079  -15.8940 C   0  0  0  0  0  0  0  0  0  0  0  0
  -21.8413   15.8442  -15.5527 C   0  0  0  0  0  0  0  0  0  0  0  0
  -21.6346   14.8024  -14.6656 O   0  0  0  0  0  0  0  0  0  0  0  0
  -22.5237   15.3093  -16.7796 C   0  0  0  0  0  0  0  0  0  0  0  0
  -21.5718   14.8239  -17.8221 C   0  0  0  0  0  0  0  0  0  0  0  0
  -22.2574   14.0484  -14.8378 H   0  0  0  0  0  0  0  0  0  0  0  0
  -17.3794   14.1716  -21.3555 C   0  0  0  0  0  0  0  0  0  0  0  0
  -16.8167   15.4302  -21.5065 C   0  0  0  0  0  0  0  0  0  0  0  0
  -16.1493   15.7844  -22.6743 C   0  0  0  0  0  0  0  0  0  0  0  0
  -16.0354   14.8916  -23.7012 C   0  0  0  0  0  0  0  0  0  0  0  0
  -16.5929   13.6415  -23.5546 C   0  0  0  0  0  0  0  0  0  0  0  0
  -16.5049   12.7354  -24.5361 F   0  0  0  0  0  0  0  0  0  0  0  0
  -17.2604   13.2771  -22.3956 C   0  0  0  0  0  0  0  0  0  0  0  0
  -15.2121   15.2626  -25.1992 S   0  0  0  0  0  0  0  0  0  0  0  0
  -16.3444   14.9054  -26.5321 C   0  0  0  0  0  0  0  0  0  0  0  0
  -14.9782   16.7544  -25.2161 O   0  0  0  0  0  0  0  0  0  0  0  0
  -13.9488   14.4989  -25.3231 O   0  0  0  0  0  0  0  0  0  0  0  0
  -18.6640    9.3252  -16.9648 N   0  0  0  0  0  0  0  0  0  0  0  0
  -18.0356    8.4969  -17.0491 H   0  0  0  0  0  0  0  0  0  0  0  0
  -19.7136    9.2371  -15.9613 C   0  0  0  0  0  0  0  0  0  0  0  0
  -19.2826    8.5027  -14.7401 C   0  0  0  0  0  0  0  0  0  0  0  0
  -21.0592    6.9265  -15.5346 C   0  0  0  0  0  0  0  0  0  0  0  0
  -19.9613    7.1794  -14.5551 C   0  0  0  0  0  0  0  0  0  0  0  0
 33 34  1  0  0  0
 34 32  1  0  0  0
 32 31  1  0  0  0
 31 29  1  0  0  0
 29  1  1  0  0  0
  1  2  2  0  0  0
  2  3  1  0  0  0
  3  4  2  0  0  0
  4  5  1  0  0  0
  5  6  2  0  0  0
  6  7  1  0  0  0
  7 10  1  0  0  0
 10 11  1  0  0  0
 11 12  1  0  0  0
 12 13  1  0  0  0
 13 14  1  0  0  0
 13 15  1  0  0  0
 15 16  1  0  0  0
  7  8  1  0  0  0
  8  9  2  0  0  0
  5 18  1  0  0  0
 18 19  2  0  0  0
 19 20  1  0  0  0
 20 21  2  0  0  0
 21 22  1  0  0  0
 22 23  1  0  0  0
 22 24  2  0  0  0
 21 25  1  0  0  0
 25 26  1  0  0  0
 25 27  2  0  0  0
 25 28  2  0  0  0
  9  1  1  0  0  0
 24 18  1  0  0  0
  8  4  1  0  0  0
 16 10  1  0  0  0
 29 30  1  0  0  0
 14 17  1  0  0  0
M  END
> <minimizedAffinity>
-8.12057

> <CNNscore>
0.4463384449

> <CNNaffinity>
7.2004432678

> <CNN_VS>
3.2138347626

> <CNNaffinity_variance>
0.4490917325

$$$$
[H]O[C@]1([H])C([H])([H])C([H])([H])[C@@]([H])(n2c([H])c(-c3c([H])c([H])c(S(=O)(=O)C([H])([H])[H])c(F)c3[H])c3c([H])nc(N([H])C([H])([H])C([H])([H])C([H])([H])C([H])([H])[H])nc32)C([H])([H])C1([H])[H]


 34 37  0  0  0  0  0  0  0  0999 V2000
  -17.1107   12.9453  -22.2995 C   0  0  0  0  0  0  0  0  0  0  0  0
  -17.4219   11.7410  -21.7889 N   0  0  0  0  0  0  0  0  0  0  0  0
  -18.0314   11.5866  -20.5935 C   0  0  0  0  0  0  0  0  0  0  0  0
  -18.3537   12.6974  -19.8555 C   0  0  0  0  0  0  0  0  0  0  0  0
  -18.9633   12.8458  -18.6343 C   0  0  0  0  0  0  0  0  0  0  0  0
  -19.0073   14.2295  -18.4255 C   0  0  0  0  0  0  0  0  0  0  0  0
  -18.4486   14.8538  -19.4775 N   0  0  0  0  0  0  0  0  0  0  0  0
  -18.0347   13.9370  -20.3788 C   0  0  0  0  0  0  0  0  0  0  0  0
  -17.4215   14.0239  -21.5874 N   0  0  0  0  0  0  0  0  0  0  0  0
  -18.3047   16.2864  -19.6368 C   0  0  0  0  0  0  0  0  0  0  0  0
  -18.9290   16.7148  -20.9415 C   0  0  0  0  0  0  0  0  0  0  0  0
  -19.0663   18.2004  -21.0572 C   0  0  0  0  0  0  0  0  0  0  0  0
  -18.4189   18.9620  -19.9448 C   0  0  0  0  0  0  0  0  0  0  0  0
  -17.0356   18.9459  -19.9818 O   0  0  0  0  0  0  0  0  0  0  0  0
  -18.8744   18.4786  -18.5972 C   0  0  0  0  0  0  0  0  0  0  0  0
  -19.0506   16.9978  -18.5283 C   0  0  0  0  0  0  0  0  0  0  0  0
  -16.6465   18.9740  -19.0687 H   0  0  0  0  0  0  0  0  0  0  0  0
  -19.4624   11.8165  -17.7312 C   0  0  0  0  0  0  0  0  0  0  0  0
  -18.7960   10.6049  -17.6251 C   0  0  0  0  0  0  0  0  0  0  0  0
  -19.2521    9.6053  -16.7721 C   0  0  0  0  0  0  0  0  0  0  0  0
  -20.3735    9.8011  -16.0180 C   0  0  0  0  0  0  0  0  0  0  0  0
  -21.0373   11.0026  -16.1210 C   0  0  0  0  0  0  0  0  0  0  0  0
  -22.1407   11.2369  -15.4001 F   0  0  0  0  0  0  0  0  0  0  0  0
  -20.5924   12.0061  -16.9675 C   0  0  0  0  0  0  0  0  0  0  0  0
  -21.0084    8.5933  -14.9237 S   0  0  0  0  0  0  0  0  0  0  0  0
  -19.8474    7.2378  -14.8945 C   0  0  0  0  0  0  0  0  0  0  0  0
  -20.9998    9.2022  -13.5418 O   0  0  0  0  0  0  0  0  0  0  0  0
  -22.3637    8.1560  -15.3316 O   0  0  0  0  0  0  0  0  0  0  0  0
  -16.4690   12.9940  -23.5681 N   0  0  0  0  0  0  0  0  0  0  0  0
  -15.7055   12.3323  -23.8273 H   0  0  0  0  0  0  0  0  0  0  0  0
  -16.8430   13.9723  -24.5777 C   0  0  0  0  0  0  0  0  0  0  0  0
  -15.6652   14.6426  -25.1942 C   0  0  0  0  0  0  0  0  0  0  0  0
  -15.7812   16.6826  -23.7462 C   0  0  0  0  0  0  0  0  0  0  0  0
  -14.9367   15.5667  -24.2661 C   0  0  0  0  0  0  0  0  0  0  0  0
 33 34  1  0  0  0
 34 32  1  0  0  0
 32 31  1  0  0  0
 31 29  1  0  0  0
 29  1  1  0  0  0
  1  2  2  0  0  0
  2  3  1  0  0  0
  3  4  2  0  0  0
  4  5  1  0  0  0
  5  6  2  0  0  0
  6  7  1  0  0  0
  7 10  1  0  0  0
 10 11  1  0  0  0
 11 12  1  0  0  0
 12 13  1  0  0  0
 13 14  1  0  0  0
 13 15  1  0  0  0
 15 16  1  0  0  0
  7  8  1  0  0  0
  8  9  2  0  0  0
  5 18  1  0  0  0
 18 19  2  0  0  0
 19 20  1  0  0  0
 20 21  2  0  0  0
 21 22  1  0  0  0
 22 23  1  0  0  0
 22 24  2  0  0  0
 21 25  1  0  0  0
 25 26  1  0  0  0
 25 27  2  0  0  0
 25 28  2  0  0  0
  9  1  1  0  0  0
 24 18  1  0  0  0
  8  4  1  0  0  0
 16 10  1  0  0  0
 29 30  1  0  0  0
 14 17  1  0  0  0
M  END
> <minimizedAffinity>
-8.12008

> <CNNscore>
0.3384078741

> <CNNaffinity>
7.2163376808

> <CNN_VS>
2.4420654774

> <CNNaffinity_variance>
0.2675858438

$$$$
[H]O[C@]1([H])C([H])([H])C([H])([H])[C@@]([H])(n2c([H])c(-c3c([H])c([H])c(S(=O)(=O)C([H])([H])[H])c(F)c3[H])c3c([H])nc(N([H])C([H])([H])C([H])([H])C([H])([H])C([H])([H])[H])nc32)C([H])([H])C1([H])[H]


 34 37  0  0  0  0  0  0  0  0999 V2000
  -16.6948   13.3965  -23.1044 C   0  0  0  0  0  0  0  0  0  0  0  0
  -16.8026   12.3351  -22.2859 N   0  0  0  0  0  0  0  0  0  0  0  0
  -17.5814   12.3362  -21.1824 C   0  0  0  0  0  0  0  0  0  0  0  0
  -18.3004   13.4618  -20.8689 C   0  0  0  0  0  0  0  0  0  0  0  0
  -19.1571   13.7482  -19.8348 C   0  0  0  0  0  0  0  0  0  0  0  0
  -19.5723   15.0640  -20.0722 C   0  0  0  0  0  0  0  0  0  0  0  0
  -18.9830   15.5189  -21.1923 N   0  0  0  0  0  0  0  0  0  0  0  0
  -18.1911   14.5545  -21.7092 C   0  0  0  0  0  0  0  0  0  0  0  0
  -17.3900   14.4889  -22.8038 N   0  0  0  0  0  0  0  0  0  0  0  0
  -19.1585   16.8357  -21.7698 C   0  0  0  0  0  0  0  0  0  0  0  0
  -20.5112   17.3804  -21.3834 C   0  0  0  0  0  0  0  0  0  0  0  0
  -20.6639   18.8335  -21.7064 C   0  0  0  0  0  0  0  0  0  0  0  0
  -19.5236   19.4092  -22.4843 C   0  0  0  0  0  0  0  0  0  0  0  0
  -19.4642   18.9790  -23.7983 O   0  0  0  0  0  0  0  0  0  0  0  0
  -18.2021   19.1363  -21.8237 C   0  0  0  0  0  0  0  0  0  0  0  0
  -18.1180   17.7798  -21.2066 C   0  0  0  0  0  0  0  0  0  0  0  0
  -18.5271   18.9248  -24.1218 H   0  0  0  0  0  0  0  0  0  0  0  0
  -19.5631   12.8983  -18.7227 C   0  0  0  0  0  0  0  0  0  0  0  0
  -20.5103   13.3491  -17.8155 C   0  0  0  0  0  0  0  0  0  0  0  0
  -20.9141   12.5587  -16.7446 C   0  0  0  0  0  0  0  0  0  0  0  0
  -20.3804   11.3146  -16.5660 C   0  0  0  0  0  0  0  0  0  0  0  0
  -19.4398   10.8642  -17.4646 C   0  0  0  0  0  0  0  0  0  0  0  0
  -18.8906    9.6510  -17.3274 F   0  0  0  0  0  0  0  0  0  0  0  0
  -19.0296   11.6427  -18.5356 C   0  0  0  0  0  0  0  0  0  0  0  0
  -20.8367   10.2629  -15.2451 S   0  0  0  0  0  0  0  0  0  0  0  0
  -19.3313    9.6806  -14.4832 C   0  0  0  0  0  0  0  0  0  0  0  0
  -21.5384   11.1215  -14.2200 O   0  0  0  0  0  0  0  0  0  0  0  0
  -21.6898    9.1467  -15.7151 O   0  0  0  0  0  0  0  0  0  0  0  0
  -15.8456   13.2881  -24.2403 N   0  0  0  0  0  0  0  0  0  0  0  0
  -16.0810   12.6744  -25.0502 H   0  0  0  0  0  0  0  0  0  0  0  0
  -14.5975   14.0293  -24.3362 C   0  0  0  0  0  0  0  0  0  0  0  0
  -14.5868   14.9950  -25.4692 C   0  0  0  0  0  0  0  0  0  0  0  0
  -15.9634   15.2019  -27.5510 C   0  0  0  0  0  0  0  0  0  0  0  0
  -15.9396   15.2551  -26.0593 C   0  0  0  0  0  0  0  0  0  0  0  0
 33 34  1  0  0  0
 34 32  1  0  0  0
 32 31  1  0  0  0
 31 29  1  0  0  0
 29  1  1  0  0  0
  1  2  2  0  0  0
  2  3  1  0  0  0
  3  4  2  0  0  0
  4  5  1  0  0  0
  5  6  2  0  0  0
  6  7  1  0  0  0
  7 10  1  0  0  0
 10 11  1  0  0  0
 11 12  1  0  0  0
 12 13  1  0  0  0
 13 14  1  0  0  0
 13 15  1  0  0  0
 15 16  1  0  0  0
  7  8  1  0  0  0
  8  9  2  0  0  0
  5 18  1  0  0  0
 18 19  2  0  0  0
 19 20  1  0  0  0
 20 21  2  0  0  0
 21 22  1  0  0  0
 22 23  1  0  0  0
 22 24  2  0  0  0
 21 25  1  0  0  0
 25 26  1  0  0  0
 25 27  2  0  0  0
 25 28  2  0  0  0
  9  1  1  0  0  0
 24 18  1  0  0  0
  8  4  1  0  0  0
 16 10  1  0  0  0
 29 30  1  0  0  0
 14 17  1  0  0  0
M  END
> <minimizedAffinity>
-8.32164

> <CNNscore>
0.3301787078

> <CNNaffinity>
7.1422171593

> <CNN_VS>
2.3582079411

> <CNNaffinity_variance>
0.3197007179

$$$$
[H]O[C@]1([H])C([H])([H])C([H])([H])[C@@]([H])(n2c([H])c(-c3c([H])c([H])c(S(=O)(=O)C([H])([H])[H])c(F)c3[H])c3c([H])nc(N([H])C([H])([H])C([H])([H])C([H])([H])C([H])([H])[H])nc32)C([H])([H])C1([H])[H]


 34 37  0  0  0  0  0  0  0  0999 V2000
  -17.5962   12.9697  -20.4919 C   0  0  0  0  0  0  0  0  0  0  0  0
  -17.6633   11.6695  -20.1556 N   0  0  0  0  0  0  0  0  0  0  0  0
  -18.4066   11.2167  -19.1228 C   0  0  0  0  0  0  0  0  0  0  0  0
  -19.1307   12.1097  -18.3740 C   0  0  0  0  0  0  0  0  0  0  0  0
  -19.9579   11.9445  -17.2908 C   0  0  0  0  0  0  0  0  0  0  0  0
  -20.3985   13.2366  -16.9805 C   0  0  0  0  0  0  0  0  0  0  0  0
  -19.8514   14.1102  -17.8444 N   0  0  0  0  0  0  0  0  0  0  0  0
  -19.0632   13.4472  -18.7181 C   0  0  0  0  0  0  0  0  0  0  0  0
  -18.2964   13.8378  -19.7688 N   0  0  0  0  0  0  0  0  0  0  0  0
  -20.0632   15.5432  -17.8519 C   0  0  0  0  0  0  0  0  0  0  0  0
  -21.3730   15.8636  -17.1754 C   0  0  0  0  0  0  0  0  0  0  0  0
  -21.5391   17.3247  -16.8984 C   0  0  0  0  0  0  0  0  0  0  0  0
  -20.4639   18.1835  -17.4844 C   0  0  0  0  0  0  0  0  0  0  0  0
  -20.5207   18.2948  -18.8626 O   0  0  0  0  0  0  0  0  0  0  0  0
  -19.0936   17.7093  -17.0914 C   0  0  0  0  0  0  0  0  0  0  0  0
  -18.9697   16.2221  -17.0553 C   0  0  0  0  0  0  0  0  0  0  0  0
  -19.6150   18.3924  -19.2577 H   0  0  0  0  0  0  0  0  0  0  0  0
  -20.3167   10.7156  -16.5942 C   0  0  0  0  0  0  0  0  0  0  0  0
  -19.4063    9.6724  -16.5151 C   0  0  0  0  0  0  0  0  0  0  0  0
  -19.7240    8.4885  -15.8577 C   0  0  0  0  0  0  0  0  0  0  0  0
  -20.9483    8.3313  -15.2738 C   0  0  0  0  0  0  0  0  0  0  0  0
  -21.8544    9.3648  -15.3506 C   0  0  0  0  0  0  0  0  0  0  0  0
  -23.0660    9.2533  -14.7924 F   0  0  0  0  0  0  0  0  0  0  0  0
  -21.5491   10.5492  -16.0030 C   0  0  0  0  0  0  0  0  0  0  0  0
  -21.4213    6.8739  -14.4303 S   0  0  0  0  0  0  0  0  0  0  0  0
  -20.0112    5.7795  -14.4255 C   0  0  0  0  0  0  0  0  0  0  0  0
  -21.6765    7.2596  -12.9927 O   0  0  0  0  0  0  0  0  0  0  0  0
  -22.6082    6.2488  -15.0587 O   0  0  0  0  0  0  0  0  0  0  0  0
  -16.7820   13.3383  -21.5985 N   0  0  0  0  0  0  0  0  0  0  0  0
  -15.8817   13.8505  -21.4762 H   0  0  0  0  0  0  0  0  0  0  0  0
  -17.1608   13.0204  -22.9667 C   0  0  0  0  0  0  0  0  0  0  0  0
  -16.3808   13.7908  -23.9739 C   0  0  0  0  0  0  0  0  0  0  0  0
  -17.8085   12.5489  -25.6143 C   0  0  0  0  0  0  0  0  0  0  0  0
  -16.9639   13.7520  -25.3539 C   0  0  0  0  0  0  0  0  0  0  0  0
 33 34  1  0  0  0
 34 32  1  0  0  0
 32 31  1  0  0  0
 31 29  1  0  0  0
 29  1  1  0  0  0
  1  2  2  0  0  0
  2  3  1  0  0  0
  3  4  2  0  0  0
  4  5  1  0  0  0
  5  6  2  0  0  0
  6  7  1  0  0  0
  7 10  1  0  0  0
 10 11  1  0  0  0
 11 12  1  0  0  0
 12 13  1  0  0  0
 13 14  1  0  0  0
 13 15  1  0  0  0
 15 16  1  0  0  0
  7  8  1  0  0  0
  8  9  2  0  0  0
  5 18  1  0  0  0
 18 19  2  0  0  0
 19 20  1  0  0  0
 20 21  2  0  0  0
 21 22  1  0  0  0
 22 23  1  0  0  0
 22 24  2  0  0  0
 21 25  1  0  0  0
 25 26  1  0  0  0
 25 27  2  0  0  0
 25 28  2  0  0  0
  9  1  1  0  0  0
 24 18  1  0  0  0
  8  4  1  0  0  0
 16 10  1  0  0  0
 29 30  1  0  0  0
 14 17  1  0  0  0
M  END
> <minimizedAffinity>
-7.16571

> <CNNscore>
0.3095184267

> <CNNaffinity>
6.8064742088

> <CNN_VS>
2.1067292690

> <CNNaffinity_variance>
0.2915719450

$$$$
[H]O[C@]1([H])C([H])([H])C([H])([H])[C@@]([H])(n2c([H])c(-c3c([H])c([H])c(S(=O)(=O)C([H])([H])[H])c(F)c3[H])c3c([H])nc(N([H])C([H])([H])C([H])([H])C([H])([H])C([H])([H])[H])nc32)C([H])([H])C1([H])[H]


 34 37  0  0  0  0  0  0  0  0999 V2000
  -19.2100    8.4582  -15.4194 C   0  0  0  0  0  0  0  0  0  0  0  0
  -18.4639    8.3675  -16.5344 N   0  0  0  0  0  0  0  0  0  0  0  0
  -18.3816    9.3622  -17.4445 C   0  0  0  0  0  0  0  0  0  0  0  0
  -19.0839   10.5223  -17.2368 C   0  0  0  0  0  0  0  0  0  0  0  0
  -19.1905   11.6775  -17.9712 C   0  0  0  0  0  0  0  0  0  0  0  0
  -20.0566   12.4904  -17.2302 C   0  0  0  0  0  0  0  0  0  0  0  0
  -20.4344   11.8360  -16.1176 N   0  0  0  0  0  0  0  0  0  0  0  0
  -19.8517   10.6178  -16.0908 C   0  0  0  0  0  0  0  0  0  0  0  0
  -19.8918    9.5808  -15.2147 N   0  0  0  0  0  0  0  0  0  0  0  0
  -21.3268   12.3432  -15.0955 C   0  0  0  0  0  0  0  0  0  0  0  0
  -21.7806   13.7333  -15.4659 C   0  0  0  0  0  0  0  0  0  0  0  0
  -22.9083   14.2209  -14.6116 C   0  0  0  0  0  0  0  0  0  0  0  0
  -23.2480   13.3133  -13.4724 C   0  0  0  0  0  0  0  0  0  0  0  0
  -22.3025   13.2997  -12.4621 O   0  0  0  0  0  0  0  0  0  0  0  0
  -23.4870   11.9035  -13.9332 C   0  0  0  0  0  0  0  0  0  0  0  0
  -22.5631   11.4727  -15.0236 C   0  0  0  0  0  0  0  0  0  0  0  0
  -22.2508   12.4103  -12.0236 H   0  0  0  0  0  0  0  0  0  0  0  0
  -18.5599   12.0141  -19.2413 C   0  0  0  0  0  0  0  0  0  0  0  0
  -17.4974   11.2561  -19.7102 C   0  0  0  0  0  0  0  0  0  0  0  0
  -16.8768   11.5569  -20.9181 C   0  0  0  0  0  0  0  0  0  0  0  0
  -17.3065   12.6128  -21.6698 C   0  0  0  0  0  0  0  0  0  0  0  0
  -18.3609   13.3673  -21.2072 C   0  0  0  0  0  0  0  0  0  0  0  0
  -18.8143   14.4112  -21.9120 F   0  0  0  0  0  0  0  0  0  0  0  0
  -18.9871   13.0772  -20.0051 C   0  0  0  0  0  0  0  0  0  0  0  0
  -16.5780   13.0534  -23.1977 S   0  0  0  0  0  0  0  0  0  0  0  0
  -15.9347   14.7093  -23.0233 C   0  0  0  0  0  0  0  0  0  0  0  0
  -15.3888   12.1444  -23.3977 O   0  0  0  0  0  0  0  0  0  0  0  0
  -17.5521   12.9495  -24.3089 O   0  0  0  0  0  0  0  0  0  0  0  0
  -19.2255    7.3505  -14.5271 N   0  0  0  0  0  0  0  0  0  0  0  0
  -18.7603    6.4464  -14.7598 H   0  0  0  0  0  0  0  0  0  0  0  0
  -19.8930    7.4171  -13.2362 C   0  0  0  0  0  0  0  0  0  0  0  0
  -18.9830    7.8459  -12.1387 C   0  0  0  0  0  0  0  0  0  0  0  0
  -17.2511    7.1401  -10.4732 C   0  0  0  0  0  0  0  0  0  0  0  0
  -18.3290    6.7100  -11.4123 C   0  0  0  0  0  0  0  0  0  0  0  0
 33 34  1  0  0  0
 34 32  1  0  0  0
 32 31  1  0  0  0
 31 29  1  0  0  0
 29  1  1  0  0  0
  1  2  2  0  0  0
  2  3  1  0  0  0
  3  4  2  0  0  0
  4  5  1  0  0  0
  5  6  2  0  0  0
  6  7  1  0  0  0
  7 10  1  0  0  0
 10 11  1  0  0  0
 11 12  1  0  0  0
 12 13  1  0  0  0
 13 14  1  0  0  0
 13 15  1  0  0  0
 15 16  1  0  0  0
  7  8  1  0  0  0
  8  9  2  0  0  0
  5 18  1  0  0  0
 18 19  2  0  0  0
 19 20  1  0  0  0
 20 21  2  0  0  0
 21 22  1  0  0  0
 22 23  1  0  0  0
 22 24  2  0  0  0
 21 25  1  0  0  0
 25 26  1  0  0  0
 25 27  2  0  0  0
 25 28  2  0  0  0
  9  1  1  0  0  0
 24 18  1  0  0  0
  8  4  1  0  0  0
 16 10  1  0  0  0
 29 30  1  0  0  0
 14 17  1  0  0  0
M  END
> <minimizedAffinity>
-8.31583

> <CNNscore>
0.2552323639

> <CNNaffinity>
6.4252333641

> <CNN_VS>
1.6399275064

> <CNNaffinity_variance>
0.0678149760

$$$$
[H]c1c([H])c(S(=O)(=O)C([H])([H])[H])c([H])c([H])c1N([H])c1nc(N([H])C([H])(C([H])([H])[H])C([H])([H])[H])c2c(C([H])([H])[H])nn([H])c2n1


 28 30  0  0  0  0  0  0  0  0999 V2000
  -17.7267   12.7004  -21.1569 C   0  0  0  0  0  0  0  0  0  0  0  0
  -17.7861   11.8240  -20.1257 N   0  0  0  0  0  0  0  0  0  0  0  0
  -16.9559   10.7863  -19.9324 C   0  0  0  0  0  0  0  0  0  0  0  0
  -16.0056   10.6242  -20.8386 N   0  0  0  0  0  0  0  0  0  0  0  0
  -15.8706   11.4399  -21.8895 C   0  0  0  0  0  0  0  0  0  0  0  0
  -14.9875   11.4676  -22.9282 N   0  0  0  0  0  0  0  0  0  0  0  0
  -15.2555   12.4658  -23.7198 N   0  0  0  0  0  0  0  0  0  0  0  0
  -16.3413   13.1502  -23.2327 C   0  0  0  0  0  0  0  0  0  0  0  0
  -16.9671   14.3400  -23.8276 C   0  0  0  0  0  0  0  0  0  0  0  0
  -16.7192   12.5050  -22.0919 C   0  0  0  0  0  0  0  0  0  0  0  0
  -14.2103   10.7758  -23.0546 H   0  0  0  0  0  0  0  0  0  0  0  0
  -18.6620   13.7571  -21.2489 N   0  0  0  0  0  0  0  0  0  0  0  0
  -18.9624   14.1769  -22.1074 H   0  0  0  0  0  0  0  0  0  0  0  0
  -20.7107   13.9962  -19.9031 C   0  0  0  0  0  0  0  0  0  0  0  0
  -19.2348   14.2798  -20.0090 C   0  0  0  0  0  0  0  0  0  0  0  0
  -19.0176   15.7565  -19.8744 C   0  0  0  0  0  0  0  0  0  0  0  0
  -17.1540    9.9460  -18.8230 N   0  0  0  0  0  0  0  0  0  0  0  0
  -16.4165    9.1894  -18.6105 H   0  0  0  0  0  0  0  0  0  0  0  0
  -18.2455    9.9797  -17.9341 C   0  0  0  0  0  0  0  0  0  0  0  0
  -18.9684   11.1861  -17.7876 C   0  0  0  0  0  0  0  0  0  0  0  0
  -20.0289   11.3263  -16.9319 C   0  0  0  0  0  0  0  0  0  0  0  0
  -20.4428   10.2826  -16.1660 C   0  0  0  0  0  0  0  0  0  0  0  0
  -19.7653    9.1025  -16.2833 C   0  0  0  0  0  0  0  0  0  0  0  0
  -18.6777    8.9401  -17.1532 C   0  0  0  0  0  0  0  0  0  0  0  0
  -21.7865   10.3740  -15.0483 S   0  0  0  0  0  0  0  0  0  0  0  0
  -22.1255   12.0242  -14.5630 C   0  0  0  0  0  0  0  0  0  0  0  0
  -21.4154    9.5798  -13.8228 O   0  0  0  0  0  0  0  0  0  0  0  0
  -23.0090    9.7533  -15.6785 O   0  0  0  0  0  0  0  0  0  0  0  0
 14 15  1  0  0  0
 15 16  1  0  0  0
 15 12  1  0  0  0
 12  1  1  0  0  0
  1  2  2  0  0  0
  2  3  1  0  0  0
  3 17  1  0  0  0
 17 19  1  0  0  0
 19 20  2  0  0  0
 20 21  1  0  0  0
 21 22  2  0  0  0
 22 23  1  0  0  0
 23 24  2  0  0  0
 22 25  1  0  0  0
 25 26  1  0  0  0
 25 27  2  0  0  0
 25 28  2  0  0  0
  3  4  2  0  0  0
  4  5  1  0  0  0
  5  6  1  0  0  0
  6  7  1  0  0  0
  7  8  2  0  0  0
  8  9  1  0  0  0
  8 10  1  0  0  0
 10  1  1  0  0  0
 24 19  1  0  0  0
 10  5  2  0  0  0
 12 13  1  0  0  0
 17 18  1  0  0  0
  6 11  1  0  0  0
M  END
> <minimizedAffinity>
-7.89737

> <CNNscore>
0.9655175209

> <CNNaffinity>
7.0787010193

> <CNN_VS>
6.8346099854

> <CNNaffinity_variance>
0.0748795196

$$$$
[H]c1c([H])c(S(=O)(=O)C([H])([H])[H])c([H])c([H])c1N([H])c1nc(N([H])C([H])(C([H])([H])[H])C([H])([H])[H])c2c(C([H])([H])[H])nn([H])c2n1


 28 30  0  0  0  0  0  0  0  0999 V2000
  -18.2093   12.5901  -19.5325 C   0  0  0  0  0  0  0  0  0  0  0  0
  -17.3963   12.4590  -20.6081 N   0  0  0  0  0  0  0  0  0  0  0  0
  -16.7159   11.3510  -20.9439 C   0  0  0  0  0  0  0  0  0  0  0  0
  -16.8668   10.3096  -20.1419 N   0  0  0  0  0  0  0  0  0  0  0  0
  -17.6484   10.3471  -19.0577 C   0  0  0  0  0  0  0  0  0  0  0  0
  -17.9502    9.4188  -18.1056 N   0  0  0  0  0  0  0  0  0  0  0  0
  -18.7710    9.9231  -17.2298 N   0  0  0  0  0  0  0  0  0  0  0  0
  -19.0510   11.2235  -17.5692 C   0  0  0  0  0  0  0  0  0  0  0  0
  -19.9333   12.1487  -16.8434 C   0  0  0  0  0  0  0  0  0  0  0  0
  -18.3479   11.4807  -18.7094 C   0  0  0  0  0  0  0  0  0  0  0  0
  -17.5668    8.4433  -18.0965 H   0  0  0  0  0  0  0  0  0  0  0  0
  -18.8740   13.8137  -19.2864 N   0  0  0  0  0  0  0  0  0  0  0  0
  -18.7315   14.3848  -18.4758 H   0  0  0  0  0  0  0  0  0  0  0  0
  -19.4120   15.5840  -20.9119 C   0  0  0  0  0  0  0  0  0  0  0  0
  -19.8390   14.2851  -20.2791 C   0  0  0  0  0  0  0  0  0  0  0  0
  -21.2042   14.4639  -19.6874 C   0  0  0  0  0  0  0  0  0  0  0  0
  -15.8911   11.3703  -22.0821 N   0  0  0  0  0  0  0  0  0  0  0  0
  -15.2385   10.5315  -22.2608 H   0  0  0  0  0  0  0  0  0  0  0  0
  -15.8156   12.3983  -23.0415 C   0  0  0  0  0  0  0  0  0  0  0  0
  -16.9596   12.6893  -23.8201 C   0  0  0  0  0  0  0  0  0  0  0  0
  -16.9795   13.6528  -24.7937 C   0  0  0  0  0  0  0  0  0  0  0  0
  -15.8694   14.3905  -25.0600 C   0  0  0  0  0  0  0  0  0  0  0  0
  -14.7468   14.1341  -24.3256 C   0  0  0  0  0  0  0  0  0  0  0  0
  -14.7073   13.1520  -23.3256 C   0  0  0  0  0  0  0  0  0  0  0  0
  -15.8069   15.6398  -26.2841 S   0  0  0  0  0  0  0  0  0  0  0  0
  -16.3391   15.0531  -27.8482 C   0  0  0  0  0  0  0  0  0  0  0  0
  -14.3743   16.0911  -26.4027 O   0  0  0  0  0  0  0  0  0  0  0  0
  -16.6522   16.8122  -25.8509 O   0  0  0  0  0  0  0  0  0  0  0  0
 14 15  1  0  0  0
 15 16  1  0  0  0
 15 12  1  0  0  0
 12  1  1  0  0  0
  1  2  2  0  0  0
  2  3  1  0  0  0
  3 17  1  0  0  0
 17 19  1  0  0  0
 19 20  2  0  0  0
 20 21  1  0  0  0
 21 22  2  0  0  0
 22 23  1  0  0  0
 23 24  2  0  0  0
 22 25  1  0  0  0
 25 26  1  0  0  0
 25 27  2  0  0  0
 25 28  2  0  0  0
  3  4  2  0  0  0
  4  5  1  0  0  0
  5  6  1  0  0  0
  6  7  1  0  0  0
  7  8  2  0  0  0
  8  9  1  0  0  0
  8 10  1  0  0  0
 10  1  1  0  0  0
 24 19  1  0  0  0
 10  5  2  0  0  0
 12 13  1  0  0  0
 17 18  1  0  0  0
  6 11  1  0  0  0
M  END
> <minimizedAffinity>
-8.05368

> <CNNscore>
0.7873537540

> <CNNaffinity>
6.8969855309

> <CNN_VS>
5.4303674698

> <CNNaffinity_variance>
0.0805432796

$$$$
[H]c1c([H])c(S(=O)(=O)C([H])([H])[H])c([H])c([H])c1N([H])c1nc(N([H])C([H])(C([H])([H])[H])C([H])([H])[H])c2c(C([H])([H])[H])nn([H])c2n1


 28 30  0  0  0  0  0  0  0  0999 V2000
  -17.9315   12.5287  -20.6224 C   0  0  0  0  0  0  0  0  0  0  0  0
  -17.8621   13.4502  -21.6129 N   0  0  0  0  0  0  0  0  0  0  0  0
  -17.0055   13.4240  -22.6468 C   0  0  0  0  0  0  0  0  0  0  0  0
  -16.1661   12.4019  -22.6819 N   0  0  0  0  0  0  0  0  0  0  0  0
  -16.1621   11.4453  -21.7476 C   0  0  0  0  0  0  0  0  0  0  0  0
  -15.4063   10.3227  -21.5801 N   0  0  0  0  0  0  0  0  0  0  0  0
  -15.7738    9.6895  -20.5036 N   0  0  0  0  0  0  0  0  0  0  0  0
  -16.8018   10.3748  -19.9049 C   0  0  0  0  0  0  0  0  0  0  0  0
  -17.5028    9.9997  -18.6683 C   0  0  0  0  0  0  0  0  0  0  0  0
  -17.0382   11.4678  -20.6859 C   0  0  0  0  0  0  0  0  0  0  0  0
  -14.6428   10.0277  -22.2349 H   0  0  0  0  0  0  0  0  0  0  0  0
  -18.8824   12.6678  -19.5849 N   0  0  0  0  0  0  0  0  0  0  0  0
  -19.7759   12.2151  -19.5686 H   0  0  0  0  0  0  0  0  0  0  0  0
  -19.1041   13.0078  -17.1557 C   0  0  0  0  0  0  0  0  0  0  0  0
  -18.5460   13.5313  -18.4535 C   0  0  0  0  0  0  0  0  0  0  0  0
  -19.0362   14.9327  -18.6578 C   0  0  0  0  0  0  0  0  0  0  0  0
  -17.0366   14.4653  -23.5906 N   0  0  0  0  0  0  0  0  0  0  0  0
  -16.6369   14.2822  -24.5745 H   0  0  0  0  0  0  0  0  0  0  0  0
  -17.5419   15.7636  -23.3856 C   0  0  0  0  0  0  0  0  0  0  0  0
  -18.8293   16.0796  -23.8780 C   0  0  0  0  0  0  0  0  0  0  0  0
  -19.3982   17.3192  -23.7501 C   0  0  0  0  0  0  0  0  0  0  0  0
  -18.7308   18.3260  -23.1270 C   0  0  0  0  0  0  0  0  0  0  0  0
  -17.4842   18.0538  -22.6399 C   0  0  0  0  0  0  0  0  0  0  0  0
  -16.8855   16.7917  -22.7616 C   0  0  0  0  0  0  0  0  0  0  0  0
  -19.3819   19.9372  -22.9197 S   0  0  0  0  0  0  0  0  0  0  0  0
  -21.0771   19.9077  -22.4733 C   0  0  0  0  0  0  0  0  0  0  0  0
  -19.2444   20.6577  -24.2358 O   0  0  0  0  0  0  0  0  0  0  0  0
  -18.5797   20.6741  -21.8755 O   0  0  0  0  0  0  0  0  0  0  0  0
 14 15  1  0  0  0
 15 16  1  0  0  0
 15 12  1  0  0  0
 12  1  1  0  0  0
  1  2  2  0  0  0
  2  3  1  0  0  0
  3 17  1  0  0  0
 17 19  1  0  0  0
 19 20  2  0  0  0
 20 21  1  0  0  0
 21 22  2  0  0  0
 22 23  1  0  0  0
 23 24  2  0  0  0
 22 25  1  0  0  0
 25 26  1  0  0  0
 25 27  2  0  0  0
 25 28  2  0  0  0
  3  4  2  0  0  0
  4  5  1  0  0  0
  5  6  1  0  0  0
  6  7  1  0  0  0
  7  8  2  0  0  0
  8  9  1  0  0  0
  8 10  1  0  0  0
 10  1  1  0  0  0
 24 19  1  0  0  0
 10  5  2  0  0  0
 12 13  1  0  0  0
 17 18  1  0  0  0
  6 11  1  0  0  0
M  END
> <minimizedAffinity>
-7.26861

> <CNNscore>
0.7163944244

> <CNNaffinity>
6.8850412369

> <CNN_VS>
4.9324049950

> <CNNaffinity_variance>
0.2653452456

$$$$
[H]c1c([H])c(S(=O)(=O)C([H])([H])[H])c([H])c([H])c1N([H])c1nc(N([H])C([H])(C([H])([H])[H])C([H])([H])[H])c2c(C([H])([H])[H])nn([H])c2n1


 28 30  0  0  0  0  0  0  0  0999 V2000
  -18.5153   12.6663  -19.9606 C   0  0  0  0  0  0  0  0  0  0  0  0
  -19.3309   12.7887  -18.8859 N   0  0  0  0  0  0  0  0  0  0  0  0
  -19.3552   11.9661  -17.8248 C   0  0  0  0  0  0  0  0  0  0  0  0
  -18.5011   10.9559  -17.8514 N   0  0  0  0  0  0  0  0  0  0  0  0
  -17.6586   10.7563  -18.8704 C   0  0  0  0  0  0  0  0  0  0  0  0
  -16.7115    9.8053  -19.1113 N   0  0  0  0  0  0  0  0  0  0  0  0
  -16.1334   10.0263  -20.2567 N   0  0  0  0  0  0  0  0  0  0  0  0
  -16.6802   11.1474  -20.8301 C   0  0  0  0  0  0  0  0  0  0  0  0
  -16.3112   11.7395  -22.1241 C   0  0  0  0  0  0  0  0  0  0  0  0
  -17.6300   11.5968  -19.9603 C   0  0  0  0  0  0  0  0  0  0  0  0
  -16.4938    9.0165  -18.4563 H   0  0  0  0  0  0  0  0  0  0  0  0
  -18.5851   13.6021  -21.0185 N   0  0  0  0  0  0  0  0  0  0  0  0
  -18.8233   13.3737  -21.9644 H   0  0  0  0  0  0  0  0  0  0  0  0
  -19.2642   15.9413  -21.3826 C   0  0  0  0  0  0  0  0  0  0  0  0
  -18.2897   15.0029  -20.7196 C   0  0  0  0  0  0  0  0  0  0  0  0
  -16.9000   15.3798  -21.1351 C   0  0  0  0  0  0  0  0  0  0  0  0
  -20.2748   12.2079  -16.7895 N   0  0  0  0  0  0  0  0  0  0  0  0
  -20.7238   13.1849  -16.7158 H   0  0  0  0  0  0  0  0  0  0  0  0
  -20.6832   11.2893  -15.8035 C   0  0  0  0  0  0  0  0  0  0  0  0
  -20.0413   11.3112  -14.5437 C   0  0  0  0  0  0  0  0  0  0  0  0
  -20.3499   10.4442  -13.5290 C   0  0  0  0  0  0  0  0  0  0  0  0
  -21.3132    9.4997  -13.6948 C   0  0  0  0  0  0  0  0  0  0  0  0
  -21.9526    9.4514  -14.9007 C   0  0  0  0  0  0  0  0  0  0  0  0
  -21.6503   10.3300  -15.9508 C   0  0  0  0  0  0  0  0  0  0  0  0
  -21.7705    8.3540  -12.4534 S   0  0  0  0  0  0  0  0  0  0  0  0
  -20.7549    6.9250  -12.4727 C   0  0  0  0  0  0  0  0  0  0  0  0
  -23.1931    7.9355  -12.7205 O   0  0  0  0  0  0  0  0  0  0  0  0
  -21.7056    9.0226  -11.1022 O   0  0  0  0  0  0  0  0  0  0  0  0
 14 15  1  0  0  0
 15 16  1  0  0  0
 15 12  1  0  0  0
 12  1  1  0  0  0
  1  2  2  0  0  0
  2  3  1  0  0  0
  3 17  1  0  0  0
 17 19  1  0  0  0
 19 20  2  0  0  0
 20 21  1  0  0  0
 21 22  2  0  0  0
 22 23  1  0  0  0
 23 24  2  0  0  0
 22 25  1  0  0  0
 25 26  1  0  0  0
 25 27  2  0  0  0
 25 28  2  0  0  0
  3  4  2  0  0  0
  4  5  1  0  0  0
  5  6  1  0  0  0
  6  7  1  0  0  0
  7  8  2  0  0  0
  8  9  1  0  0  0
  8 10  1  0  0  0
 10  1  1  0  0  0
 24 19  1  0  0  0
 10  5  2  0  0  0
 12 13  1  0  0  0
 17 18  1  0  0  0
  6 11  1  0  0  0
M  END
> <minimizedAffinity>
-6.46885

> <CNNscore>
0.6900858283

> <CNNaffinity>
6.3750395775

> <CNN_VS>
4.3993244171

> <CNNaffinity_variance>
0.1991523951

$$$$
[H]c1c([H])c(S(=O)(=O)C([H])([H])[H])c([H])c([H])c1N([H])c1nc(N([H])C([H])(C([H])([H])[H])C([H])([H])[H])c2c(C([H])([H])[H])nn([H])c2n1


 28 30  0  0  0  0  0  0  0  0999 V2000
  -15.9738   14.6170  -24.3262 C   0  0  0  0  0  0  0  0  0  0  0  0
  -16.1116   13.8854  -23.1944 N   0  0  0  0  0  0  0  0  0  0  0  0
  -16.6510   12.6581  -23.1173 C   0  0  0  0  0  0  0  0  0  0  0  0
  -17.0781   12.1371  -24.2560 N   0  0  0  0  0  0  0  0  0  0  0  0
  -16.9833   12.7860  -25.4213 C   0  0  0  0  0  0  0  0  0  0  0  0
  -17.3474   12.4558  -26.6933 N   0  0  0  0  0  0  0  0  0  0  0  0
  -17.0504   13.4237  -27.5117 N   0  0  0  0  0  0  0  0  0  0  0  0
  -16.4695   14.4490  -26.8074 C   0  0  0  0  0  0  0  0  0  0  0  0
  -15.9879   15.7259  -27.3541 C   0  0  0  0  0  0  0  0  0  0  0  0
  -16.4311   14.0444  -25.5054 C   0  0  0  0  0  0  0  0  0  0  0  0
  -17.8005   11.5478  -26.9556 H   0  0  0  0  0  0  0  0  0  0  0  0
  -15.3857   15.9021  -24.2770 N   0  0  0  0  0  0  0  0  0  0  0  0
  -14.4539   16.1125  -24.5789 H   0  0  0  0  0  0  0  0  0  0  0  0
  -16.1836   17.0392  -22.2433 C   0  0  0  0  0  0  0  0  0  0  0  0
  -16.1864   17.0064  -23.7496 C   0  0  0  0  0  0  0  0  0  0  0  0
  -17.6056   16.9426  -24.2269 C   0  0  0  0  0  0  0  0  0  0  0  0
  -16.7466   12.0277  -21.8645 N   0  0  0  0  0  0  0  0  0  0  0  0
  -16.1315   11.1637  -21.6732 H   0  0  0  0  0  0  0  0  0  0  0  0
  -17.5871   12.4073  -20.8004 C   0  0  0  0  0  0  0  0  0  0  0  0
  -18.6501   13.3037  -21.0578 C   0  0  0  0  0  0  0  0  0  0  0  0
  -19.5065   13.7507  -20.0865 C   0  0  0  0  0  0  0  0  0  0  0  0
  -19.3669   13.3402  -18.7984 C   0  0  0  0  0  0  0  0  0  0  0  0
  -18.3493   12.4741  -18.5159 C   0  0  0  0  0  0  0  0  0  0  0  0
  -17.4629   12.0060  -19.4963 C   0  0  0  0  0  0  0  0  0  0  0  0
  -20.4149   13.8604  -17.4968 S   0  0  0  0  0  0  0  0  0  0  0  0
  -20.9061   12.5229  -16.4753 C   0  0  0  0  0  0  0  0  0  0  0  0
  -21.6460   14.4680  -18.1173 O   0  0  0  0  0  0  0  0  0  0  0  0
  -19.7132   14.9142  -16.6758 O   0  0  0  0  0  0  0  0  0  0  0  0
 14 15  1  0  0  0
 15 16  1  0  0  0
 15 12  1  0  0  0
 12  1  1  0  0  0
  1  2  2  0  0  0
  2  3  1  0  0  0
  3 17  1  0  0  0
 17 19  1  0  0  0
 19 20  2  0  0  0
 20 21  1  0  0  0
 21 22  2  0  0  0
 22 23  1  0  0  0
 23 24  2  0  0  0
 22 25  1  0  0  0
 25 26  1  0  0  0
 25 27  2  0  0  0
 25 28  2  0  0  0
  3  4  2  0  0  0
  4  5  1  0  0  0
  5  6  1  0  0  0
  6  7  1  0  0  0
  7  8  2  0  0  0
  8  9  1  0  0  0
  8 10  1  0  0  0
 10  1  1  0  0  0
 24 19  1  0  0  0
 10  5  2  0  0  0
 12 13  1  0  0  0
 17 18  1  0  0  0
  6 11  1  0  0  0
M  END
> <minimizedAffinity>
-7.67781

> <CNNscore>
0.4919394255

> <CNNaffinity>
6.7551665306

> <CNN_VS>
3.3231327534

> <CNNaffinity_variance>
0.0622529797

$$$$
[H]c1c([H])c(S(=O)(=O)C([H])([H])[H])c([H])c([H])c1N([H])c1nc(N([H])C([H])(C([H])([H])[H])C([H])([H])[H])c2c(C([H])([H])[H])nn([H])c2n1


 28 30  0  0  0  0  0  0  0  0999 V2000
  -19.5723   11.7222  -17.7714 C   0  0  0  0  0  0  0  0  0  0  0  0
  -18.8346   12.0426  -18.8614 N   0  0  0  0  0  0  0  0  0  0  0  0
  -17.8554   11.2919  -19.3913 C   0  0  0  0  0  0  0  0  0  0  0  0
  -17.6060   10.1449  -18.7811 N   0  0  0  0  0  0  0  0  0  0  0  0
  -18.2832    9.7464  -17.6991 C   0  0  0  0  0  0  0  0  0  0  0  0
  -18.2028    8.6303  -16.9199 N   0  0  0  0  0  0  0  0  0  0  0  0
  -19.0824    8.6864  -15.9617 N   0  0  0  0  0  0  0  0  0  0  0  0
  -19.7916    9.8572  -16.0672 C   0  0  0  0  0  0  0  0  0  0  0  0
  -20.8760   10.3083  -15.1830 C   0  0  0  0  0  0  0  0  0  0  0  0
  -19.2879   10.5125  -17.1522 C   0  0  0  0  0  0  0  0  0  0  0  0
  -17.5237    7.8490  -17.0843 H   0  0  0  0  0  0  0  0  0  0  0  0
  -20.5805   12.5999  -17.3098 N   0  0  0  0  0  0  0  0  0  0  0  0
  -21.3801   12.3168  -16.7770 H   0  0  0  0  0  0  0  0  0  0  0  0
  -19.2666   14.6517  -16.9496 C   0  0  0  0  0  0  0  0  0  0  0  0
  -20.4547   14.0217  -17.6287 C   0  0  0  0  0  0  0  0  0  0  0  0
  -21.6865   14.7877  -17.2523 C   0  0  0  0  0  0  0  0  0  0  0  0
  -17.1596   11.7661  -20.5170 N   0  0  0  0  0  0  0  0  0  0  0  0
  -16.4067   11.1361  -20.9615 H   0  0  0  0  0  0  0  0  0  0  0  0
  -17.3378   13.0141  -21.1445 C   0  0  0  0  0  0  0  0  0  0  0  0
  -17.3899   13.0657  -22.5567 C   0  0  0  0  0  0  0  0  0  0  0  0
  -17.5361   14.2321  -23.2600 C   0  0  0  0  0  0  0  0  0  0  0  0
  -17.6402   15.4224  -22.6123 C   0  0  0  0  0  0  0  0  0  0  0  0
  -17.5932   15.4075  -21.2473 C   0  0  0  0  0  0  0  0  0  0  0  0
  -17.4438   14.2240  -20.5104 C   0  0  0  0  0  0  0  0  0  0  0  0
  -17.8295   16.9577  -23.4309 S   0  0  0  0  0  0  0  0  0  0  0  0
  -16.6879   17.1441  -24.7484 C   0  0  0  0  0  0  0  0  0  0  0  0
  -17.5791   18.0473  -22.4209 O   0  0  0  0  0  0  0  0  0  0  0  0
  -19.2432   17.0845  -23.9431 O   0  0  0  0  0  0  0  0  0  0  0  0
 14 15  1  0  0  0
 15 16  1  0  0  0
 15 12  1  0  0  0
 12  1  1  0  0  0
  1  2  2  0  0  0
  2  3  1  0  0  0
  3 17  1  0  0  0
 17 19  1  0  0  0
 19 20  2  0  0  0
 20 21  1  0  0  0
 21 22  2  0  0  0
 22 23  1  0  0  0
 23 24  2  0  0  0
 22 25  1  0  0  0
 25 26  1  0  0  0
 25 27  2  0  0  0
 25 28  2  0  0  0
  3  4  2  0  0  0
  4  5  1  0  0  0
  5  6  1  0  0  0
  6  7  1  0  0  0
  7  8  2  0  0  0
  8  9  1  0  0  0
  8 10  1  0  0  0
 10  1  1  0  0  0
 24 19  1  0  0  0
 10  5  2  0  0  0
 12 13  1  0  0  0
 17 18  1  0  0  0
  6 11  1  0  0  0
M  END
> <minimizedAffinity>
-7.18279

> <CNNscore>
0.4451000392

> <CNNaffinity>
6.4274940491

> <CNN_VS>
2.8608777523

> <CNNaffinity_variance>
0.2041148394

$$$$
[H]c1c([H])c(S(=O)(=O)C([H])([H])[H])c([H])c([H])c1N([H])c1nc(N([H])C([H])(C([H])([H])[H])C([H])([H])[H])c2c(C([H])([H])[H])nn([H])c2n1


 28 30  0  0  0  0  0  0  0  0999 V2000
  -20.0141   11.2029  -17.0996 C   0  0  0  0  0  0  0  0  0  0  0  0
  -18.9071   11.2428  -17.8794 N   0  0  0  0  0  0  0  0  0  0  0  0
  -18.0333   10.2373  -18.0490 C   0  0  0  0  0  0  0  0  0  0  0  0
  -18.2948    9.1209  -17.3889 N   0  0  0  0  0  0  0  0  0  0  0  0
  -19.3638    8.9905  -16.5963 C   0  0  0  0  0  0  0  0  0  0  0  0
  -19.8264    7.9590  -15.8339 N   0  0  0  0  0  0  0  0  0  0  0  0
  -20.9244    8.3058  -15.2264 N   0  0  0  0  0  0  0  0  0  0  0  0
  -21.2395    9.5983  -15.5652 C   0  0  0  0  0  0  0  0  0  0  0  0
  -22.4000   10.3697  -15.0966 C   0  0  0  0  0  0  0  0  0  0  0  0
  -20.2624   10.0184  -16.4193 C   0  0  0  0  0  0  0  0  0  0  0  0
  -19.3524    7.0271  -15.7598 H   0  0  0  0  0  0  0  0  0  0  0  0
  -20.8598   12.3323  -17.0041 N   0  0  0  0  0  0  0  0  0  0  0  0
  -21.7759   12.3236  -16.5988 H   0  0  0  0  0  0  0  0  0  0  0  0
  -20.6614   14.7539  -16.6012 C   0  0  0  0  0  0  0  0  0  0  0  0
  -20.3709   13.6055  -17.5321 C   0  0  0  0  0  0  0  0  0  0  0  0
  -20.9595   13.9140  -18.8753 C   0  0  0  0  0  0  0  0  0  0  0  0
  -16.9139   10.4329  -18.8766 N   0  0  0  0  0  0  0  0  0  0  0  0
  -15.9706   10.0056  -18.5783 H   0  0  0  0  0  0  0  0  0  0  0  0
  -16.8854   11.1523  -20.0868 C   0  0  0  0  0  0  0  0  0  0  0  0
  -15.9802   10.7519  -21.0967 C   0  0  0  0  0  0  0  0  0  0  0  0
  -15.8603   11.4007  -22.2972 C   0  0  0  0  0  0  0  0  0  0  0  0
  -16.6277   12.4872  -22.5763 C   0  0  0  0  0  0  0  0  0  0  0  0
  -17.5126   12.9004  -21.6214 C   0  0  0  0  0  0  0  0  0  0  0  0
  -17.6492   12.2495  -20.3871 C   0  0  0  0  0  0  0  0  0  0  0  0
  -16.5400   13.3743  -24.0824 S   0  0  0  0  0  0  0  0  0  0  0  0
  -17.5370   12.6503  -25.3296 C   0  0  0  0  0  0  0  0  0  0  0  0
  -15.1052   13.3525  -24.5418 O   0  0  0  0  0  0  0  0  0  0  0  0
  -16.9542   14.8062  -23.8485 O   0  0  0  0  0  0  0  0  0  0  0  0
 14 15  1  0  0  0
 15 16  1  0  0  0
 15 12  1  0  0  0
 12  1  1  0  0  0
  1  2  2  0  0  0
  2  3  1  0  0  0
  3 17  1  0  0  0
 17 19  1  0  0  0
 19 20  2  0  0  0
 20 21  1  0  0  0
 21 22  2  0  0  0
 22 23  1  0  0  0
 23 24  2  0  0  0
 22 25  1  0  0  0
 25 26  1  0  0  0
 25 27  2  0  0  0
 25 28  2  0  0  0
  3  4  2  0  0  0
  4  5  1  0  0  0
  5  6  1  0  0  0
  6  7  1  0  0  0
  7  8  2  0  0  0
  8  9  1  0  0  0
  8 10  1  0  0  0
 10  1  1  0  0  0
 24 19  1  0  0  0
 10  5  2  0  0  0
 12 13  1  0  0  0
 17 18  1  0  0  0
  6 11  1  0  0  0
M  END
> <minimizedAffinity>
-7.72198

> <CNNscore>
0.3828705847

> <CNNaffinity>
6.4030904770

> <CNN_VS>
2.4515550137

> <CNNaffinity_variance>
0.1484680772

$$$$
[H]c1c([H])c(S(=O)(=O)C([H])([H])[H])c([H])c([H])c1N([H])c1nc(N([H])C([H])(C([H])([H])[H])C([H])([H])[H])c2c(C([H])([H])[H])nn([H])c2n1


 28 30  0  0  0  0  0  0  0  0999 V2000
  -17.7757   12.4602  -21.2428 C   0  0  0  0  0  0  0  0  0  0  0  0
  -18.8120   13.1337  -20.6882 N   0  0  0  0  0  0  0  0  0  0  0  0
  -19.3161   12.9212  -19.4618 C   0  0  0  0  0  0  0  0  0  0  0  0
  -18.7361   11.9679  -18.7509 N   0  0  0  0  0  0  0  0  0  0  0  0
  -17.7075   11.2516  -19.2166 C   0  0  0  0  0  0  0  0  0  0  0  0
  -16.9673   10.2418  -18.6767 N   0  0  0  0  0  0  0  0  0  0  0  0
  -16.0563    9.8509  -19.5207 N   0  0  0  0  0  0  0  0  0  0  0  0
  -16.1561   10.5949  -20.6701 C   0  0  0  0  0  0  0  0  0  0  0  0
  -15.3160   10.4717  -21.8702 C   0  0  0  0  0  0  0  0  0  0  0  0
  -17.1873   11.4657  -20.4732 C   0  0  0  0  0  0  0  0  0  0  0  0
  -17.1237    9.8493  -17.7174 H   0  0  0  0  0  0  0  0  0  0  0  0
  -17.3351   12.7795  -22.5481 N   0  0  0  0  0  0  0  0  0  0  0  0
  -17.4665   12.1950  -23.3510 H   0  0  0  0  0  0  0  0  0  0  0  0
  -17.5039   15.0684  -23.4415 C   0  0  0  0  0  0  0  0  0  0  0  0
  -16.6375   14.0492  -22.7483 C   0  0  0  0  0  0  0  0  0  0  0  0
  -15.3761   13.8729  -23.5380 C   0  0  0  0  0  0  0  0  0  0  0  0
  -20.4119   13.6874  -19.0278 N   0  0  0  0  0  0  0  0  0  0  0  0
  -21.3732   13.5181  -19.4845 H   0  0  0  0  0  0  0  0  0  0  0  0
  -20.3918   14.6868  -18.0360 C   0  0  0  0  0  0  0  0  0  0  0  0
  -21.6133   15.0861  -17.4458 C   0  0  0  0  0  0  0  0  0  0  0  0
  -21.7009   16.0649  -16.4915 C   0  0  0  0  0  0  0  0  0  0  0  0
  -20.5865   16.7118  -16.0593 C   0  0  0  0  0  0  0  0  0  0  0  0
  -19.3900   16.3500  -16.6097 C   0  0  0  0  0  0  0  0  0  0  0  0
  -19.2806   15.3510  -17.5875 C   0  0  0  0  0  0  0  0  0  0  0  0
  -20.6073   17.9724  -14.8453 S   0  0  0  0  0  0  0  0  0  0  0  0
  -21.9696   17.8099  -13.7538 C   0  0  0  0  0  0  0  0  0  0  0  0
  -20.7206   19.2933  -15.5612 O   0  0  0  0  0  0  0  0  0  0  0  0
  -19.3122   17.9479  -14.0714 O   0  0  0  0  0  0  0  0  0  0  0  0
 14 15  1  0  0  0
 15 16  1  0  0  0
 15 12  1  0  0  0
 12  1  1  0  0  0
  1  2  2  0  0  0
  2  3  1  0  0  0
  3 17  1  0  0  0
 17 19  1  0  0  0
 19 20  2  0  0  0
 20 21  1  0  0  0
 21 22  2  0  0  0
 22 23  1  0  0  0
 23 24  2  0  0  0
 22 25  1  0  0  0
 25 26  1  0  0  0
 25 27  2  0  0  0
 25 28  2  0  0  0
  3  4  2  0  0  0
  4  5  1  0  0  0
  5  6  1  0  0  0
  6  7  1  0  0  0
  7  8  2  0  0  0
  8  9  1  0  0  0
  8 10  1  0  0  0
 10  1  1  0  0  0
 24 19  1  0  0  0
 10  5  2  0  0  0
 12 13  1  0  0  0
 17 18  1  0  0  0
  6 11  1  0  0  0
M  END
> <minimizedAffinity>
-6.74848

> <CNNscore>
0.3805511892

> <CNNaffinity>
6.3834156990

> <CNN_VS>
2.4292163849

> <CNNaffinity_variance>
0.2096647918

$$$$
[H]c1c([H])c(S(=O)(=O)C([H])([H])[H])c([H])c([H])c1N([H])c1nc(N([H])C([H])(C([H])([H])[H])C([H])([H])[H])c2c(C([H])([H])[H])nn([H])c2n1


 28 30  0  0  0  0  0  0  0  0999 V2000
  -19.1481   12.1627  -17.8928 C   0  0  0  0  0  0  0  0  0  0  0  0
  -19.6667   11.4233  -16.8832 N   0  0  0  0  0  0  0  0  0  0  0  0
  -19.3761   10.1376  -16.6262 C   0  0  0  0  0  0  0  0  0  0  0  0
  -18.5064    9.5631  -17.4410 N   0  0  0  0  0  0  0  0  0  0  0  0
  -17.9436   10.2150  -18.4639 C   0  0  0  0  0  0  0  0  0  0  0  0
  -17.0419    9.8370  -19.4145 N   0  0  0  0  0  0  0  0  0  0  0  0
  -16.7884   10.8320  -20.2148 N   0  0  0  0  0  0  0  0  0  0  0  0
  -17.5208   11.9251  -19.8231 C   0  0  0  0  0  0  0  0  0  0  0  0
  -17.5263   13.2507  -20.4588 C   0  0  0  0  0  0  0  0  0  0  0  0
  -18.2383   11.5329  -18.7313 C   0  0  0  0  0  0  0  0  0  0  0  0
  -16.6235    8.8780  -19.4762 H   0  0  0  0  0  0  0  0  0  0  0  0
  -19.5344   13.5129  -18.0586 N   0  0  0  0  0  0  0  0  0  0  0  0
  -18.9361   14.2994  -17.8943 H   0  0  0  0  0  0  0  0  0  0  0  0
  -20.9506   14.2579  -19.9309 C   0  0  0  0  0  0  0  0  0  0  0  0
  -20.9011   13.7891  -18.4999 C   0  0  0  0  0  0  0  0  0  0  0  0
  -21.5693   14.8138  -17.6343 C   0  0  0  0  0  0  0  0  0  0  0  0
  -20.0114    9.4918  -15.5513 N   0  0  0  0  0  0  0  0  0  0  0  0
  -20.8102    8.8003  -15.7639 H   0  0  0  0  0  0  0  0  0  0  0  0
  -19.7154    9.6573  -14.1846 C   0  0  0  0  0  0  0  0  0  0  0  0
  -19.1042    8.5908  -13.4855 C   0  0  0  0  0  0  0  0  0  0  0  0
  -18.7989    8.6454  -12.1512 C   0  0  0  0  0  0  0  0  0  0  0  0
  -19.0784    9.7580  -11.4223 C   0  0  0  0  0  0  0  0  0  0  0  0
  -19.6694   10.8066  -12.0677 C   0  0  0  0  0  0  0  0  0  0  0  0
  -19.9894   10.7691  -13.4323 C   0  0  0  0  0  0  0  0  0  0  0  0
  -18.7226    9.9129   -9.7157 S   0  0  0  0  0  0  0  0  0  0  0  0
  -19.2323    8.5020   -8.8083 C   0  0  0  0  0  0  0  0  0  0  0  0
  -19.4742   11.1126   -9.2001 O   0  0  0  0  0  0  0  0  0  0  0  0
  -17.2439   10.1479   -9.5287 O   0  0  0  0  0  0  0  0  0  0  0  0
 14 15  1  0  0  0
 15 16  1  0  0  0
 15 12  1  0  0  0
 12  1  1  0  0  0
  1  2  2  0  0  0
  2  3  1  0  0  0
  3 17  1  0  0  0
 17 19  1  0  0  0
 19 20  2  0  0  0
 20 21  1  0  0  0
 21 22  2  0  0  0
 22 23  1  0  0  0
 23 24  2  0  0  0
 22 25  1  0  0  0
 25 26  1  0  0  0
 25 27  2  0  0  0
 25 28  2  0  0  0
  3  4  2  0  0  0
  4  5  1  0  0  0
  5  6  1  0  0  0
  6  7  1  0  0  0
  7  8  2  0  0  0
  8  9  1  0  0  0
  8 10  1  0  0  0
 10  1  1  0  0  0
 24 19  1  0  0  0
 10  5  2  0  0  0
 12 13  1  0  0  0
 17 18  1  0  0  0
  6 11  1  0  0  0
M  END
> <minimizedAffinity>
-7.13782

> <CNNscore>
0.3641243875

> <CNNaffinity>
5.9680480957

> <CNN_VS>
2.1731119156

> <CNNaffinity_variance>
0.3204030693

$$$$
[H]Oc1c([H])c([H])c(C([H])([H])[C@@]([H])(C(=O)N([H])[H])N([H])C(=O)[C@@]([H])(N([H])C(=O)[C@@]([H])(N([H])C(=O)[C@@]([H])(N([H])C(=O)[C@@]([H])(N([H])C(=O)c2c([H])c([H])c(S(=O)(=O)N([H])[H])c([H])c2[H])C([H])([H])c2c([H])c([H])c([H])c([H])c2[H])C([H])([H])c2c([H])c([H])c([H])c([H])c2[H])C([H])([H])c2c([H])c([H])c([H])c([H])c2[H])C([H])([H])c2c([H])c([H])c([H])c([H])c2[H])c([H])c1[H]


 79 84  0  0  0  0  0  0  0  0999 V2000
  -19.0290   15.5746  -17.4561 C   0  0  0  0  0  0  0  0  0  0  0  0
  -18.1018   15.0265  -16.8093 O   0  0  0  0  0  0  0  0  0  0  0  0
  -19.1920   15.2850  -18.8122 N   0  0  0  0  0  0  0  0  0  0  0  0
  -20.0536   15.7673  -19.2885 H   0  0  0  0  0  0  0  0  0  0  0  0
  -19.9209   16.5203  -16.8009 C   0  0  0  0  0  0  0  0  0  0  0  0
  -21.8319   15.2078  -15.9910 C   0  0  0  0  0  0  0  0  0  0  0  0
  -22.0551   14.8333  -17.1972 O   0  0  0  0  0  0  0  0  0  0  0  0
  -20.7358   16.0764  -15.7319 N   0  0  0  0  0  0  0  0  0  0  0  0
  -20.5342   16.3862  -14.7480 H   0  0  0  0  0  0  0  0  0  0  0  0
  -22.7369   14.7097  -14.9269 C   0  0  0  0  0  0  0  0  0  0  0  0
  -21.9119   12.5383  -14.0987 C   0  0  0  0  0  0  0  0  0  0  0  0
  -22.5737   11.9480  -14.9800 O   0  0  0  0  0  0  0  0  0  0  0  0
  -21.9215   13.9489  -14.0162 N   0  0  0  0  0  0  0  0  0  0  0  0
  -21.3666   14.5106  -13.3108 H   0  0  0  0  0  0  0  0  0  0  0  0
  -19.5304   10.1528  -11.4211 C   0  0  0  0  0  0  0  0  0  0  0  0
  -19.2783   10.2261  -12.7876 C   0  0  0  0  0  0  0  0  0  0  0  0
  -20.0502   10.9754  -13.6371 C   0  0  0  0  0  0  0  0  0  0  0  0
  -21.1407   11.7089  -13.1607 C   0  0  0  0  0  0  0  0  0  0  0  0
  -21.4084   11.6482  -11.8227 C   0  0  0  0  0  0  0  0  0  0  0  0
  -20.6296   10.8921  -10.9682 C   0  0  0  0  0  0  0  0  0  0  0  0
  -17.2651   10.3176   -9.7694 N   0  0  0  0  0  0  0  0  0  0  0  0
  -18.5298    9.2734  -10.2993 S   0  0  0  0  0  0  0  0  0  0  0  0
  -19.2948    8.8420   -9.0841 O   0  0  0  0  0  0  0  0  0  0  0  0
  -17.9240    8.0945  -11.0310 O   0  0  0  0  0  0  0  0  0  0  0  0
  -17.6458   10.9462   -9.0024 H   0  0  0  0  0  0  0  0  0  0  0  0
  -17.0406   10.9711  -10.5462 H   0  0  0  0  0  0  0  0  0  0  0  0
  -23.5198   15.8025  -14.3244 C   0  0  0  0  0  0  0  0  0  0  0  0
  -24.3215   16.5254  -15.3739 C   0  0  0  0  0  0  0  0  0  0  0  0
  -25.4455   15.9308  -15.9198 C   0  0  0  0  0  0  0  0  0  0  0  0
  -26.2030   16.5765  -16.8743 C   0  0  0  0  0  0  0  0  0  0  0  0
  -25.8611   17.8416  -17.3196 C   0  0  0  0  0  0  0  0  0  0  0  0
  -24.7478   18.4140  -16.7698 C   0  0  0  0  0  0  0  0  0  0  0  0
  -23.9741   17.7865  -15.8113 C   0  0  0  0  0  0  0  0  0  0  0  0
  -18.9855   17.6166  -16.1211 C   0  0  0  0  0  0  0  0  0  0  0  0
  -19.8386   18.7350  -15.7247 C   0  0  0  0  0  0  0  0  0  0  0  0
  -19.8168   19.1203  -14.3824 C   0  0  0  0  0  0  0  0  0  0  0  0
  -20.5700   20.1924  -13.9494 C   0  0  0  0  0  0  0  0  0  0  0  0
  -21.3752   20.9248  -14.8230 C   0  0  0  0  0  0  0  0  0  0  0  0
  -21.3731   20.5169  -16.1513 C   0  0  0  0  0  0  0  0  0  0  0  0
  -20.6233   19.4505  -16.5845 C   0  0  0  0  0  0  0  0  0  0  0  0
  -18.4601   14.4757  -19.7283 C   0  0  0  0  0  0  0  0  0  0  0  0
  -17.9898   15.3000  -20.8577 C   0  0  0  0  0  0  0  0  0  0  0  0
  -16.7947   15.7825  -20.7070 O   0  0  0  0  0  0  0  0  0  0  0  0
  -18.6679   15.6223  -22.0622 N   0  0  0  0  0  0  0  0  0  0  0  0
  -19.6127   15.2611  -22.2298 H   0  0  0  0  0  0  0  0  0  0  0  0
  -18.0180   16.4466  -23.0460 C   0  0  0  0  0  0  0  0  0  0  0  0
  -18.5345   17.8035  -23.2421 C   0  0  0  0  0  0  0  0  0  0  0  0
  -18.0758   18.6118  -24.1207 O   0  0  0  0  0  0  0  0  0  0  0  0
  -19.6028   18.3114  -22.4345 N   0  0  0  0  0  0  0  0  0  0  0  0
  -19.9883   17.6118  -21.7150 H   0  0  0  0  0  0  0  0  0  0  0  0
  -20.1776   19.6138  -22.4617 C   0  0  0  0  0  0  0  0  0  0  0  0
  -19.6960   20.4797  -21.3839 C   0  0  0  0  0  0  0  0  0  0  0  0
  -18.3808   20.9826  -21.3981 N   0  0  0  0  0  0  0  0  0  0  0  0
  -20.4262   20.8147  -20.3830 O   0  0  0  0  0  0  0  0  0  0  0  0
  -17.6074   20.3309  -21.0592 H   0  0  0  0  0  0  0  0  0  0  0  0
  -18.0977   21.9504  -21.7122 H   0  0  0  0  0  0  0  0  0  0  0  0
  -21.6785   19.5698  -22.4790 C   0  0  0  0  0  0  0  0  0  0  0  0
  -22.2907   19.2498  -23.7847 C   0  0  0  0  0  0  0  0  0  0  0  0
  -22.7741   17.9540  -24.0051 C   0  0  0  0  0  0  0  0  0  0  0  0
  -23.3607   17.5827  -25.1883 C   0  0  0  0  0  0  0  0  0  0  0  0
  -23.5006   18.4810  -26.2229 C   0  0  0  0  0  0  0  0  0  0  0  0
  -24.0944   18.1002  -27.4241 O   0  0  0  0  0  0  0  0  0  0  0  0
  -23.0361   19.7532  -26.0264 C   0  0  0  0  0  0  0  0  0  0  0  0
  -22.4324   20.1552  -24.8264 C   0  0  0  0  0  0  0  0  0  0  0  0
  -25.1179   18.2360  -27.4660 H   0  0  0  0  0  0  0  0  0  0  0  0
  -17.9178   15.6982  -24.3852 C   0  0  0  0  0  0  0  0  0  0  0  0
  -16.5443   15.4731  -24.7884 C   0  0  0  0  0  0  0  0  0  0  0  0
  -16.0325   15.8010  -26.0260 C   0  0  0  0  0  0  0  0  0  0  0  0
  -14.7248   15.6097  -26.3998 C   0  0  0  0  0  0  0  0  0  0  0  0
  -13.8302   15.0515  -25.4886 C   0  0  0  0  0  0  0  0  0  0  0  0
  -14.3242   14.7183  -24.2478 C   0  0  0  0  0  0  0  0  0  0  0  0
  -15.6322   14.9111  -23.8833 C   0  0  0  0  0  0  0  0  0  0  0  0
  -19.0771   13.1802  -20.1445 C   0  0  0  0  0  0  0  0  0  0  0  0
  -18.8358   12.0531  -19.1962 C   0  0  0  0  0  0  0  0  0  0  0  0
  -17.7863   11.1793  -19.5080 C   0  0  0  0  0  0  0  0  0  0  0  0
  -17.4903   10.0858  -18.7307 C   0  0  0  0  0  0  0  0  0  0  0  0
  -18.2575    9.8416  -17.5994 C   0  0  0  0  0  0  0  0  0  0  0  0
  -19.2858   10.6764  -17.2722 C   0  0  0  0  0  0  0  0  0  0  0  0
  -19.5836   11.8030  -18.0817 C   0  0  0  0  0  0  0  0  0  0  0  0
 21 22  1  0  0  0
 22 23  2  0  0  0
 22 24  2  0  0  0
 22 15  1  0  0  0
 15 16  2  0  0  0
 16 17  1  0  0  0
 17 18  2  0  0  0
 18 19  1  0  0  0
 19 20  2  0  0  0
 18 11  1  0  0  0
 11 12  2  0  0  0
 11 13  1  0  0  0
 13 10  1  0  0  0
 10 27  1  0  0  0
 27 28  1  0  0  0
 28 29  2  0  0  0
 29 30  1  0  0  0
 30 31  2  0  0  0
 31 32  1  0  0  0
 32 33  2  0  0  0
 10  6  1  0  0  0
  6  7  2  0  0  0
  6  8  1  0  0  0
  8  5  1  0  0  0
  5 34  1  0  0  0
 34 35  1  0  0  0
 35 36  2  0  0  0
 36 37  1  0  0  0
 37 38  2  0  0  0
 38 39  1  0  0  0
 39 40  2  0  0  0
  5  1  1  0  0  0
  1  2  2  0  0  0
  1  3  1  0  0  0
  3 41  1  0  0  0
 41 73  1  0  0  0
 73 74  1  0  0  0
 74 75  2  0  0  0
 75 76  1  0  0  0
 76 77  2  0  0  0
 77 78  1  0  0  0
 78 79  2  0  0  0
 41 42  1  0  0  0
 42 43  2  0  0  0
 42 44  1  0  0  0
 44 46  1  0  0  0
 46 66  1  0  0  0
 66 67  1  0  0  0
 67 68  2  0  0  0
 68 69  1  0  0  0
 69 70  2  0  0  0
 70 71  1  0  0  0
 71 72  2  0  0  0
 46 47  1  0  0  0
 47 48  2  0  0  0
 47 49  1  0  0  0
 49 51  1  0  0  0
 51 57  1  0  0  0
 57 58  1  0  0  0
 58 59  2  0  0  0
 59 60  1  0  0  0
 60 61  2  0  0  0
 61 62  1  0  0  0
 61 63  1  0  0  0
 63 64  2  0  0  0
 51 52  1  0  0  0
 52 53  1  0  0  0
 52 54  2  0  0  0
 20 15  1  0  0  0
 33 28  1  0  0  0
 40 35  1  0  0  0
 79 74  1  0  0  0
 72 67  1  0  0  0
 64 58  1  0  0  0
 21 25  1  0  0  0
 21 26  1  0  0  0
 13 14  1  0  0  0
  8  9  1  0  0  0
  3  4  1  0  0  0
 44 45  1  0  0  0
 49 50  1  0  0  0
 62 65  1  0  0  0
 53 55  1  0  0  0
 53 56  1  0  0  0
M  END
> <minimizedAffinity>
-10.25955

> <CNNscore>
0.1577439159

> <CNNaffinity>
7.8064918518

> <CNN_VS>
1.2314265966

> <CNNaffinity_variance>
1.1065657139

$$$$
[H]Oc1c([H])c([H])c(C([H])([H])[C@@]([H])(C(=O)N([H])[H])N([H])C(=O)[C@@]([H])(N([H])C(=O)[C@@]([H])(N([H])C(=O)[C@@]([H])(N([H])C(=O)[C@@]([H])(N([H])C(=O)c2c([H])c([H])c(S(=O)(=O)N([H])[H])c([H])c2[H])C([H])([H])c2c([H])c([H])c([H])c([H])c2[H])C([H])([H])c2c([H])c([H])c([H])c([H])c2[H])C([H])([H])c2c([H])c([H])c([H])c([H])c2[H])C([H])([H])c2c([H])c([H])c([H])c([H])c2[H])c([H])c1[H]


 79 84  0  0  0  0  0  0  0  0999 V2000
  -19.1132   15.7153  -17.3154 C   0  0  0  0  0  0  0  0  0  0  0  0
  -18.1656   15.0879  -16.7798 O   0  0  0  0  0  0  0  0  0  0  0  0
  -19.2158   15.7584  -18.7072 N   0  0  0  0  0  0  0  0  0  0  0  0
  -20.0978   16.2847  -19.0906 H   0  0  0  0  0  0  0  0  0  0  0  0
  -20.0922   16.4091  -16.4911 C   0  0  0  0  0  0  0  0  0  0  0  0
  -22.0759   15.0965  -15.8813 C   0  0  0  0  0  0  0  0  0  0  0  0
  -22.5088   15.2385  -17.0802 O   0  0  0  0  0  0  0  0  0  0  0  0
  -20.8273   15.6784  -15.5271 N   0  0  0  0  0  0  0  0  0  0  0  0
  -20.4545   15.5644  -14.5511 H   0  0  0  0  0  0  0  0  0  0  0  0
  -22.9089   14.3274  -14.9251 C   0  0  0  0  0  0  0  0  0  0  0  0
  -22.0614   12.3011  -13.8038 C   0  0  0  0  0  0  0  0  0  0  0  0
  -22.8691   11.6012  -14.4526 O   0  0  0  0  0  0  0  0  0  0  0  0
  -22.0007   13.6989  -14.0014 N   0  0  0  0  0  0  0  0  0  0  0  0
  -21.3256   14.3447  -13.5032 H   0  0  0  0  0  0  0  0  0  0  0  0
  -19.4097   10.3293  -11.0447 C   0  0  0  0  0  0  0  0  0  0  0  0
  -19.2404   10.2663  -12.4244 C   0  0  0  0  0  0  0  0  0  0  0  0
  -20.0976   10.8836  -13.2980 C   0  0  0  0  0  0  0  0  0  0  0  0
  -21.1957   11.6137  -12.8340 C   0  0  0  0  0  0  0  0  0  0  0  0
  -21.3828   11.6855  -11.4828 C   0  0  0  0  0  0  0  0  0  0  0  0
  -20.5182   11.0622  -10.6041 C   0  0  0  0  0  0  0  0  0  0  0  0
  -19.2192    8.9377   -8.6128 N   0  0  0  0  0  0  0  0  0  0  0  0
  -18.3022    9.6226   -9.9015 S   0  0  0  0  0  0  0  0  0  0  0  0
  -17.4930    8.5185  -10.5132 O   0  0  0  0  0  0  0  0  0  0  0  0
  -17.4236   10.7261   -9.3514 O   0  0  0  0  0  0  0  0  0  0  0  0
  -19.5749    7.9854   -8.9210 H   0  0  0  0  0  0  0  0  0  0  0  0
  -20.0819    9.5056   -8.4944 H   0  0  0  0  0  0  0  0  0  0  0  0
  -23.9570   15.1674  -14.3203 C   0  0  0  0  0  0  0  0  0  0  0  0
  -25.2771   14.9530  -15.0117 C   0  0  0  0  0  0  0  0  0  0  0  0
  -26.0366   13.8324  -14.7246 C   0  0  0  0  0  0  0  0  0  0  0  0
  -27.2541   13.6187  -15.3359 C   0  0  0  0  0  0  0  0  0  0  0  0
  -27.7553   14.5188  -16.2601 C   0  0  0  0  0  0  0  0  0  0  0  0
  -26.9920   15.6200  -16.5321 C   0  0  0  0  0  0  0  0  0  0  0  0
  -25.7696   15.8557  -15.9310 C   0  0  0  0  0  0  0  0  0  0  0  0
  -19.2727   17.4567  -15.6137 C   0  0  0  0  0  0  0  0  0  0  0  0
  -20.0007   18.7235  -15.6511 C   0  0  0  0  0  0  0  0  0  0  0  0
  -20.5316   19.1276  -16.8781 C   0  0  0  0  0  0  0  0  0  0  0  0
  -21.2619   20.2945  -16.9748 C   0  0  0  0  0  0  0  0  0  0  0  0
  -21.4951   21.1088  -15.8656 C   0  0  0  0  0  0  0  0  0  0  0  0
  -20.9548   20.6777  -14.6601 C   0  0  0  0  0  0  0  0  0  0  0  0
  -20.2285   19.5160  -14.5617 C   0  0  0  0  0  0  0  0  0  0  0  0
  -18.3993   15.2501  -19.7583 C   0  0  0  0  0  0  0  0  0  0  0  0
  -17.9662   16.3558  -20.6337 C   0  0  0  0  0  0  0  0  0  0  0  0
  -17.1758   17.2121  -20.0629 O   0  0  0  0  0  0  0  0  0  0  0  0
  -18.2992   16.5924  -21.9929 N   0  0  0  0  0  0  0  0  0  0  0  0
  -18.9168   15.9416  -22.4891 H   0  0  0  0  0  0  0  0  0  0  0  0
  -17.7572   17.7409  -22.6688 C   0  0  0  0  0  0  0  0  0  0  0  0
  -18.5676   18.9613  -22.6887 C   0  0  0  0  0  0  0  0  0  0  0  0
  -18.8195   19.6225  -23.7540 O   0  0  0  0  0  0  0  0  0  0  0  0
  -19.1287   19.4953  -21.4839 N   0  0  0  0  0  0  0  0  0  0  0  0
  -18.9229   18.9160  -20.6020 H   0  0  0  0  0  0  0  0  0  0  0  0
  -19.8870   20.6902  -21.3262 C   0  0  0  0  0  0  0  0  0  0  0  0
  -19.1484   21.7570  -20.6483 C   0  0  0  0  0  0  0  0  0  0  0  0
  -18.2619   22.5851  -21.3632 N   0  0  0  0  0  0  0  0  0  0  0  0
  -19.2582   21.9871  -19.3904 O   0  0  0  0  0  0  0  0  0  0  0  0
  -17.2875   22.1985  -21.5604 H   0  0  0  0  0  0  0  0  0  0  0  0
  -18.4798   23.5563  -21.7164 H   0  0  0  0  0  0  0  0  0  0  0  0
  -21.2032   20.4397  -20.6481 C   0  0  0  0  0  0  0  0  0  0  0  0
  -22.0828   19.4546  -21.3100 C   0  0  0  0  0  0  0  0  0  0  0  0
  -22.5416   18.3557  -20.5730 C   0  0  0  0  0  0  0  0  0  0  0  0
  -23.3656   17.4026  -21.1157 C   0  0  0  0  0  0  0  0  0  0  0  0
  -23.7818   17.4879  -22.4259 C   0  0  0  0  0  0  0  0  0  0  0  0
  -24.6165   16.5171  -22.9749 O   0  0  0  0  0  0  0  0  0  0  0  0
  -23.3457   18.5557  -23.1624 C   0  0  0  0  0  0  0  0  0  0  0  0
  -22.5026   19.5412  -22.6296 C   0  0  0  0  0  0  0  0  0  0  0  0
  -25.6276   16.7065  -22.8769 H   0  0  0  0  0  0  0  0  0  0  0  0
  -17.3046   17.3591  -24.0875 C   0  0  0  0  0  0  0  0  0  0  0  0
  -16.9233   15.9646  -24.1870 C   0  0  0  0  0  0  0  0  0  0  0  0
  -17.7305   14.9716  -24.7004 C   0  0  0  0  0  0  0  0  0  0  0  0
  -17.3601   13.6541  -24.8170 C   0  0  0  0  0  0  0  0  0  0  0  0
  -16.0890   13.2641  -24.3996 C   0  0  0  0  0  0  0  0  0  0  0  0
  -15.2696   14.2428  -23.8845 C   0  0  0  0  0  0  0  0  0  0  0  0
  -15.6481   15.5561  -23.7701 C   0  0  0  0  0  0  0  0  0  0  0  0
  -18.9019   14.0554  -20.5016 C   0  0  0  0  0  0  0  0  0  0  0  0
  -18.0611   12.8330  -20.3386 C   0  0  0  0  0  0  0  0  0  0  0  0
  -17.8513   12.3810  -19.0294 C   0  0  0  0  0  0  0  0  0  0  0  0
  -17.0671   11.2879  -18.7505 C   0  0  0  0  0  0  0  0  0  0  0  0
  -16.4647   10.6106  -19.8024 C   0  0  0  0  0  0  0  0  0  0  0  0
  -16.6521   11.0293  -21.0874 C   0  0  0  0  0  0  0  0  0  0  0  0
  -17.4637   12.1596  -21.3648 C   0  0  0  0  0  0  0  0  0  0  0  0
 21 22  1  0  0  0
 22 23  2  0  0  0
 22 24  2  0  0  0
 22 15  1  0  0  0
 15 16  2  0  0  0
 16 17  1  0  0  0
 17 18  2  0  0  0
 18 19  1  0  0  0
 19 20  2  0  0  0
 18 11  1  0  0  0
 11 12  2  0  0  0
 11 13  1  0  0  0
 13 10  1  0  0  0
 10 27  1  0  0  0
 27 28  1  0  0  0
 28 29  2  0  0  0
 29 30  1  0  0  0
 30 31  2  0  0  0
 31 32  1  0  0  0
 32 33  2  0  0  0
 10  6  1  0  0  0
  6  7  2  0  0  0
  6  8  1  0  0  0
  8  5  1  0  0  0
  5 34  1  0  0  0
 34 35  1  0  0  0
 35 36  2  0  0  0
 36 37  1  0  0  0
 37 38  2  0  0  0
 38 39  1  0  0  0
 39 40  2  0  0  0
  5  1  1  0  0  0
  1  2  2  0  0  0
  1  3  1  0  0  0
  3 41  1  0  0  0
 41 73  1  0  0  0
 73 74  1  0  0  0
 74 75  2  0  0  0
 75 76  1  0  0  0
 76 77  2  0  0  0
 77 78  1  0  0  0
 78 79  2  0  0  0
 41 42  1  0  0  0
 42 43  2  0  0  0
 42 44  1  0  0  0
 44 46  1  0  0  0
 46 66  1  0  0  0
 66 67  1  0  0  0
 67 68  2  0  0  0
 68 69  1  0  0  0
 69 70  2  0  0  0
 70 71  1  0  0  0
 71 72  2  0  0  0
 46 47  1  0  0  0
 47 48  2  0  0  0
 47 49  1  0  0  0
 49 51  1  0  0  0
 51 57  1  0  0  0
 57 58  1  0  0  0
 58 59  2  0  0  0
 59 60  1  0  0  0
 60 61  2  0  0  0
 61 62  1  0  0  0
 61 63  1  0  0  0
 63 64  2  0  0  0
 51 52  1  0  0  0
 52 53  1  0  0  0
 52 54  2  0  0  0
 20 15  1  0  0  0
 33 28  1  0  0  0
 40 35  1  0  0  0
 79 74  1  0  0  0
 72 67  1  0  0  0
 64 58  1  0  0  0
 21 25  1  0  0  0
 21 26  1  0  0  0
 13 14  1  0  0  0
  8  9  1  0  0  0
  3  4  1  0  0  0
 44 45  1  0  0  0
 49 50  1  0  0  0
 62 65  1  0  0  0
 53 55  1  0  0  0
 53 56  1  0  0  0
M  END
> <minimizedAffinity>
-9.93559

> <CNNscore>
0.1496544927

> <CNNaffinity>
7.2727918625

> <CNN_VS>
1.0884059668

> <CNNaffinity_variance>
2.5847973824

$$$$
[H]Oc1c([H])c([H])c(C([H])([H])[C@@]([H])(C(=O)N([H])[H])N([H])C(=O)[C@@]([H])(N([H])C(=O)[C@@]([H])(N([H])C(=O)[C@@]([H])(N([H])C(=O)[C@@]([H])(N([H])C(=O)c2c([H])c([H])c(S(=O)(=O)N([H])[H])c([H])c2[H])C([H])([H])c2c([H])c([H])c([H])c([H])c2[H])C([H])([H])c2c([H])c([H])c([H])c([H])c2[H])C([H])([H])c2c([H])c([H])c([H])c([H])c2[H])C([H])([H])c2c([H])c([H])c([H])c([H])c2[H])c([H])c1[H]


 79 84  0  0  0  0  0  0  0  0999 V2000
  -20.7826   17.5433  -18.3117 C   0  0  0  0  0  0  0  0  0  0  0  0
  -19.9599   18.0465  -19.1168 O   0  0  0  0  0  0  0  0  0  0  0  0
  -22.1387   17.8574  -18.4208 N   0  0  0  0  0  0  0  0  0  0  0  0
  -22.7931   17.3379  -17.7111 H   0  0  0  0  0  0  0  0  0  0  0  0
  -20.3246   16.6490  -17.2582 C   0  0  0  0  0  0  0  0  0  0  0  0
  -19.9398   14.5364  -18.4495 C   0  0  0  0  0  0  0  0  0  0  0  0
  -21.1310   14.6119  -18.9190 O   0  0  0  0  0  0  0  0  0  0  0  0
  -19.4723   15.5685  -17.5897 N   0  0  0  0  0  0  0  0  0  0  0  0
  -18.4959   15.5259  -17.2031 H   0  0  0  0  0  0  0  0  0  0  0  0
  -19.1114   13.3676  -18.8332 C   0  0  0  0  0  0  0  0  0  0  0  0
  -19.7969   11.9134  -16.9632 C   0  0  0  0  0  0  0  0  0  0  0  0
  -19.2389   12.6865  -16.1543 O   0  0  0  0  0  0  0  0  0  0  0  0
  -19.7982   12.1993  -18.3469 N   0  0  0  0  0  0  0  0  0  0  0  0
  -20.2711   11.6004  -19.0809 H   0  0  0  0  0  0  0  0  0  0  0  0
  -21.5430    8.3532  -15.2875 C   0  0  0  0  0  0  0  0  0  0  0  0
  -20.2242    8.4072  -15.7282 C   0  0  0  0  0  0  0  0  0  0  0  0
  -19.6791    9.5396  -16.2754 C   0  0  0  0  0  0  0  0  0  0  0  0
  -20.4355   10.7066  -16.4169 C   0  0  0  0  0  0  0  0  0  0  0  0
  -21.7339   10.6746  -15.9939 C   0  0  0  0  0  0  0  0  0  0  0  0
  -22.2817    9.5322  -15.4434 C   0  0  0  0  0  0  0  0  0  0  0  0
  -21.0214    6.1631  -13.6087 N   0  0  0  0  0  0  0  0  0  0  0  0
  -22.2493    6.9588  -14.5196 S   0  0  0  0  0  0  0  0  0  0  0  0
  -23.3424    7.3371  -13.5656 O   0  0  0  0  0  0  0  0  0  0  0  0
  -22.7458    6.0244  -15.6025 O   0  0  0  0  0  0  0  0  0  0  0  0
  -20.9081    6.6689  -12.6815 H   0  0  0  0  0  0  0  0  0  0  0  0
  -20.1136    6.3126  -14.0929 H   0  0  0  0  0  0  0  0  0  0  0  0
  -18.7985   13.3729  -20.2727 C   0  0  0  0  0  0  0  0  0  0  0  0
  -17.7169   12.3739  -20.5868 C   0  0  0  0  0  0  0  0  0  0  0  0
  -17.1087   12.3778  -21.8298 C   0  0  0  0  0  0  0  0  0  0  0  0
  -16.1080   11.4805  -22.1384 C   0  0  0  0  0  0  0  0  0  0  0  0
  -15.6807   10.5437  -21.2135 C   0  0  0  0  0  0  0  0  0  0  0  0
  -16.2923   10.5537  -19.9908 C   0  0  0  0  0  0  0  0  0  0  0  0
  -17.2964   11.4441  -19.6588 C   0  0  0  0  0  0  0  0  0  0  0  0
  -19.4332   17.5348  -16.2787 C   0  0  0  0  0  0  0  0  0  0  0  0
  -20.2109   17.7596  -15.0619 C   0  0  0  0  0  0  0  0  0  0  0  0
  -19.6076   18.4888  -14.0349 C   0  0  0  0  0  0  0  0  0  0  0  0
  -20.3002   18.7686  -12.8746 C   0  0  0  0  0  0  0  0  0  0  0  0
  -21.6138   18.3385  -12.6816 C   0  0  0  0  0  0  0  0  0  0  0  0
  -22.1852   17.6172  -13.7228 C   0  0  0  0  0  0  0  0  0  0  0  0
  -21.4978   17.3384  -14.8789 C   0  0  0  0  0  0  0  0  0  0  0  0
  -22.8686   18.7286  -19.2799 C   0  0  0  0  0  0  0  0  0  0  0  0
  -22.2186   18.7854  -20.6030 C   0  0  0  0  0  0  0  0  0  0  0  0
  -21.8560   19.9760  -20.9704 O   0  0  0  0  0  0  0  0  0  0  0  0
  -21.9462   17.7222  -21.5029 N   0  0  0  0  0  0  0  0  0  0  0  0
  -22.2096   16.7627  -21.2557 H   0  0  0  0  0  0  0  0  0  0  0  0
  -21.2910   17.9986  -22.7535 C   0  0  0  0  0  0  0  0  0  0  0  0
  -19.8267   18.0466  -22.7559 C   0  0  0  0  0  0  0  0  0  0  0  0
  -19.1493   18.8482  -23.4868 O   0  0  0  0  0  0  0  0  0  0  0  0
  -19.0573   17.1708  -21.9237 N   0  0  0  0  0  0  0  0  0  0  0  0
  -19.6436   16.5180  -21.3025 H   0  0  0  0  0  0  0  0  0  0  0  0
  -17.6401   17.0551  -21.8493 C   0  0  0  0  0  0  0  0  0  0  0  0
  -17.0245   18.0557  -20.9757 C   0  0  0  0  0  0  0  0  0  0  0  0
  -17.6823   19.2689  -20.6956 N   0  0  0  0  0  0  0  0  0  0  0  0
  -15.8724   17.8911  -20.4347 O   0  0  0  0  0  0  0  0  0  0  0  0
  -17.6130   20.0401  -21.4292 H   0  0  0  0  0  0  0  0  0  0  0  0
  -18.2342   19.4792  -19.8201 H   0  0  0  0  0  0  0  0  0  0  0  0
  -16.9993   17.0674  -23.2073 C   0  0  0  0  0  0  0  0  0  0  0  0
  -17.0681   15.7952  -23.9550 C   0  0  0  0  0  0  0  0  0  0  0  0
  -15.8743   15.1617  -24.3222 C   0  0  0  0  0  0  0  0  0  0  0  0
  -15.8568   13.9758  -25.0116 C   0  0  0  0  0  0  0  0  0  0  0  0
  -17.0284   13.3503  -25.3764 C   0  0  0  0  0  0  0  0  0  0  0  0
  -17.0072   12.1475  -26.0788 O   0  0  0  0  0  0  0  0  0  0  0  0
  -18.2058   13.9527  -25.0251 C   0  0  0  0  0  0  0  0  0  0  0  0
  -18.2485   15.1649  -24.3216 C   0  0  0  0  0  0  0  0  0  0  0  0
  -17.0013   11.2991  -25.4888 H   0  0  0  0  0  0  0  0  0  0  0  0
  -21.8830   19.2632  -23.3966 C   0  0  0  0  0  0  0  0  0  0  0  0
  -22.4798   18.9952  -24.6896 C   0  0  0  0  0  0  0  0  0  0  0  0
  -22.5480   19.9090  -25.7200 C   0  0  0  0  0  0  0  0  0  0  0  0
  -23.0919   19.6473  -26.9537 C   0  0  0  0  0  0  0  0  0  0  0  0
  -23.6156   18.3822  -27.2132 C   0  0  0  0  0  0  0  0  0  0  0  0
  -23.5557   17.4572  -26.1957 C   0  0  0  0  0  0  0  0  0  0  0  0
  -23.0122   17.7275  -24.9657 C   0  0  0  0  0  0  0  0  0  0  0  0
  -23.2482   20.0681  -18.7377 C   0  0  0  0  0  0  0  0  0  0  0  0
  -22.3835   20.5440  -17.6180 C   0  0  0  0  0  0  0  0  0  0  0  0
  -22.9438   20.5220  -16.3343 C   0  0  0  0  0  0  0  0  0  0  0  0
  -22.2586   20.9679  -15.2301 C   0  0  0  0  0  0  0  0  0  0  0  0
  -20.9688   21.4551  -15.3946 C   0  0  0  0  0  0  0  0  0  0  0  0
  -20.3987   21.4882  -16.6338 C   0  0  0  0  0  0  0  0  0  0  0  0
  -21.1149   21.0254  -17.7679 C   0  0  0  0  0  0  0  0  0  0  0  0
 21 22  1  0  0  0
 22 23  2  0  0  0
 22 24  2  0  0  0
 22 15  1  0  0  0
 15 16  2  0  0  0
 16 17  1  0  0  0
 17 18  2  0  0  0
 18 19  1  0  0  0
 19 20  2  0  0  0
 18 11  1  0  0  0
 11 12  2  0  0  0
 11 13  1  0  0  0
 13 10  1  0  0  0
 10 27  1  0  0  0
 27 28  1  0  0  0
 28 29  2  0  0  0
 29 30  1  0  0  0
 30 31  2  0  0  0
 31 32  1  0  0  0
 32 33  2  0  0  0
 10  6  1  0  0  0
  6  7  2  0  0  0
  6  8  1  0  0  0
  8  5  1  0  0  0
  5 34  1  0  0  0
 34 35  1  0  0  0
 35 36  2  0  0  0
 36 37  1  0  0  0
 37 38  2  0  0  0
 38 39  1  0  0  0
 39 40  2  0  0  0
  5  1  1  0  0  0
  1  2  2  0  0  0
  1  3  1  0  0  0
  3 41  1  0  0  0
 41 73  1  0  0  0
 73 74  1  0  0  0
 74 75  2  0  0  0
 75 76  1  0  0  0
 76 77  2  0  0  0
 77 78  1  0  0  0
 78 79  2  0  0  0
 41 42  1  0  0  0
 42 43  2  0  0  0
 42 44  1  0  0  0
 44 46  1  0  0  0
 46 66  1  0  0  0
 66 67  1  0  0  0
 67 68  2  0  0  0
 68 69  1  0  0  0
 69 70  2  0  0  0
 70 71  1  0  0  0
 71 72  2  0  0  0
 46 47  1  0  0  0
 47 48  2  0  0  0
 47 49  1  0  0  0
 49 51  1  0  0  0
 51 57  1  0  0  0
 57 58  1  0  0  0
 58 59  2  0  0  0
 59 60  1  0  0  0
 60 61  2  0  0  0
 61 62  1  0  0  0
 61 63  1  0  0  0
 63 64  2  0  0  0
 51 52  1  0  0  0
 52 53  1  0  0  0
 52 54  2  0  0  0
 20 15  1  0  0  0
 33 28  1  0  0  0
 40 35  1  0  0  0
 79 74  1  0  0  0
 72 67  1  0  0  0
 64 58  1  0  0  0
 21 25  1  0  0  0
 21 26  1  0  0  0
 13 14  1  0  0  0
  8  9  1  0  0  0
  3  4  1  0  0  0
 44 45  1  0  0  0
 49 50  1  0  0  0
 62 65  1  0  0  0
 53 55  1  0  0  0
 53 56  1  0  0  0
M  END
> <minimizedAffinity>
-9.85395

> <CNNscore>
0.1366693228

> <CNNaffinity>
7.7687935829

> <CNN_VS>
1.0617557764

> <CNNaffinity_variance>
1.5590204000

$$$$
[H]Oc1c([H])c([H])c(C([H])([H])[C@@]([H])(C(=O)N([H])[H])N([H])C(=O)[C@@]([H])(N([H])C(=O)[C@@]([H])(N([H])C(=O)[C@@]([H])(N([H])C(=O)[C@@]([H])(N([H])C(=O)c2c([H])c([H])c(S(=O)(=O)N([H])[H])c([H])c2[H])C([H])([H])c2c([H])c([H])c([H])c([H])c2[H])C([H])([H])c2c([H])c([H])c([H])c([H])c2[H])C([H])([H])c2c([H])c([H])c([H])c([H])c2[H])C([H])([H])c2c([H])c([H])c([H])c([H])c2[H])c([H])c1[H]


 79 84  0  0  0  0  0  0  0  0999 V2000
  -21.5729   15.4868  -16.7907 C   0  0  0  0  0  0  0  0  0  0  0  0
  -22.0763   15.1028  -17.8758 O   0  0  0  0  0  0  0  0  0  0  0  0
  -20.5645   14.7309  -16.1896 N   0  0  0  0  0  0  0  0  0  0  0  0
  -20.1470   15.1619  -15.2721 H   0  0  0  0  0  0  0  0  0  0  0  0
  -22.0486   16.7055  -16.1521 C   0  0  0  0  0  0  0  0  0  0  0  0
  -21.1067   18.9249  -16.6189 C   0  0  0  0  0  0  0  0  0  0  0  0
  -20.2288   18.7176  -15.7072 O   0  0  0  0  0  0  0  0  0  0  0  0
  -22.0676   17.9123  -16.8919 N   0  0  0  0  0  0  0  0  0  0  0  0
  -22.7888   18.0630  -17.6414 H   0  0  0  0  0  0  0  0  0  0  0  0
  -21.0694   20.2191  -17.3422 C   0  0  0  0  0  0  0  0  0  0  0  0
  -21.0455   19.7749  -19.7679 C   0  0  0  0  0  0  0  0  0  0  0  0
  -19.7981   19.6935  -19.7432 O   0  0  0  0  0  0  0  0  0  0  0  0
  -21.7738   20.0180  -18.5817 N   0  0  0  0  0  0  0  0  0  0  0  0
  -22.8298   20.0750  -18.5293 H   0  0  0  0  0  0  0  0  0  0  0  0
  -22.9620   19.4522  -23.6090 C   0  0  0  0  0  0  0  0  0  0  0  0
  -23.1418   20.5473  -22.7696 C   0  0  0  0  0  0  0  0  0  0  0  0
  -22.5409   20.6365  -21.5408 C   0  0  0  0  0  0  0  0  0  0  0  0
  -21.7094   19.6160  -21.0704 C   0  0  0  0  0  0  0  0  0  0  0  0
  -21.5220   18.5297  -21.8770 C   0  0  0  0  0  0  0  0  0  0  0  0
  -22.1290   18.4414  -23.1148 C   0  0  0  0  0  0  0  0  0  0  0  0
  -23.6957   17.6717  -25.6532 N   0  0  0  0  0  0  0  0  0  0  0  0
  -23.6470   19.3355  -25.2060 S   0  0  0  0  0  0  0  0  0  0  0  0
  -25.0528   19.8545  -25.2529 O   0  0  0  0  0  0  0  0  0  0  0  0
  -22.7403   20.0789  -26.1639 O   0  0  0  0  0  0  0  0  0  0  0  0
  -24.5517   17.2277  -25.2077 H   0  0  0  0  0  0  0  0  0  0  0  0
  -22.8937   17.1922  -25.1973 H   0  0  0  0  0  0  0  0  0  0  0  0
  -21.5575   21.3255  -16.5011 C   0  0  0  0  0  0  0  0  0  0  0  0
  -22.9114   21.0019  -15.9276 C   0  0  0  0  0  0  0  0  0  0  0  0
  -23.0722   20.8721  -14.5593 C   0  0  0  0  0  0  0  0  0  0  0  0
  -24.3039   20.5872  -14.0085 C   0  0  0  0  0  0  0  0  0  0  0  0
  -25.4207   20.4190  -14.8087 C   0  0  0  0  0  0  0  0  0  0  0  0
  -25.2439   20.5504  -16.1580 C   0  0  0  0  0  0  0  0  0  0  0  0
  -24.0195   20.8368  -16.7323 C   0  0  0  0  0  0  0  0  0  0  0  0
  -23.5850   16.4584  -15.8100 C   0  0  0  0  0  0  0  0  0  0  0  0
  -23.7898   16.8401  -14.4143 C   0  0  0  0  0  0  0  0  0  0  0  0
  -22.6639   17.2032  -13.6719 C   0  0  0  0  0  0  0  0  0  0  0  0
  -22.7919   17.6101  -12.3595 C   0  0  0  0  0  0  0  0  0  0  0  0
  -24.0350   17.6729  -11.7281 C   0  0  0  0  0  0  0  0  0  0  0  0
  -25.1347   17.3068  -12.4947 C   0  0  0  0  0  0  0  0  0  0  0  0
  -25.0094   16.9024  -13.8014 C   0  0  0  0  0  0  0  0  0  0  0  0
  -19.9481   13.4910  -16.5249 C   0  0  0  0  0  0  0  0  0  0  0  0
  -19.0770   13.6684  -17.7022 C   0  0  0  0  0  0  0  0  0  0  0  0
  -17.8143   13.4850  -17.4661 O   0  0  0  0  0  0  0  0  0  0  0  0
  -19.4418   14.0063  -19.0315 N   0  0  0  0  0  0  0  0  0  0  0  0
  -20.4278   14.1567  -19.2688 H   0  0  0  0  0  0  0  0  0  0  0  0
  -18.4233   14.1246  -20.0407 C   0  0  0  0  0  0  0  0  0  0  0  0
  -18.2175   15.4430  -20.6453 C   0  0  0  0  0  0  0  0  0  0  0  0
  -19.0954   16.3729  -20.6238 O   0  0  0  0  0  0  0  0  0  0  0  0
  -16.9935   15.7657  -21.3156 N   0  0  0  0  0  0  0  0  0  0  0  0
  -16.2605   14.9792  -21.3068 H   0  0  0  0  0  0  0  0  0  0  0  0
  -16.6595   16.9711  -21.9958 C   0  0  0  0  0  0  0  0  0  0  0  0
  -17.0762   18.1751  -21.2747 C   0  0  0  0  0  0  0  0  0  0  0  0
  -16.7004   18.3763  -19.9325 N   0  0  0  0  0  0  0  0  0  0  0  0
  -17.7986   19.0907  -21.8102 O   0  0  0  0  0  0  0  0  0  0  0  0
  -17.2746   17.8747  -19.1865 H   0  0  0  0  0  0  0  0  0  0  0  0
  -15.9016   18.9839  -19.6039 H   0  0  0  0  0  0  0  0  0  0  0  0
  -17.1781   16.9881  -23.4050 C   0  0  0  0  0  0  0  0  0  0  0  0
  -17.0962   15.7030  -24.1288 C   0  0  0  0  0  0  0  0  0  0  0  0
  -18.2758   14.9888  -24.3734 C   0  0  0  0  0  0  0  0  0  0  0  0
  -18.2815   13.7920  -25.0439 C   0  0  0  0  0  0  0  0  0  0  0  0
  -17.1114   13.2354  -25.5110 C   0  0  0  0  0  0  0  0  0  0  0  0
  -17.1202   12.0187  -26.1893 O   0  0  0  0  0  0  0  0  0  0  0  0
  -15.9480   13.9191  -25.2835 C   0  0  0  0  0  0  0  0  0  0  0  0
  -15.9175   15.1429  -24.5999 C   0  0  0  0  0  0  0  0  0  0  0  0
  -17.2304   12.0925  -27.2141 H   0  0  0  0  0  0  0  0  0  0  0  0
  -18.6177   13.0489  -21.1217 C   0  0  0  0  0  0  0  0  0  0  0  0
  -17.5032   12.1250  -21.1853 C   0  0  0  0  0  0  0  0  0  0  0  0
  -16.5435   12.1297  -22.1754 C   0  0  0  0  0  0  0  0  0  0  0  0
  -15.4738   11.2696  -22.2225 C   0  0  0  0  0  0  0  0  0  0  0  0
  -15.3188   10.3189  -21.2153 C   0  0  0  0  0  0  0  0  0  0  0  0
  -16.2678   10.3001  -20.2186 C   0  0  0  0  0  0  0  0  0  0  0  0
  -17.3341   11.1618  -20.1800 C   0  0  0  0  0  0  0  0  0  0  0  0
  -20.8280   12.2860  -16.6031 C   0  0  0  0  0  0  0  0  0  0  0  0
  -20.1140   10.9909  -16.4007 C   0  0  0  0  0  0  0  0  0  0  0  0
  -20.1373   10.4524  -15.1078 C   0  0  0  0  0  0  0  0  0  0  0  0
  -19.4871    9.2844  -14.7908 C   0  0  0  0  0  0  0  0  0  0  0  0
  -18.7853    8.6178  -15.7863 C   0  0  0  0  0  0  0  0  0  0  0  0
  -18.7459    9.1200  -17.0543 C   0  0  0  0  0  0  0  0  0  0  0  0
  -19.4206   10.3271  -17.3715 C   0  0  0  0  0  0  0  0  0  0  0  0
 21 22  1  0  0  0
 22 23  2  0  0  0
 22 24  2  0  0  0
 22 15  1  0  0  0
 15 16  2  0  0  0
 16 17  1  0  0  0
 17 18  2  0  0  0
 18 19  1  0  0  0
 19 20  2  0  0  0
 18 11  1  0  0  0
 11 12  2  0  0  0
 11 13  1  0  0  0
 13 10  1  0  0  0
 10 27  1  0  0  0
 27 28  1  0  0  0
 28 29  2  0  0  0
 29 30  1  0  0  0
 30 31  2  0  0  0
 31 32  1  0  0  0
 32 33  2  0  0  0
 10  6  1  0  0  0
  6  7  2  0  0  0
  6  8  1  0  0  0
  8  5  1  0  0  0
  5 34  1  0  0  0
 34 35  1  0  0  0
 35 36  2  0  0  0
 36 37  1  0  0  0
 37 38  2  0  0  0
 38 39  1  0  0  0
 39 40  2  0  0  0
  5  1  1  0  0  0
  1  2  2  0  0  0
  1  3  1  0  0  0
  3 41  1  0  0  0
 41 73  1  0  0  0
 73 74  1  0  0  0
 74 75  2  0  0  0
 75 76  1  0  0  0
 76 77  2  0  0  0
 77 78  1  0  0  0
 78 79  2  0  0  0
 41 42  1  0  0  0
 42 43  2  0  0  0
 42 44  1  0  0  0
 44 46  1  0  0  0
 46 66  1  0  0  0
 66 67  1  0  0  0
 67 68  2  0  0  0
 68 69  1  0  0  0
 69 70  2  0  0  0
 70 71  1  0  0  0
 71 72  2  0  0  0
 46 47  1  0  0  0
 47 48  2  0  0  0
 47 49  1  0  0  0
 49 51  1  0  0  0
 51 57  1  0  0  0
 57 58  1  0  0  0
 58 59  2  0  0  0
 59 60  1  0  0  0
 60 61  2  0  0  0
 61 62  1  0  0  0
 61 63  1  0  0  0
 63 64  2  0  0  0
 51 52  1  0  0  0
 52 53  1  0  0  0
 52 54  2  0  0  0
 20 15  1  0  0  0
 33 28  1  0  0  0
 40 35  1  0  0  0
 79 74  1  0  0  0
 72 67  1  0  0  0
 64 58  1  0  0  0
 21 25  1  0  0  0
 21 26  1  0  0  0
 13 14  1  0  0  0
  8  9  1  0  0  0
  3  4  1  0  0  0
 44 45  1  0  0  0
 49 50  1  0  0  0
 62 65  1  0  0  0
 53 55  1  0  0  0
 53 56  1  0  0  0
M  END
> <minimizedAffinity>
-9.18613

> <CNNscore>
0.1356320232

> <CNNaffinity>
7.6694259644

> <CNN_VS>
1.0402197838

> <CNNaffinity_variance>
1.6874605417

$$$$
[H]Oc1c([H])c([H])c(C([H])([H])[C@@]([H])(C(=O)N([H])[H])N([H])C(=O)[C@@]([H])(N([H])C(=O)[C@@]([H])(N([H])C(=O)[C@@]([H])(N([H])C(=O)[C@@]([H])(N([H])C(=O)c2c([H])c([H])c(S(=O)(=O)N([H])[H])c([H])c2[H])C([H])([H])c2c([H])c([H])c([H])c([H])c2[H])C([H])([H])c2c([H])c([H])c([H])c([H])c2[H])C([H])([H])c2c([H])c([H])c([H])c([H])c2[H])C([H])([H])c2c([H])c([H])c([H])c([H])c2[H])c([H])c1[H]


 79 84  0  0  0  0  0  0  0  0999 V2000
  -17.7923   15.8937  -20.4228 C   0  0  0  0  0  0  0  0  0  0  0  0
  -17.3117   16.9031  -19.8496 O   0  0  0  0  0  0  0  0  0  0  0  0
  -18.2279   15.9910  -21.7458 N   0  0  0  0  0  0  0  0  0  0  0  0
  -18.5875   15.0531  -22.1851 H   0  0  0  0  0  0  0  0  0  0  0  0
  -17.9108   14.6312  -19.7079 C   0  0  0  0  0  0  0  0  0  0  0  0
  -20.2021   14.7219  -18.8292 C   0  0  0  0  0  0  0  0  0  0  0  0
  -20.6221   14.9657  -20.0163 O   0  0  0  0  0  0  0  0  0  0  0  0
  -18.8081   14.5351  -18.6172 N   0  0  0  0  0  0  0  0  0  0  0  0
  -18.4484   14.3265  -17.6520 H   0  0  0  0  0  0  0  0  0  0  0  0
  -21.2023   14.6483  -17.7366 C   0  0  0  0  0  0  0  0  0  0  0  0
  -20.3813   12.6431  -16.5592 C   0  0  0  0  0  0  0  0  0  0  0  0
  -19.4387   13.3087  -16.0778 O   0  0  0  0  0  0  0  0  0  0  0  0
  -21.3395   13.2557  -17.3976 N   0  0  0  0  0  0  0  0  0  0  0  0
  -22.1730   12.7562  -17.8180 H   0  0  0  0  0  0  0  0  0  0  0  0
  -20.7039    8.4609  -15.5911 C   0  0  0  0  0  0  0  0  0  0  0  0
  -21.5810    9.4178  -15.0896 C   0  0  0  0  0  0  0  0  0  0  0  0
  -21.4631   10.7502  -15.3894 C   0  0  0  0  0  0  0  0  0  0  0  0
  -20.4413   11.2125  -16.2239 C   0  0  0  0  0  0  0  0  0  0  0  0
  -19.5668   10.2903  -16.7244 C   0  0  0  0  0  0  0  0  0  0  0  0
  -19.6869    8.9481  -16.4206 C   0  0  0  0  0  0  0  0  0  0  0  0
  -19.3790    6.1754  -14.6382 N   0  0  0  0  0  0  0  0  0  0  0  0
  -20.8646    6.7524  -15.2944 S   0  0  0  0  0  0  0  0  0  0  0  0
  -21.9424    6.4552  -14.2953 O   0  0  0  0  0  0  0  0  0  0  0  0
  -21.1202    6.0653  -16.6191 O   0  0  0  0  0  0  0  0  0  0  0  0
  -19.3605    6.3969  -13.5995 H   0  0  0  0  0  0  0  0  0  0  0  0
  -18.6077    6.7490  -15.0347 H   0  0  0  0  0  0  0  0  0  0  0  0
  -20.8559   15.5470  -16.6219 C   0  0  0  0  0  0  0  0  0  0  0  0
  -22.0991   16.0765  -15.9580 C   0  0  0  0  0  0  0  0  0  0  0  0
  -22.2862   15.9041  -14.5978 C   0  0  0  0  0  0  0  0  0  0  0  0
  -23.4108   16.3894  -13.9641 C   0  0  0  0  0  0  0  0  0  0  0  0
  -24.3918   17.0636  -14.6704 C   0  0  0  0  0  0  0  0  0  0  0  0
  -24.1910   17.2247  -16.0131 C   0  0  0  0  0  0  0  0  0  0  0  0
  -23.0715   16.7482  -16.6693 C   0  0  0  0  0  0  0  0  0  0  0  0
  -18.4895   13.5791  -20.7553 C   0  0  0  0  0  0  0  0  0  0  0  0
  -17.7214   12.3448  -20.6060 C   0  0  0  0  0  0  0  0  0  0  0  0
  -16.8613   11.9891  -21.6473 C   0  0  0  0  0  0  0  0  0  0  0  0
  -16.0795   10.8558  -21.5535 C   0  0  0  0  0  0  0  0  0  0  0  0
  -16.1172   10.0286  -20.4300 C   0  0  0  0  0  0  0  0  0  0  0  0
  -16.9818   10.4114  -19.4117 C   0  0  0  0  0  0  0  0  0  0  0  0
  -17.7600   11.5396  -19.5028 C   0  0  0  0  0  0  0  0  0  0  0  0
  -18.3041   17.0751  -22.6670 C   0  0  0  0  0  0  0  0  0  0  0  0
  -19.4796   17.9114  -22.3582 C   0  0  0  0  0  0  0  0  0  0  0  0
  -19.2997   19.1812  -22.5554 O   0  0  0  0  0  0  0  0  0  0  0  0
  -20.7546   17.5070  -21.8835 N   0  0  0  0  0  0  0  0  0  0  0  0
  -20.9470   16.5139  -21.7166 H   0  0  0  0  0  0  0  0  0  0  0  0
  -21.7734   18.4956  -21.6502 C   0  0  0  0  0  0  0  0  0  0  0  0
  -21.8635   19.0726  -20.3066 C   0  0  0  0  0  0  0  0  0  0  0  0
  -22.9691   19.3995  -19.7529 O   0  0  0  0  0  0  0  0  0  0  0  0
  -20.6874   19.3137  -19.5254 N   0  0  0  0  0  0  0  0  0  0  0  0
  -19.7696   19.0150  -19.9990 H   0  0  0  0  0  0  0  0  0  0  0  0
  -20.6002   19.9124  -18.2365 C   0  0  0  0  0  0  0  0  0  0  0  0
  -20.1320   21.2990  -18.2749 C   0  0  0  0  0  0  0  0  0  0  0  0
  -18.7935   21.5980  -18.5943 N   0  0  0  0  0  0  0  0  0  0  0  0
  -20.8957   22.2976  -18.0168 O   0  0  0  0  0  0  0  0  0  0  0  0
  -18.0740   21.5018  -17.8128 H   0  0  0  0  0  0  0  0  0  0  0  0
  -18.4443   21.9124  -19.5402 H   0  0  0  0  0  0  0  0  0  0  0  0
  -19.7700   19.0960  -17.2883 C   0  0  0  0  0  0  0  0  0  0  0  0
  -20.2108   19.1147  -15.8785 C   0  0  0  0  0  0  0  0  0  0  0  0
  -19.4031   18.5060  -14.9098 C   0  0  0  0  0  0  0  0  0  0  0  0
  -19.7417   18.4877  -13.5805 C   0  0  0  0  0  0  0  0  0  0  0  0
  -20.9058   19.0752  -13.1371 C   0  0  0  0  0  0  0  0  0  0  0  0
  -21.2481   19.0526  -11.7870 O   0  0  0  0  0  0  0  0  0  0  0  0
  -21.7079   19.6771  -14.0683 C   0  0  0  0  0  0  0  0  0  0  0  0
  -21.3831   19.7074  -15.4320 C   0  0  0  0  0  0  0  0  0  0  0  0
  -20.8989   19.8540  -11.2360 H   0  0  0  0  0  0  0  0  0  0  0  0
  -23.1413   17.9703  -22.1152 C   0  0  0  0  0  0  0  0  0  0  0  0
  -23.3905   18.2481  -23.5154 C   0  0  0  0  0  0  0  0  0  0  0  0
  -23.7243   19.4890  -24.0155 C   0  0  0  0  0  0  0  0  0  0  0  0
  -23.9368   19.7574  -25.3456 C   0  0  0  0  0  0  0  0  0  0  0  0
  -23.8115   18.7283  -26.2770 C   0  0  0  0  0  0  0  0  0  0  0  0
  -23.4784   17.4827  -25.7952 C   0  0  0  0  0  0  0  0  0  0  0  0
  -23.2696   17.2230  -24.4648 C   0  0  0  0  0  0  0  0  0  0  0  0
  -18.1586   16.7539  -24.1189 C   0  0  0  0  0  0  0  0  0  0  0  0
  -17.4386   15.4760  -24.3952 C   0  0  0  0  0  0  0  0  0  0  0  0
  -18.2186   14.3887  -24.8097 C   0  0  0  0  0  0  0  0  0  0  0  0
  -17.6746   13.1522  -25.0597 C   0  0  0  0  0  0  0  0  0  0  0  0
  -16.3069   12.9774  -24.8964 C   0  0  0  0  0  0  0  0  0  0  0  0
  -15.5234   14.0193  -24.4935 C   0  0  0  0  0  0  0  0  0  0  0  0
  -16.0951   15.2925  -24.2376 C   0  0  0  0  0  0  0  0  0  0  0  0
 21 22  1  0  0  0
 22 23  2  0  0  0
 22 24  2  0  0  0
 22 15  1  0  0  0
 15 16  2  0  0  0
 16 17  1  0  0  0
 17 18  2  0  0  0
 18 19  1  0  0  0
 19 20  2  0  0  0
 18 11  1  0  0  0
 11 12  2  0  0  0
 11 13  1  0  0  0
 13 10  1  0  0  0
 10 27  1  0  0  0
 27 28  1  0  0  0
 28 29  2  0  0  0
 29 30  1  0  0  0
 30 31  2  0  0  0
 31 32  1  0  0  0
 32 33  2  0  0  0
 10  6  1  0  0  0
  6  7  2  0  0  0
  6  8  1  0  0  0
  8  5  1  0  0  0
  5 34  1  0  0  0
 34 35  1  0  0  0
 35 36  2  0  0  0
 36 37  1  0  0  0
 37 38  2  0  0  0
 38 39  1  0  0  0
 39 40  2  0  0  0
  5  1  1  0  0  0
  1  2  2  0  0  0
  1  3  1  0  0  0
  3 41  1  0  0  0
 41 73  1  0  0  0
 73 74  1  0  0  0
 74 75  2  0  0  0
 75 76  1  0  0  0
 76 77  2  0  0  0
 77 78  1  0  0  0
 78 79  2  0  0  0
 41 42  1  0  0  0
 42 43  2  0  0  0
 42 44  1  0  0  0
 44 46  1  0  0  0
 46 66  1  0  0  0
 66 67  1  0  0  0
 67 68  2  0  0  0
 68 69  1  0  0  0
 69 70  2  0  0  0
 70 71  1  0  0  0
 71 72  2  0  0  0
 46 47  1  0  0  0
 47 48  2  0  0  0
 47 49  1  0  0  0
 49 51  1  0  0  0
 51 57  1  0  0  0
 57 58  1  0  0  0
 58 59  2  0  0  0
 59 60  1  0  0  0
 60 61  2  0  0  0
 61 62  1  0  0  0
 61 63  1  0  0  0
 63 64  2  0  0  0
 51 52  1  0  0  0
 52 53  1  0  0  0
 52 54  2  0  0  0
 20 15  1  0  0  0
 33 28  1  0  0  0
 40 35  1  0  0  0
 79 74  1  0  0  0
 72 67  1  0  0  0
 64 58  1  0  0  0
 21 25  1  0  0  0
 21 26  1  0  0  0
 13 14  1  0  0  0
  8  9  1  0  0  0
  3  4  1  0  0  0
 44 45  1  0  0  0
 49 50  1  0  0  0
 62 65  1  0  0  0
 53 55  1  0  0  0
 53 56  1  0  0  0
M  END
> <minimizedAffinity>
-9.67419

> <CNNscore>
0.1345574558

> <CNNaffinity>
7.8041548729

> <CNN_VS>
1.0501072407

> <CNNaffinity_variance>
1.8450654745

$$$$
[H]Oc1c([H])c([H])c(C([H])([H])[C@@]([H])(C(=O)N([H])[H])N([H])C(=O)[C@@]([H])(N([H])C(=O)[C@@]([H])(N([H])C(=O)[C@@]([H])(N([H])C(=O)[C@@]([H])(N([H])C(=O)c2c([H])c([H])c(S(=O)(=O)N([H])[H])c([H])c2[H])C([H])([H])c2c([H])c([H])c([H])c([H])c2[H])C([H])([H])c2c([H])c([H])c([H])c([H])c2[H])C([H])([H])c2c([H])c([H])c([H])c([H])c2[H])C([H])([H])c2c([H])c([H])c([H])c([H])c2[H])c([H])c1[H]


 79 84  0  0  0  0  0  0  0  0999 V2000
  -21.6337   15.4728  -16.7313 C   0  0  0  0  0  0  0  0  0  0  0  0
  -22.0874   15.1131  -17.8463 O   0  0  0  0  0  0  0  0  0  0  0  0
  -20.6355   14.7167  -16.1136 N   0  0  0  0  0  0  0  0  0  0  0  0
  -20.2619   15.1269  -15.1681 H   0  0  0  0  0  0  0  0  0  0  0  0
  -22.1562   16.6632  -16.0762 C   0  0  0  0  0  0  0  0  0  0  0  0
  -22.8187   18.7709  -17.1482 C   0  0  0  0  0  0  0  0  0  0  0  0
  -21.6440   19.2304  -16.9159 O   0  0  0  0  0  0  0  0  0  0  0  0
  -23.1325   17.4454  -16.7386 N   0  0  0  0  0  0  0  0  0  0  0  0
  -24.0879   17.0509  -16.9286 H   0  0  0  0  0  0  0  0  0  0  0  0
  -23.7904   19.6553  -17.8360 C   0  0  0  0  0  0  0  0  0  0  0  0
  -23.1023   21.1161  -19.6999 C   0  0  0  0  0  0  0  0  0  0  0  0
  -23.2846   22.1229  -18.9813 O   0  0  0  0  0  0  0  0  0  0  0  0
  -23.3154   19.8174  -19.1855 N   0  0  0  0  0  0  0  0  0  0  0  0
  -23.1573   18.9243  -19.7318 H   0  0  0  0  0  0  0  0  0  0  0  0
  -21.6980   21.7486  -23.7198 C   0  0  0  0  0  0  0  0  0  0  0  0
  -21.0046   22.2022  -22.6019 C   0  0  0  0  0  0  0  0  0  0  0  0
  -21.4654   22.0111  -21.3251 C   0  0  0  0  0  0  0  0  0  0  0  0
  -22.6699   21.3428  -21.0871 C   0  0  0  0  0  0  0  0  0  0  0  0
  -23.3687   20.8922  -22.1708 C   0  0  0  0  0  0  0  0  0  0  0  0
  -22.9030   21.0863  -23.4567 C   0  0  0  0  0  0  0  0  0  0  0  0
  -22.0770   20.9095  -26.3729 N   0  0  0  0  0  0  0  0  0  0  0  0
  -21.1099   21.9055  -25.3515 S   0  0  0  0  0  0  0  0  0  0  0  0
  -21.2252   23.3125  -25.8566 O   0  0  0  0  0  0  0  0  0  0  0  0
  -19.6798   21.4099  -25.3875 O   0  0  0  0  0  0  0  0  0  0  0  0
  -22.9739   21.4308  -26.6012 H   0  0  0  0  0  0  0  0  0  0  0  0
  -22.3932   20.0897  -25.8172 H   0  0  0  0  0  0  0  0  0  0  0  0
  -25.1698   19.1567  -17.6990 C   0  0  0  0  0  0  0  0  0  0  0  0
  -26.1223   20.2911  -17.4296 C   0  0  0  0  0  0  0  0  0  0  0  0
  -26.4038   20.6662  -16.1276 C   0  0  0  0  0  0  0  0  0  0  0  0
  -27.2640   21.7090  -15.8546 C   0  0  0  0  0  0  0  0  0  0  0  0
  -27.8767   22.4136  -16.8763 C   0  0  0  0  0  0  0  0  0  0  0  0
  -27.5876   22.0296  -18.1563 C   0  0  0  0  0  0  0  0  0  0  0  0
  -26.7280   20.9887  -18.4539 C   0  0  0  0  0  0  0  0  0  0  0  0
  -22.9142   16.1559  -14.7698 C   0  0  0  0  0  0  0  0  0  0  0  0
  -24.3441   16.3706  -14.9821 C   0  0  0  0  0  0  0  0  0  0  0  0
  -25.0137   15.4784  -15.8226 C   0  0  0  0  0  0  0  0  0  0  0  0
  -26.3715   15.6022  -16.0359 C   0  0  0  0  0  0  0  0  0  0  0  0
  -27.1209   16.6117  -15.4300 C   0  0  0  0  0  0  0  0  0  0  0  0
  -26.4253   17.4812  -14.5988 C   0  0  0  0  0  0  0  0  0  0  0  0
  -25.0740   17.3591  -14.3845 C   0  0  0  0  0  0  0  0  0  0  0  0
  -19.9837   13.4983  -16.4609 C   0  0  0  0  0  0  0  0  0  0  0  0
  -19.1102   13.7146  -17.6299 C   0  0  0  0  0  0  0  0  0  0  0  0
  -17.8417   13.6125  -17.3763 O   0  0  0  0  0  0  0  0  0  0  0  0
  -19.4782   14.0130  -18.9678 N   0  0  0  0  0  0  0  0  0  0  0  0
  -20.4685   14.0994  -19.2188 H   0  0  0  0  0  0  0  0  0  0  0  0
  -18.4562   14.1815  -19.9662 C   0  0  0  0  0  0  0  0  0  0  0  0
  -18.2839   15.5177  -20.5417 C   0  0  0  0  0  0  0  0  0  0  0  0
  -19.1950   16.4150  -20.5247 O   0  0  0  0  0  0  0  0  0  0  0  0
  -17.0568   15.8964  -21.1760 N   0  0  0  0  0  0  0  0  0  0  0  0
  -16.2963   15.1366  -21.1636 H   0  0  0  0  0  0  0  0  0  0  0  0
  -16.7505   17.1258  -21.8260 C   0  0  0  0  0  0  0  0  0  0  0  0
  -17.1953   18.3015  -21.0757 C   0  0  0  0  0  0  0  0  0  0  0  0
  -16.7967   18.4955  -19.7391 N   0  0  0  0  0  0  0  0  0  0  0  0
  -17.9635   19.1976  -21.5797 O   0  0  0  0  0  0  0  0  0  0  0  0
  -17.3345   17.9609  -18.9890 H   0  0  0  0  0  0  0  0  0  0  0  0
  -16.0138   19.1275  -19.4182 H   0  0  0  0  0  0  0  0  0  0  0  0
  -17.2689   17.1655  -23.2347 C   0  0  0  0  0  0  0  0  0  0  0  0
  -17.1544   15.9017  -23.9909 C   0  0  0  0  0  0  0  0  0  0  0  0
  -18.3191   15.1807  -24.2823 C   0  0  0  0  0  0  0  0  0  0  0  0
  -18.2944   14.0027  -24.9849 C   0  0  0  0  0  0  0  0  0  0  0  0
  -17.1071   13.4728  -25.4393 C   0  0  0  0  0  0  0  0  0  0  0  0
  -17.0851   12.2750  -26.1502 O   0  0  0  0  0  0  0  0  0  0  0  0
  -15.9577   14.1636  -25.1662 C   0  0  0  0  0  0  0  0  0  0  0  0
  -15.9583   15.3686  -24.4492 C   0  0  0  0  0  0  0  0  0  0  0  0
  -17.1725   12.3756  -27.1750 H   0  0  0  0  0  0  0  0  0  0  0  0
  -18.6117   13.1237  -21.0708 C   0  0  0  0  0  0  0  0  0  0  0  0
  -17.5196   12.1712  -21.0783 C   0  0  0  0  0  0  0  0  0  0  0  0
  -17.3172   11.2114  -20.1093 C   0  0  0  0  0  0  0  0  0  0  0  0
  -16.2961   10.2930  -20.1289 C   0  0  0  0  0  0  0  0  0  0  0  0
  -15.3893   10.3046  -21.1871 C   0  0  0  0  0  0  0  0  0  0  0  0
  -15.5765   11.2562  -22.1638 C   0  0  0  0  0  0  0  0  0  0  0  0
  -16.5981   12.1709  -22.1355 C   0  0  0  0  0  0  0  0  0  0  0  0
  -20.8302   12.2712  -16.5607 C   0  0  0  0  0  0  0  0  0  0  0  0
  -20.1056   11.0004  -16.2641 C   0  0  0  0  0  0  0  0  0  0  0  0
  -19.4758   10.3662  -17.3427 C   0  0  0  0  0  0  0  0  0  0  0  0
  -18.8083    9.1738  -17.2009 C   0  0  0  0  0  0  0  0  0  0  0  0
  -18.7572    8.5805  -15.9466 C   0  0  0  0  0  0  0  0  0  0  0  0
  -19.3621    9.1764  -14.8786 C   0  0  0  0  0  0  0  0  0  0  0  0
  -20.0492   10.4078  -15.0356 C   0  0  0  0  0  0  0  0  0  0  0  0
 21 22  1  0  0  0
 22 23  2  0  0  0
 22 24  2  0  0  0
 22 15  1  0  0  0
 15 16  2  0  0  0
 16 17  1  0  0  0
 17 18  2  0  0  0
 18 19  1  0  0  0
 19 20  2  0  0  0
 18 11  1  0  0  0
 11 12  2  0  0  0
 11 13  1  0  0  0
 13 10  1  0  0  0
 10 27  1  0  0  0
 27 28  1  0  0  0
 28 29  2  0  0  0
 29 30  1  0  0  0
 30 31  2  0  0  0
 31 32  1  0  0  0
 32 33  2  0  0  0
 10  6  1  0  0  0
  6  7  2  0  0  0
  6  8  1  0  0  0
  8  5  1  0  0  0
  5 34  1  0  0  0
 34 35  1  0  0  0
 35 36  2  0  0  0
 36 37  1  0  0  0
 37 38  2  0  0  0
 38 39  1  0  0  0
 39 40  2  0  0  0
  5  1  1  0  0  0
  1  2  2  0  0  0
  1  3  1  0  0  0
  3 41  1  0  0  0
 41 73  1  0  0  0
 73 74  1  0  0  0
 74 75  2  0  0  0
 75 76  1  0  0  0
 76 77  2  0  0  0
 77 78  1  0  0  0
 78 79  2  0  0  0
 41 42  1  0  0  0
 42 43  2  0  0  0
 42 44  1  0  0  0
 44 46  1  0  0  0
 46 66  1  0  0  0
 66 67  1  0  0  0
 67 68  2  0  0  0
 68 69  1  0  0  0
 69 70  2  0  0  0
 70 71  1  0  0  0
 71 72  2  0  0  0
 46 47  1  0  0  0
 47 48  2  0  0  0
 47 49  1  0  0  0
 49 51  1  0  0  0
 51 57  1  0  0  0
 57 58  1  0  0  0
 58 59  2  0  0  0
 59 60  1  0  0  0
 60 61  2  0  0  0
 61 62  1  0  0  0
 61 63  1  0  0  0
 63 64  2  0  0  0
 51 52  1  0  0  0
 52 53  1  0  0  0
 52 54  2  0  0  0
 20 15  1  0  0  0
 33 28  1  0  0  0
 40 35  1  0  0  0
 79 74  1  0  0  0
 72 67  1  0  0  0
 64 58  1  0  0  0
 21 25  1  0  0  0
 21 26  1  0  0  0
 13 14  1  0  0  0
  8  9  1  0  0  0
  3  4  1  0  0  0
 44 45  1  0  0  0
 49 50  1  0  0  0
 62 65  1  0  0  0
 53 55  1  0  0  0
 53 56  1  0  0  0
M  END
> <minimizedAffinity>
-8.66607

> <CNNscore>
0.1262996346

> <CNNaffinity>
7.8233566284

> <CNN_VS>
0.9880870581

> <CNNaffinity_variance>
0.6093479395

$$$$
[H]Oc1c([H])c([H])c(C([H])([H])[C@@]([H])(C(=O)N([H])[H])N([H])C(=O)[C@@]([H])(N([H])C(=O)[C@@]([H])(N([H])C(=O)[C@@]([H])(N([H])C(=O)[C@@]([H])(N([H])C(=O)c2c([H])c([H])c(S(=O)(=O)N([H])[H])c([H])c2[H])C([H])([H])c2c([H])c([H])c([H])c([H])c2[H])C([H])([H])c2c([H])c([H])c([H])c([H])c2[H])C([H])([H])c2c([H])c([H])c([H])c([H])c2[H])C([H])([H])c2c([H])c([H])c([H])c([H])c2[H])c([H])c1[H]


 79 84  0  0  0  0  0  0  0  0999 V2000
  -19.0852   16.5412  -17.4448 C   0  0  0  0  0  0  0  0  0  0  0  0
  -17.9661   17.0468  -17.7100 O   0  0  0  0  0  0  0  0  0  0  0  0
  -19.4650   15.3431  -18.0529 N   0  0  0  0  0  0  0  0  0  0  0  0
  -20.4345   14.9464  -17.7292 H   0  0  0  0  0  0  0  0  0  0  0  0
  -19.9908   17.2080  -16.5204 C   0  0  0  0  0  0  0  0  0  0  0  0
  -22.0849   16.5019  -15.4497 C   0  0  0  0  0  0  0  0  0  0  0  0
  -22.7284   17.2471  -16.2716 O   0  0  0  0  0  0  0  0  0  0  0  0
  -20.6667   16.4421  -15.5403 N   0  0  0  0  0  0  0  0  0  0  0  0
  -20.1250   15.8301  -14.8796 H   0  0  0  0  0  0  0  0  0  0  0  0
  -22.8629   15.7390  -14.4435 C   0  0  0  0  0  0  0  0  0  0  0  0
  -21.9390   13.6920  -15.4622 C   0  0  0  0  0  0  0  0  0  0  0  0
  -22.2119   14.1322  -16.6002 O   0  0  0  0  0  0  0  0  0  0  0  0
  -22.2175   14.4590  -14.3087 N   0  0  0  0  0  0  0  0  0  0  0  0
  -21.9909   14.1559  -13.3199 H   0  0  0  0  0  0  0  0  0  0  0  0
  -20.2780    9.7242  -15.2905 C   0  0  0  0  0  0  0  0  0  0  0  0
  -21.6197    9.9886  -15.0330 C   0  0  0  0  0  0  0  0  0  0  0  0
  -22.1388   11.2566  -15.0741 C   0  0  0  0  0  0  0  0  0  0  0  0
  -21.3310   12.3555  -15.3804 C   0  0  0  0  0  0  0  0  0  0  0  0
  -20.0096   12.1190  -15.6331 C   0  0  0  0  0  0  0  0  0  0  0  0
  -19.4882   10.8404  -15.5907 C   0  0  0  0  0  0  0  0  0  0  0  0
  -18.0741    8.1967  -16.1250 N   0  0  0  0  0  0  0  0  0  0  0  0
  -19.5972    8.1216  -15.3217 S   0  0  0  0  0  0  0  0  0  0  0  0
  -19.3515    7.5893  -13.9417 O   0  0  0  0  0  0  0  0  0  0  0  0
  -20.5296    7.2279  -16.1119 O   0  0  0  0  0  0  0  0  0  0  0  0
  -17.3444    8.5389  -15.4330 H   0  0  0  0  0  0  0  0  0  0  0  0
  -18.1230    8.9519  -16.8378 H   0  0  0  0  0  0  0  0  0  0  0  0
  -23.0345   16.5035  -13.1961 C   0  0  0  0  0  0  0  0  0  0  0  0
  -24.2491   17.3894  -13.2766 C   0  0  0  0  0  0  0  0  0  0  0  0
  -25.4929   16.8396  -13.5329 C   0  0  0  0  0  0  0  0  0  0  0  0
  -26.6224   17.6279  -13.6006 C   0  0  0  0  0  0  0  0  0  0  0  0
  -26.5475   18.9977  -13.4164 C   0  0  0  0  0  0  0  0  0  0  0  0
  -25.3111   19.5241  -13.1643 C   0  0  0  0  0  0  0  0  0  0  0  0
  -24.1657   18.7536  -13.0908 C   0  0  0  0  0  0  0  0  0  0  0  0
  -19.0932   18.2020  -15.6572 C   0  0  0  0  0  0  0  0  0  0  0  0
  -19.9642   19.2724  -15.1760 C   0  0  0  0  0  0  0  0  0  0  0  0
  -20.6086   20.0603  -16.1323 C   0  0  0  0  0  0  0  0  0  0  0  0
  -21.4737   21.0635  -15.7455 C   0  0  0  0  0  0  0  0  0  0  0  0
  -21.7353   21.3295  -14.4007 C   0  0  0  0  0  0  0  0  0  0  0  0
  -21.0798   20.5268  -13.4750 C   0  0  0  0  0  0  0  0  0  0  0  0
  -20.2190   19.5273  -13.8580 C   0  0  0  0  0  0  0  0  0  0  0  0
  -18.8446   14.5072  -19.0256 C   0  0  0  0  0  0  0  0  0  0  0  0
  -18.7347   15.2290  -20.3074 C   0  0  0  0  0  0  0  0  0  0  0  0
  -19.7995   15.1717  -21.0469 O   0  0  0  0  0  0  0  0  0  0  0  0
  -17.6330   15.9627  -20.8196 N   0  0  0  0  0  0  0  0  0  0  0  0
  -16.7707   16.0408  -20.2704 H   0  0  0  0  0  0  0  0  0  0  0  0
  -17.7390   16.6020  -22.1040 C   0  0  0  0  0  0  0  0  0  0  0  0
  -18.7600   17.6406  -22.2624 C   0  0  0  0  0  0  0  0  0  0  0  0
  -19.6001   17.6615  -23.2265 O   0  0  0  0  0  0  0  0  0  0  0  0
  -18.8689   18.7188  -21.3257 N   0  0  0  0  0  0  0  0  0  0  0  0
  -18.1676   18.6740  -20.5121 H   0  0  0  0  0  0  0  0  0  0  0  0
  -19.7624   19.8266  -21.3663 C   0  0  0  0  0  0  0  0  0  0  0  0
  -19.1665   21.0273  -21.9548 C   0  0  0  0  0  0  0  0  0  0  0  0
  -18.3189   21.8565  -21.1950 N   0  0  0  0  0  0  0  0  0  0  0  0
  -19.3848   21.3889  -23.1667 O   0  0  0  0  0  0  0  0  0  0  0  0
  -18.7844   22.5546  -20.5366 H   0  0  0  0  0  0  0  0  0  0  0  0
  -17.2633   21.8469  -21.2256 H   0  0  0  0  0  0  0  0  0  0  0  0
  -20.3498   20.1296  -20.0179 C   0  0  0  0  0  0  0  0  0  0  0  0
  -21.6468   19.4842  -19.7291 C   0  0  0  0  0  0  0  0  0  0  0  0
  -22.6641   20.2454  -19.1400 C   0  0  0  0  0  0  0  0  0  0  0  0
  -23.8966   19.7190  -18.8475 C   0  0  0  0  0  0  0  0  0  0  0  0
  -24.1891   18.4020  -19.1249 C   0  0  0  0  0  0  0  0  0  0  0  0
  -25.4408   17.8696  -18.8243 O   0  0  0  0  0  0  0  0  0  0  0  0
  -23.2086   17.6419  -19.7026 C   0  0  0  0  0  0  0  0  0  0  0  0
  -21.9415   18.1578  -20.0095 C   0  0  0  0  0  0  0  0  0  0  0  0
  -26.1409   17.9500  -19.5802 H   0  0  0  0  0  0  0  0  0  0  0  0
  -17.8520   15.5467  -23.2162 C   0  0  0  0  0  0  0  0  0  0  0  0
  -16.5931   15.3319  -23.9009 C   0  0  0  0  0  0  0  0  0  0  0  0
  -16.2453   15.9262  -25.0955 C   0  0  0  0  0  0  0  0  0  0  0  0
  -15.0425   15.7414  -25.7323 C   0  0  0  0  0  0  0  0  0  0  0  0
  -14.0878   14.9054  -25.1564 C   0  0  0  0  0  0  0  0  0  0  0  0
  -14.4181   14.3039  -23.9632 C   0  0  0  0  0  0  0  0  0  0  0  0
  -15.6225   14.4925  -23.3348 C   0  0  0  0  0  0  0  0  0  0  0  0
  -19.3623   13.1123  -19.1626 C   0  0  0  0  0  0  0  0  0  0  0  0
  -18.3255   12.1076  -19.5414 C   0  0  0  0  0  0  0  0  0  0  0  0
  -17.8075   12.1937  -20.8400 C   0  0  0  0  0  0  0  0  0  0  0  0
  -16.8748   11.3040  -21.3152 C   0  0  0  0  0  0  0  0  0  0  0  0
  -16.4323   10.2878  -20.4788 C   0  0  0  0  0  0  0  0  0  0  0  0
  -16.9202   10.1804  -19.2091 C   0  0  0  0  0  0  0  0  0  0  0  0
  -17.8835   11.1043  -18.7279 C   0  0  0  0  0  0  0  0  0  0  0  0
 21 22  1  0  0  0
 22 23  2  0  0  0
 22 24  2  0  0  0
 22 15  1  0  0  0
 15 16  2  0  0  0
 16 17  1  0  0  0
 17 18  2  0  0  0
 18 19  1  0  0  0
 19 20  2  0  0  0
 18 11  1  0  0  0
 11 12  2  0  0  0
 11 13  1  0  0  0
 13 10  1  0  0  0
 10 27  1  0  0  0
 27 28  1  0  0  0
 28 29  2  0  0  0
 29 30  1  0  0  0
 30 31  2  0  0  0
 31 32  1  0  0  0
 32 33  2  0  0  0
 10  6  1  0  0  0
  6  7  2  0  0  0
  6  8  1  0  0  0
  8  5  1  0  0  0
  5 34  1  0  0  0
 34 35  1  0  0  0
 35 36  2  0  0  0
 36 37  1  0  0  0
 37 38  2  0  0  0
 38 39  1  0  0  0
 39 40  2  0  0  0
  5  1  1  0  0  0
  1  2  2  0  0  0
  1  3  1  0  0  0
  3 41  1  0  0  0
 41 73  1  0  0  0
 73 74  1  0  0  0
 74 75  2  0  0  0
 75 76  1  0  0  0
 76 77  2  0  0  0
 77 78  1  0  0  0
 78 79  2  0  0  0
 41 42  1  0  0  0
 42 43  2  0  0  0
 42 44  1  0  0  0
 44 46  1  0  0  0
 46 66  1  0  0  0
 66 67  1  0  0  0
 67 68  2  0  0  0
 68 69  1  0  0  0
 69 70  2  0  0  0
 70 71  1  0  0  0
 71 72  2  0  0  0
 46 47  1  0  0  0
 47 48  2  0  0  0
 47 49  1  0  0  0
 49 51  1  0  0  0
 51 57  1  0  0  0
 57 58  1  0  0  0
 58 59  2  0  0  0
 59 60  1  0  0  0
 60 61  2  0  0  0
 61 62  1  0  0  0
 61 63  1  0  0  0
 63 64  2  0  0  0
 51 52  1  0  0  0
 52 53  1  0  0  0
 52 54  2  0  0  0
 20 15  1  0  0  0
 33 28  1  0  0  0
 40 35  1  0  0  0
 79 74  1  0  0  0
 72 67  1  0  0  0
 64 58  1  0  0  0
 21 25  1  0  0  0
 21 26  1  0  0  0
 13 14  1  0  0  0
  8  9  1  0  0  0
  3  4  1  0  0  0
 44 45  1  0  0  0
 49 50  1  0  0  0
 62 65  1  0  0  0
 53 55  1  0  0  0
 53 56  1  0  0  0
M  END
> <minimizedAffinity>
-8.75461

> <CNNscore>
0.1262087226

> <CNNaffinity>
7.7838530540

> <CNN_VS>
0.9823901653

> <CNNaffinity_variance>
1.5187023878

$$$$
[H]Oc1c([H])c([H])c(C([H])([H])[C@@]([H])(C(=O)N([H])[H])N([H])C(=O)[C@@]([H])(N([H])C(=O)[C@@]([H])(N([H])C(=O)[C@@]([H])(N([H])C(=O)[C@@]([H])(N([H])C(=O)c2c([H])c([H])c(S(=O)(=O)N([H])[H])c([H])c2[H])C([H])([H])c2c([H])c([H])c([H])c([H])c2[H])C([H])([H])c2c([H])c([H])c([H])c([H])c2[H])C([H])([H])c2c([H])c([H])c([H])c([H])c2[H])C([H])([H])c2c([H])c([H])c([H])c([H])c2[H])c([H])c1[H]


 79 84  0  0  0  0  0  0  0  0999 V2000
  -19.3528   14.0131  -16.9847 C   0  0  0  0  0  0  0  0  0  0  0  0
  -18.7228   13.5971  -15.9804 O   0  0  0  0  0  0  0  0  0  0  0  0
  -20.5490   14.7118  -16.8107 N   0  0  0  0  0  0  0  0  0  0  0  0
  -21.0083   15.0813  -17.7351 H   0  0  0  0  0  0  0  0  0  0  0  0
  -18.8484   13.7550  -18.3256 C   0  0  0  0  0  0  0  0  0  0  0  0
  -19.6654   15.2188  -20.1202 C   0  0  0  0  0  0  0  0  0  0  0  0
  -20.7695   14.5661  -20.1170 O   0  0  0  0  0  0  0  0  0  0  0  0
  -18.6409   14.8422  -19.2081 N   0  0  0  0  0  0  0  0  0  0  0  0
  -17.7333   15.3719  -19.1922 H   0  0  0  0  0  0  0  0  0  0  0  0
  -19.5190   16.3377  -21.0825 C   0  0  0  0  0  0  0  0  0  0  0  0
  -19.4772   18.1188  -19.3773 C   0  0  0  0  0  0  0  0  0  0  0  0
  -18.3699   17.7056  -18.9694 O   0  0  0  0  0  0  0  0  0  0  0  0
  -20.1219   17.4912  -20.4669 N   0  0  0  0  0  0  0  0  0  0  0  0
  -21.0468   17.8048  -20.8759 H   0  0  0  0  0  0  0  0  0  0  0  0
  -21.1379   21.5677  -17.4079 C   0  0  0  0  0  0  0  0  0  0  0  0
  -19.7862   21.4594  -17.7201 C   0  0  0  0  0  0  0  0  0  0  0  0
  -19.2612   20.3515  -18.3332 C   0  0  0  0  0  0  0  0  0  0  0  0
  -20.0727   19.2662  -18.6762 C   0  0  0  0  0  0  0  0  0  0  0  0
  -21.4024   19.3501  -18.3755 C   0  0  0  0  0  0  0  0  0  0  0  0
  -21.9296   20.4672  -17.7570 C   0  0  0  0  0  0  0  0  0  0  0  0
  -22.7882   23.7842  -17.9084 N   0  0  0  0  0  0  0  0  0  0  0  0
  -21.8553   22.9870  -16.6981 S   0  0  0  0  0  0  0  0  0  0  0  0
  -22.7820   22.6433  -15.5706 O   0  0  0  0  0  0  0  0  0  0  0  0
  -20.7389   23.9059  -16.2490 O   0  0  0  0  0  0  0  0  0  0  0  0
  -23.7285   23.2959  -17.9855 H   0  0  0  0  0  0  0  0  0  0  0  0
  -22.3359   23.6125  -18.8286 H   0  0  0  0  0  0  0  0  0  0  0  0
  -18.1208   16.5014  -21.5162 C   0  0  0  0  0  0  0  0  0  0  0  0
  -17.7737   15.5002  -22.5856 C   0  0  0  0  0  0  0  0  0  0  0  0
  -16.7086   14.6350  -22.4065 C   0  0  0  0  0  0  0  0  0  0  0  0
  -16.3773   13.7015  -23.3660 C   0  0  0  0  0  0  0  0  0  0  0  0
  -17.0993   13.6016  -24.5426 C   0  0  0  0  0  0  0  0  0  0  0  0
  -18.1479   14.4641  -24.7032 C   0  0  0  0  0  0  0  0  0  0  0  0
  -18.4992   15.4068  -23.7550 C   0  0  0  0  0  0  0  0  0  0  0  0
  -17.3878   13.1452  -18.1421 C   0  0  0  0  0  0  0  0  0  0  0  0
  -17.2285   12.0840  -19.1342 C   0  0  0  0  0  0  0  0  0  0  0  0
  -18.0463   12.1291  -20.2655 C   0  0  0  0  0  0  0  0  0  0  0  0
  -17.9210   11.1788  -21.2584 C   0  0  0  0  0  0  0  0  0  0  0  0
  -16.9857   10.1464  -21.1729 C   0  0  0  0  0  0  0  0  0  0  0  0
  -16.1869   10.1312  -20.0360 C   0  0  0  0  0  0  0  0  0  0  0  0
  -16.3095   11.0767  -19.0471 C   0  0  0  0  0  0  0  0  0  0  0  0
  -21.3156   15.0555  -15.6600 C   0  0  0  0  0  0  0  0  0  0  0  0
  -21.9896   13.8543  -15.1317 C   0  0  0  0  0  0  0  0  0  0  0  0
  -23.2856   13.9059  -15.1735 O   0  0  0  0  0  0  0  0  0  0  0  0
  -21.4083   12.6754  -14.5964 N   0  0  0  0  0  0  0  0  0  0  0  0
  -20.3883   12.5851  -14.5464 H   0  0  0  0  0  0  0  0  0  0  0  0
  -22.2573   11.6086  -14.1371 C   0  0  0  0  0  0  0  0  0  0  0  0
  -21.8802   10.9283  -12.8956 C   0  0  0  0  0  0  0  0  0  0  0  0
  -22.5247    9.9347  -12.4128 O   0  0  0  0  0  0  0  0  0  0  0  0
  -20.7448   11.3558  -12.1342 N   0  0  0  0  0  0  0  0  0  0  0  0
  -20.2043   12.1792  -12.5652 H   0  0  0  0  0  0  0  0  0  0  0  0
  -20.2807   10.8409  -10.8905 C   0  0  0  0  0  0  0  0  0  0  0  0
  -20.9725   11.4140   -9.7345 C   0  0  0  0  0  0  0  0  0  0  0  0
  -20.3923   12.4634   -8.9961 N   0  0  0  0  0  0  0  0  0  0  0  0
  -22.1174   10.9960   -9.3325 O   0  0  0  0  0  0  0  0  0  0  0  0
  -19.6541   12.1989   -8.2732 H   0  0  0  0  0  0  0  0  0  0  0  0
  -20.6295   13.4876   -9.0960 H   0  0  0  0  0  0  0  0  0  0  0  0
  -18.7927   10.9765  -10.7417 C   0  0  0  0  0  0  0  0  0  0  0  0
  -18.0763    9.7427  -10.3586 C   0  0  0  0  0  0  0  0  0  0  0  0
  -17.0940    9.8130   -9.3628 C   0  0  0  0  0  0  0  0  0  0  0  0
  -16.3908    8.7103   -8.9489 C   0  0  0  0  0  0  0  0  0  0  0  0
  -16.6246    7.4712   -9.5029 C   0  0  0  0  0  0  0  0  0  0  0  0
  -15.9069    6.3537   -9.0823 O   0  0  0  0  0  0  0  0  0  0  0  0
  -17.5822    7.3813  -10.4764 C   0  0  0  0  0  0  0  0  0  0  0  0
  -18.3127    8.4944  -10.9162 C   0  0  0  0  0  0  0  0  0  0  0  0
  -16.3320    5.8339   -8.2969 H   0  0  0  0  0  0  0  0  0  0  0  0
  -22.4975   10.5950  -15.2676 C   0  0  0  0  0  0  0  0  0  0  0  0
  -21.2624   10.0259  -15.7681 C   0  0  0  0  0  0  0  0  0  0  0  0
  -20.4313   10.6464  -16.6767 C   0  0  0  0  0  0  0  0  0  0  0  0
  -19.2485   10.1177  -17.1326 C   0  0  0  0  0  0  0  0  0  0  0  0
  -18.8319    8.8738  -16.6622 C   0  0  0  0  0  0  0  0  0  0  0  0
  -19.6495    8.2401  -15.7542 C   0  0  0  0  0  0  0  0  0  0  0  0
  -20.8301    8.7746  -15.3054 C   0  0  0  0  0  0  0  0  0  0  0  0
  -22.2067   16.2506  -15.7606 C   0  0  0  0  0  0  0  0  0  0  0  0
  -21.6087   17.5085  -15.2240 C   0  0  0  0  0  0  0  0  0  0  0  0
  -20.2210   17.6521  -15.3507 C   0  0  0  0  0  0  0  0  0  0  0  0
  -19.5524   18.7492  -14.8641 C   0  0  0  0  0  0  0  0  0  0  0  0
  -20.2782   19.7470  -14.2272 C   0  0  0  0  0  0  0  0  0  0  0  0
  -21.6308   19.6328  -14.0898 C   0  0  0  0  0  0  0  0  0  0  0  0
  -22.3120   18.4956  -14.5957 C   0  0  0  0  0  0  0  0  0  0  0  0
 21 22  1  0  0  0
 22 23  2  0  0  0
 22 24  2  0  0  0
 22 15  1  0  0  0
 15 16  2  0  0  0
 16 17  1  0  0  0
 17 18  2  0  0  0
 18 19  1  0  0  0
 19 20  2  0  0  0
 18 11  1  0  0  0
 11 12  2  0  0  0
 11 13  1  0  0  0
 13 10  1  0  0  0
 10 27  1  0  0  0
 27 28  1  0  0  0
 28 29  2  0  0  0
 29 30  1  0  0  0
 30 31  2  0  0  0
 31 32  1  0  0  0
 32 33  2  0  0  0
 10  6  1  0  0  0
  6  7  2  0  0  0
  6  8  1  0  0  0
  8  5  1  0  0  0
  5 34  1  0  0  0
 34 35  1  0  0  0
 35 36  2  0  0  0
 36 37  1  0  0  0
 37 38  2  0  0  0
 38 39  1  0  0  0
 39 40  2  0  0  0
  5  1  1  0  0  0
  1  2  2  0  0  0
  1  3  1  0  0  0
  3 41  1  0  0  0
 41 73  1  0  0  0
 73 74  1  0  0  0
 74 75  2  0  0  0
 75 76  1  0  0  0
 76 77  2  0  0  0
 77 78  1  0  0  0
 78 79  2  0  0  0
 41 42  1  0  0  0
 42 43  2  0  0  0
 42 44  1  0  0  0
 44 46  1  0  0  0
 46 66  1  0  0  0
 66 67  1  0  0  0
 67 68  2  0  0  0
 68 69  1  0  0  0
 69 70  2  0  0  0
 70 71  1  0  0  0
 71 72  2  0  0  0
 46 47  1  0  0  0
 47 48  2  0  0  0
 47 49  1  0  0  0
 49 51  1  0  0  0
 51 57  1  0  0  0
 57 58  1  0  0  0
 58 59  2  0  0  0
 59 60  1  0  0  0
 60 61  2  0  0  0
 61 62  1  0  0  0
 61 63  1  0  0  0
 63 64  2  0  0  0
 51 52  1  0  0  0
 52 53  1  0  0  0
 52 54  2  0  0  0
 20 15  1  0  0  0
 33 28  1  0  0  0
 40 35  1  0  0  0
 79 74  1  0  0  0
 72 67  1  0  0  0
 64 58  1  0  0  0
 21 25  1  0  0  0
 21 26  1  0  0  0
 13 14  1  0  0  0
  8  9  1  0  0  0
  3  4  1  0  0  0
 44 45  1  0  0  0
 49 50  1  0  0  0
 62 65  1  0  0  0
 53 55  1  0  0  0
 53 56  1  0  0  0
M  END
> <minimizedAffinity>
-9.00842

> <CNNscore>
0.1224475801

> <CNNaffinity>
7.5354704857

> <CNN_VS>
0.9227001071

> <CNNaffinity_variance>
1.1922676563

$$$$
[H]Oc1c([H])c([H])c(C([H])([H])[C@@]([H])(C(=O)N([H])[H])N([H])C(=O)[C@@]([H])(N([H])C(=O)[C@@]([H])(N([H])C(=O)[C@@]([H])(N([H])C(=O)[C@@]([H])(N([H])C(=O)c2c([H])c([H])c(S(=O)(=O)N([H])[H])c([H])c2[H])C([H])([H])c2c([H])c([H])c([H])c([H])c2[H])C([H])([H])c2c([H])c([H])c([H])c([H])c2[H])C([H])([H])c2c([H])c([H])c([H])c([H])c2[H])C([H])([H])c2c([H])c([H])c([H])c([H])c2[H])c([H])c1[H]


 79 84  0  0  0  0  0  0  0  0999 V2000
  -18.0368   15.8148  -19.9823 C   0  0  0  0  0  0  0  0  0  0  0  0
  -17.4968   16.7076  -19.2823 O   0  0  0  0  0  0  0  0  0  0  0  0
  -18.4177   16.1003  -21.2949 N   0  0  0  0  0  0  0  0  0  0  0  0
  -18.8358   15.2528  -21.8505 H   0  0  0  0  0  0  0  0  0  0  0  0
  -18.2803   14.4925  -19.4244 C   0  0  0  0  0  0  0  0  0  0  0  0
  -19.2617   14.1781  -17.1954 C   0  0  0  0  0  0  0  0  0  0  0  0
  -18.0875   14.2822  -16.6901 O   0  0  0  0  0  0  0  0  0  0  0  0
  -19.4161   14.2854  -18.6053 N   0  0  0  0  0  0  0  0  0  0  0  0
  -20.3725   14.2105  -19.0346 H   0  0  0  0  0  0  0  0  0  0  0  0
  -20.4005   13.9497  -16.2731 C   0  0  0  0  0  0  0  0  0  0  0  0
  -22.0428   15.3983  -15.1391 C   0  0  0  0  0  0  0  0  0  0  0  0
  -22.2184   14.5202  -14.2665 O   0  0  0  0  0  0  0  0  0  0  0  0
  -21.1154   15.1965  -16.1858 N   0  0  0  0  0  0  0  0  0  0  0  0
  -20.9023   15.9070  -16.9414 H   0  0  0  0  0  0  0  0  0  0  0  0
  -24.2930   19.0430  -14.7099 C   0  0  0  0  0  0  0  0  0  0  0  0
  -23.8891   18.2770  -13.6207 C   0  0  0  0  0  0  0  0  0  0  0  0
  -23.1863   17.1091  -13.7652 C   0  0  0  0  0  0  0  0  0  0  0  0
  -22.8399   16.6294  -15.0317 C   0  0  0  0  0  0  0  0  0  0  0  0
  -23.2297   17.3642  -16.1152 C   0  0  0  0  0  0  0  0  0  0  0  0
  -23.9385   18.5406  -15.9676 C   0  0  0  0  0  0  0  0  0  0  0  0
  -26.7500   20.2570  -14.0964 N   0  0  0  0  0  0  0  0  0  0  0  0
  -25.1209   20.5684  -14.5652 S   0  0  0  0  0  0  0  0  0  0  0  0
  -24.5090   21.4411  -13.5106 O   0  0  0  0  0  0  0  0  0  0  0  0
  -25.1163   21.2386  -15.9228 O   0  0  0  0  0  0  0  0  0  0  0  0
  -26.7740   20.0964  -13.0467 H   0  0  0  0  0  0  0  0  0  0  0  0
  -27.0319   19.3416  -14.5006 H   0  0  0  0  0  0  0  0  0  0  0  0
  -21.2003   12.7805  -16.6770 C   0  0  0  0  0  0  0  0  0  0  0  0
  -20.5012   11.5010  -16.3018 C   0  0  0  0  0  0  0  0  0  0  0  0
  -19.8199   10.7752  -17.2629 C   0  0  0  0  0  0  0  0  0  0  0  0
  -19.1622    9.6062  -16.9425 C   0  0  0  0  0  0  0  0  0  0  0  0
  -19.1648    9.1190  -15.6470 C   0  0  0  0  0  0  0  0  0  0  0  0
  -19.8429    9.8484  -14.7103 C   0  0  0  0  0  0  0  0  0  0  0  0
  -20.5081   11.0232  -15.0079 C   0  0  0  0  0  0  0  0  0  0  0  0
  -18.5394   13.5268  -20.6650 C   0  0  0  0  0  0  0  0  0  0  0  0
  -17.6752   12.3599  -20.4995 C   0  0  0  0  0  0  0  0  0  0  0  0
  -17.1519   12.1186  -19.2273 C   0  0  0  0  0  0  0  0  0  0  0  0
  -16.3593   11.0132  -18.9943 C   0  0  0  0  0  0  0  0  0  0  0  0
  -16.0508   10.1041  -20.0073 C   0  0  0  0  0  0  0  0  0  0  0  0
  -16.5883   10.3721  -21.2604 C   0  0  0  0  0  0  0  0  0  0  0  0
  -17.3782   11.4713  -21.4941 C   0  0  0  0  0  0  0  0  0  0  0  0
  -18.3753   17.2862  -22.0834 C   0  0  0  0  0  0  0  0  0  0  0  0
  -19.6623   18.0000  -21.9815 C   0  0  0  0  0  0  0  0  0  0  0  0
  -19.5639   19.2924  -22.0446 O   0  0  0  0  0  0  0  0  0  0  0  0
  -20.9655   17.4596  -21.8274 N   0  0  0  0  0  0  0  0  0  0  0  0
  -21.0955   16.4438  -21.7770 H   0  0  0  0  0  0  0  0  0  0  0  0
  -22.0983   18.3434  -21.7539 C   0  0  0  0  0  0  0  0  0  0  0  0
  -22.5081   18.8120  -20.4276 C   0  0  0  0  0  0  0  0  0  0  0  0
  -23.5182   18.3459  -19.7967 O   0  0  0  0  0  0  0  0  0  0  0  0
  -21.7843   19.8483  -19.7539 N   0  0  0  0  0  0  0  0  0  0  0  0
  -20.9276   20.2141  -20.2906 H   0  0  0  0  0  0  0  0  0  0  0  0
  -22.0814   20.4486  -18.4974 C   0  0  0  0  0  0  0  0  0  0  0  0
  -23.0488   21.5430  -18.5951 C   0  0  0  0  0  0  0  0  0  0  0  0
  -24.3795   21.2948  -18.9833 N   0  0  0  0  0  0  0  0  0  0  0  0
  -22.7435   22.7645  -18.3463 O   0  0  0  0  0  0  0  0  0  0  0  0
  -24.5699   21.1916  -20.0277 H   0  0  0  0  0  0  0  0  0  0  0  0
  -25.2030   21.2060  -18.3281 H   0  0  0  0  0  0  0  0  0  0  0  0
  -20.8421   20.8959  -17.7769 C   0  0  0  0  0  0  0  0  0  0  0  0
  -20.4408   20.0639  -16.6241 C   0  0  0  0  0  0  0  0  0  0  0  0
  -20.8169   20.4665  -15.3366 C   0  0  0  0  0  0  0  0  0  0  0  0
  -20.4872   19.7440  -14.2180 C   0  0  0  0  0  0  0  0  0  0  0  0
  -19.7628   18.5767  -14.3159 C   0  0  0  0  0  0  0  0  0  0  0  0
  -19.4274   17.8466  -13.1779 O   0  0  0  0  0  0  0  0  0  0  0  0
  -19.3874   18.1653  -15.5659 C   0  0  0  0  0  0  0  0  0  0  0  0
  -19.7119   18.8875  -16.7231 C   0  0  0  0  0  0  0  0  0  0  0  0
  -20.1187   17.1302  -12.9010 H   0  0  0  0  0  0  0  0  0  0  0  0
  -23.2908   17.7449  -22.5175 C   0  0  0  0  0  0  0  0  0  0  0  0
  -23.3177   18.1572  -23.9065 C   0  0  0  0  0  0  0  0  0  0  0  0
  -23.5145   17.3007  -24.9690 C   0  0  0  0  0  0  0  0  0  0  0  0
  -23.5640   17.6949  -26.2838 C   0  0  0  0  0  0  0  0  0  0  0  0
  -23.4115   19.0443  -26.5969 C   0  0  0  0  0  0  0  0  0  0  0  0
  -23.2144   19.9136  -25.5481 C   0  0  0  0  0  0  0  0  0  0  0  0
  -23.1645   19.5112  -24.2379 C   0  0  0  0  0  0  0  0  0  0  0  0
  -17.8644   17.1628  -23.4820 C   0  0  0  0  0  0  0  0  0  0  0  0
  -17.3471   15.8063  -23.8287 C   0  0  0  0  0  0  0  0  0  0  0  0
  -18.2215   14.9533  -24.5144 C   0  0  0  0  0  0  0  0  0  0  0  0
  -17.8717   13.6696  -24.8565 C   0  0  0  0  0  0  0  0  0  0  0  0
  -16.6096   13.2053  -24.5109 C   0  0  0  0  0  0  0  0  0  0  0  0
  -15.7379   14.0148  -23.8428 C   0  0  0  0  0  0  0  0  0  0  0  0
  -16.1089   15.3390  -23.4937 C   0  0  0  0  0  0  0  0  0  0  0  0
 21 22  1  0  0  0
 22 23  2  0  0  0
 22 24  2  0  0  0
 22 15  1  0  0  0
 15 16  2  0  0  0
 16 17  1  0  0  0
 17 18  2  0  0  0
 18 19  1  0  0  0
 19 20  2  0  0  0
 18 11  1  0  0  0
 11 12  2  0  0  0
 11 13  1  0  0  0
 13 10  1  0  0  0
 10 27  1  0  0  0
 27 28  1  0  0  0
 28 29  2  0  0  0
 29 30  1  0  0  0
 30 31  2  0  0  0
 31 32  1  0  0  0
 32 33  2  0  0  0
 10  6  1  0  0  0
  6  7  2  0  0  0
  6  8  1  0  0  0
  8  5  1  0  0  0
  5 34  1  0  0  0
 34 35  1  0  0  0
 35 36  2  0  0  0
 36 37  1  0  0  0
 37 38  2  0  0  0
 38 39  1  0  0  0
 39 40  2  0  0  0
  5  1  1  0  0  0
  1  2  2  0  0  0
  1  3  1  0  0  0
  3 41  1  0  0  0
 41 73  1  0  0  0
 73 74  1  0  0  0
 74 75  2  0  0  0
 75 76  1  0  0  0
 76 77  2  0  0  0
 77 78  1  0  0  0
 78 79  2  0  0  0
 41 42  1  0  0  0
 42 43  2  0  0  0
 42 44  1  0  0  0
 44 46  1  0  0  0
 46 66  1  0  0  0
 66 67  1  0  0  0
 67 68  2  0  0  0
 68 69  1  0  0  0
 69 70  2  0  0  0
 70 71  1  0  0  0
 71 72  2  0  0  0
 46 47  1  0  0  0
 47 48  2  0  0  0
 47 49  1  0  0  0
 49 51  1  0  0  0
 51 57  1  0  0  0
 57 58  1  0  0  0
 58 59  2  0  0  0
 59 60  1  0  0  0
 60 61  2  0  0  0
 61 62  1  0  0  0
 61 63  1  0  0  0
 63 64  2  0  0  0
 51 52  1  0  0  0
 52 53  1  0  0  0
 52 54  2  0  0  0
 20 15  1  0  0  0
 33 28  1  0  0  0
 40 35  1  0  0  0
 79 74  1  0  0  0
 72 67  1  0  0  0
 64 58  1  0  0  0
 21 25  1  0  0  0
 21 26  1  0  0  0
 13 14  1  0  0  0
  8  9  1  0  0  0
  3  4  1  0  0  0
 44 45  1  0  0  0
 49 50  1  0  0  0
 62 65  1  0  0  0
 53 55  1  0  0  0
 53 56  1  0  0  0
M  END
> <minimizedAffinity>
-9.18998

> <CNNscore>
0.1136369407

> <CNNaffinity>
7.7230682373

> <CNN_VS>
0.8776258230

> <CNNaffinity_variance>
1.3144155741

$$$$
[H]c1nc(N([H])c2c([H])c([H])c(N3C([H])([H])C([H])([H])C([H])(N4C([H])([H])C([H])([H])N(C([H])([H])[H])C([H])([H])C4([H])[H])C([H])([H])C3([H])[H])c([H])c2OC([H])([H])[H])nc(N([H])c2c([H])c([H])c([H])c([H])c2S(=O)(=O)C([H])(C([H])([H])[H])C([H])([H])[H])c1Cl


 44 48  0  0  0  0  0  0  0  0999 V2000
  -19.0415   11.5538  -18.1205 N   0  0  0  0  0  0  0  0  0  0  0  0
  -19.5261   10.6644  -17.7391 H   0  0  0  0  0  0  0  0  0  0  0  0
  -18.0293   11.3457  -19.0944 C   0  0  0  0  0  0  0  0  0  0  0  0
  -17.0160   10.4804  -19.0069 N   0  0  0  0  0  0  0  0  0  0  0  0
  -16.0939   10.3335  -19.9664 C   0  0  0  0  0  0  0  0  0  0  0  0
  -16.1666   11.0959  -21.1087 C   0  0  0  0  0  0  0  0  0  0  0  0
  -14.9630   10.9164  -22.3814 Cl  0  0  0  0  0  0  0  0  0  0  0  0
  -17.2274   12.0177  -21.2259 C   0  0  0  0  0  0  0  0  0  0  0  0
  -18.0958   12.0899  -20.2151 N   0  0  0  0  0  0  0  0  0  0  0  0
  -17.2797   12.7817  -22.4019 N   0  0  0  0  0  0  0  0  0  0  0  0
  -16.8904   12.2860  -23.2701 H   0  0  0  0  0  0  0  0  0  0  0  0
  -17.7506   14.0799  -22.6493 C   0  0  0  0  0  0  0  0  0  0  0  0
  -18.5572   14.7092  -21.7248 C   0  0  0  0  0  0  0  0  0  0  0  0
  -19.0370   16.0045  -21.9578 C   0  0  0  0  0  0  0  0  0  0  0  0
  -18.6958   16.6386  -23.1146 C   0  0  0  0  0  0  0  0  0  0  0  0
  -17.8902   16.0079  -24.0356 C   0  0  0  0  0  0  0  0  0  0  0  0
  -17.4069   14.7416  -23.8333 C   0  0  0  0  0  0  0  0  0  0  0  0
  -16.4035   13.9702  -24.9901 S   0  0  0  0  0  0  0  0  0  0  0  0
  -17.0923   12.7418  -25.5293 O   0  0  0  0  0  0  0  0  0  0  0  0
  -15.0556   13.5519  -24.4726 O   0  0  0  0  0  0  0  0  0  0  0  0
  -16.0770   15.0012  -26.4074 C   0  0  0  0  0  0  0  0  0  0  0  0
  -14.6605   15.4768  -26.4044 C   0  0  0  0  0  0  0  0  0  0  0  0
  -16.5522   14.4121  -27.6935 C   0  0  0  0  0  0  0  0  0  0  0  0
  -20.6667   12.7198  -16.7896 C   0  0  0  0  0  0  0  0  0  0  0  0
  -21.1894   13.8664  -16.2201 C   0  0  0  0  0  0  0  0  0  0  0  0
  -20.6013   15.0989  -16.3976 C   0  0  0  0  0  0  0  0  0  0  0  0
  -19.4668   15.1255  -17.1717 C   0  0  0  0  0  0  0  0  0  0  0  0
  -18.9122   13.9856  -17.7622 C   0  0  0  0  0  0  0  0  0  0  0  0
  -19.5028   12.7602  -17.5818 C   0  0  0  0  0  0  0  0  0  0  0  0
  -21.1495   16.2749  -15.7959 N   0  0  0  0  0  0  0  0  0  0  0  0
  -22.1895   16.1220  -14.8371 C   0  0  0  0  0  0  0  0  0  0  0  0
  -22.4838   17.3260  -13.9870 C   0  0  0  0  0  0  0  0  0  0  0  0
  -22.4990   18.6182  -14.7319 C   0  0  0  0  0  0  0  0  0  0  0  0
  -21.8514   18.5215  -16.0987 C   0  0  0  0  0  0  0  0  0  0  0  0
  -20.6824   17.5968  -16.1382 C   0  0  0  0  0  0  0  0  0  0  0  0
  -22.0057   19.7583  -14.0681 N   0  0  0  0  0  0  0  0  0  0  0  0
  -21.4216   20.7936  -14.8139 C   0  0  0  0  0  0  0  0  0  0  0  0
  -20.6298   21.7146  -13.8812 C   0  0  0  0  0  0  0  0  0  0  0  0
  -21.4466   21.9651  -12.7096 N   0  0  0  0  0  0  0  0  0  0  0  0
  -22.5745   22.8073  -12.9500 C   0  0  0  0  0  0  0  0  0  0  0  0
  -21.7041   20.7918  -11.9388 C   0  0  0  0  0  0  0  0  0  0  0  0
  -21.4001   19.5609  -12.7903 C   0  0  0  0  0  0  0  0  0  0  0  0
  -21.7699   11.2101  -15.2725 C   0  0  0  0  0  0  0  0  0  0  0  0
  -21.3096   11.5114  -16.5700 O   0  0  0  0  0  0  0  0  0  0  0  0
 43 44  1  0  0  0
 44 24  1  0  0  0
 24 25  2  0  0  0
 25 26  1  0  0  0
 26 27  2  0  0  0
 27 28  1  0  0  0
 28 29  2  0  0  0
 29  1  1  0  0  0
  1  3  1  0  0  0
  3  4  2  0  0  0
  4  5  1  0  0  0
  5  6  2  0  0  0
  6  7  1  0  0  0
  6  8  1  0  0  0
  8 10  1  0  0  0
 10 12  1  0  0  0
 12 13  2  0  0  0
 13 14  1  0  0  0
 14 15  2  0  0  0
 15 16  1  0  0  0
 16 17  2  0  0  0
 17 18  1  0  0  0
 18 19  2  0  0  0
 18 20  2  0  0  0
 18 21  1  0  0  0
 21 22  1  0  0  0
 21 23  1  0  0  0
  8  9  2  0  0  0
 26 30  1  0  0  0
 30 31  1  0  0  0
 31 32  1  0  0  0
 32 33  1  0  0  0
 33 34  1  0  0  0
 34 35  1  0  0  0
 33 36  1  0  0  0
 36 37  1  0  0  0
 37 38  1  0  0  0
 38 39  1  0  0  0
 39 40  1  0  0  0
 39 41  1  0  0  0
 41 42  1  0  0  0
 29 24  1  0  0  0
  9  3  1  0  0  0
 35 30  1  0  0  0
 42 36  1  0  0  0
 17 12  1  0  0  0
  1  2  1  0  0  0
 10 11  1  0  0  0
M  END
> <minimizedAffinity>
-8.52737

> <CNNscore>
0.2717951834

> <CNNaffinity>
7.4159955978

> <CNN_VS>
2.0156319141

> <CNNaffinity_variance>
0.0601828806

$$$$
[H]c1nc(N([H])c2c([H])c([H])c(N3C([H])([H])C([H])([H])C([H])(N4C([H])([H])C([H])([H])N(C([H])([H])[H])C([H])([H])C4([H])[H])C([H])([H])C3([H])[H])c([H])c2OC([H])([H])[H])nc(N([H])c2c([H])c([H])c([H])c([H])c2S(=O)(=O)C([H])(C([H])([H])[H])C([H])([H])[H])c1Cl


 44 48  0  0  0  0  0  0  0  0999 V2000
  -19.8786   12.1833  -18.1381 N   0  0  0  0  0  0  0  0  0  0  0  0
  -20.2984   11.4784  -17.4323 H   0  0  0  0  0  0  0  0  0  0  0  0
  -18.7687   11.7240  -18.8955 C   0  0  0  0  0  0  0  0  0  0  0  0
  -18.0822   10.5979  -18.6861 N   0  0  0  0  0  0  0  0  0  0  0  0
  -17.0428   10.2230  -19.4421 C   0  0  0  0  0  0  0  0  0  0  0  0
  -16.6388   11.0140  -20.4920 C   0  0  0  0  0  0  0  0  0  0  0  0
  -15.2741   10.5370  -21.4973 Cl  0  0  0  0  0  0  0  0  0  0  0  0
  -17.3473   12.2090  -20.7346 C   0  0  0  0  0  0  0  0  0  0  0  0
  -18.3688   12.4951  -19.9250 N   0  0  0  0  0  0  0  0  0  0  0  0
  -16.9161   12.9969  -21.8128 N   0  0  0  0  0  0  0  0  0  0  0  0
  -16.7180   12.4469  -22.7124 H   0  0  0  0  0  0  0  0  0  0  0  0
  -16.6966   14.3779  -21.9285 C   0  0  0  0  0  0  0  0  0  0  0  0
  -17.0835   15.2255  -20.9122 C   0  0  0  0  0  0  0  0  0  0  0  0
  -16.8731   16.6068  -21.0133 C   0  0  0  0  0  0  0  0  0  0  0  0
  -16.2788   17.1055  -22.1335 C   0  0  0  0  0  0  0  0  0  0  0  0
  -15.8935   16.2567  -23.1464 C   0  0  0  0  0  0  0  0  0  0  0  0
  -16.0870   14.9020  -23.0738 C   0  0  0  0  0  0  0  0  0  0  0  0
  -15.6002   13.8581  -24.3439 S   0  0  0  0  0  0  0  0  0  0  0  0
  -15.5282   12.4378  -23.8419 O   0  0  0  0  0  0  0  0  0  0  0  0
  -14.2714   14.1960  -24.9600 O   0  0  0  0  0  0  0  0  0  0  0  0
  -16.7651   13.8341  -25.6932 C   0  0  0  0  0  0  0  0  0  0  0  0
  -18.1684   13.9142  -25.1862 C   0  0  0  0  0  0  0  0  0  0  0  0
  -16.4248   14.7875  -26.7897 C   0  0  0  0  0  0  0  0  0  0  0  0
  -20.8957   14.0097  -16.9541 C   0  0  0  0  0  0  0  0  0  0  0  0
  -21.5247   15.2403  -16.9059 C   0  0  0  0  0  0  0  0  0  0  0  0
  -21.8036   15.9589  -18.0471 C   0  0  0  0  0  0  0  0  0  0  0  0
  -21.4220   15.3851  -19.2355 C   0  0  0  0  0  0  0  0  0  0  0  0
  -20.7848   14.1431  -19.3198 C   0  0  0  0  0  0  0  0  0  0  0  0
  -20.5096   13.4316  -18.1792 C   0  0  0  0  0  0  0  0  0  0  0  0
  -22.4480   17.2339  -17.9807 N   0  0  0  0  0  0  0  0  0  0  0  0
  -21.7358   18.3765  -18.4406 C   0  0  0  0  0  0  0  0  0  0  0  0
  -22.5572   19.6119  -18.6809 C   0  0  0  0  0  0  0  0  0  0  0  0
  -23.5786   19.8878  -17.6292 C   0  0  0  0  0  0  0  0  0  0  0  0
  -23.8497   18.6917  -16.7388 C   0  0  0  0  0  0  0  0  0  0  0  0
  -23.7850   17.3878  -17.4592 C   0  0  0  0  0  0  0  0  0  0  0  0
  -24.8057   20.4417  -18.0427 N   0  0  0  0  0  0  0  0  0  0  0  0
  -25.8771   20.5007  -17.1383 C   0  0  0  0  0  0  0  0  0  0  0  0
  -27.1782   20.7677  -17.9005 C   0  0  0  0  0  0  0  0  0  0  0  0
  -26.9171   21.8170  -18.8666 N   0  0  0  0  0  0  0  0  0  0  0  0
  -26.7264   23.1100  -18.2911 C   0  0  0  0  0  0  0  0  0  0  0  0
  -25.9728   21.4407  -19.8685 C   0  0  0  0  0  0  0  0  0  0  0  0
  -25.2079   20.2074  -19.3925 C   0  0  0  0  0  0  0  0  0  0  0  0
  -21.7274   12.7813  -15.0576 C   0  0  0  0  0  0  0  0  0  0  0  0
  -20.6451   13.3400  -15.7665 O   0  0  0  0  0  0  0  0  0  0  0  0
 43 44  1  0  0  0
 44 24  1  0  0  0
 24 25  2  0  0  0
 25 26  1  0  0  0
 26 27  2  0  0  0
 27 28  1  0  0  0
 28 29  2  0  0  0
 29  1  1  0  0  0
  1  3  1  0  0  0
  3  4  2  0  0  0
  4  5  1  0  0  0
  5  6  2  0  0  0
  6  7  1  0  0  0
  6  8  1  0  0  0
  8 10  1  0  0  0
 10 12  1  0  0  0
 12 13  2  0  0  0
 13 14  1  0  0  0
 14 15  2  0  0  0
 15 16  1  0  0  0
 16 17  2  0  0  0
 17 18  1  0  0  0
 18 19  2  0  0  0
 18 20  2  0  0  0
 18 21  1  0  0  0
 21 22  1  0  0  0
 21 23  1  0  0  0
  8  9  2  0  0  0
 26 30  1  0  0  0
 30 31  1  0  0  0
 31 32  1  0  0  0
 32 33  1  0  0  0
 33 34  1  0  0  0
 34 35  1  0  0  0
 33 36  1  0  0  0
 36 37  1  0  0  0
 37 38  1  0  0  0
 38 39  1  0  0  0
 39 40  1  0  0  0
 39 41  1  0  0  0
 41 42  1  0  0  0
 29 24  1  0  0  0
  9  3  1  0  0  0
 35 30  1  0  0  0
 42 36  1  0  0  0
 17 12  1  0  0  0
  1  2  1  0  0  0
 10 11  1  0  0  0
M  END
> <minimizedAffinity>
-8.13179

> <CNNscore>
0.2296057492

> <CNNaffinity>
7.1405549049

> <CNN_VS>
1.6395124197

> <CNNaffinity_variance>
0.2047136575

$$$$
[H]c1nc(N([H])c2c([H])c([H])c(N3C([H])([H])C([H])([H])C([H])(N4C([H])([H])C([H])([H])N(C([H])([H])[H])C([H])([H])C4([H])[H])C([H])([H])C3([H])[H])c([H])c2OC([H])([H])[H])nc(N([H])c2c([H])c([H])c([H])c([H])c2S(=O)(=O)C([H])(C([H])([H])[H])C([H])([H])[H])c1Cl


 44 48  0  0  0  0  0  0  0  0999 V2000
  -18.1227    9.2507  -17.4083 N   0  0  0  0  0  0  0  0  0  0  0  0
  -17.2592    8.6840  -17.7316 H   0  0  0  0  0  0  0  0  0  0  0  0
  -18.9142    8.6578  -16.3892 C   0  0  0  0  0  0  0  0  0  0  0  0
  -19.9144    7.7918  -16.5705 N   0  0  0  0  0  0  0  0  0  0  0  0
  -20.6212    7.2683  -15.5611 C   0  0  0  0  0  0  0  0  0  0  0  0
  -20.3272    7.6197  -14.2644 C   0  0  0  0  0  0  0  0  0  0  0  0
  -21.2459    6.9413  -12.9241 Cl  0  0  0  0  0  0  0  0  0  0  0  0
  -19.2751    8.5329  -14.0458 C   0  0  0  0  0  0  0  0  0  0  0  0
  -18.6304    8.9986  -15.1174 N   0  0  0  0  0  0  0  0  0  0  0  0
  -18.9942    8.8733  -12.7136 N   0  0  0  0  0  0  0  0  0  0  0  0
  -18.0969    8.4332  -12.3235 H   0  0  0  0  0  0  0  0  0  0  0  0
  -19.6757    9.6875  -11.7965 C   0  0  0  0  0  0  0  0  0  0  0  0
  -20.4023   10.7710  -12.2428 C   0  0  0  0  0  0  0  0  0  0  0  0
  -21.0867   11.5947  -11.3398 C   0  0  0  0  0  0  0  0  0  0  0  0
  -21.0257   11.3113  -10.0083 C   0  0  0  0  0  0  0  0  0  0  0  0
  -20.2997   10.2287   -9.5658 C   0  0  0  0  0  0  0  0  0  0  0  0
  -19.6209    9.4066  -10.4268 C   0  0  0  0  0  0  0  0  0  0  0  0
  -18.7219    8.0612   -9.8595 S   0  0  0  0  0  0  0  0  0  0  0  0
  -18.9189    6.8858  -10.7835 O   0  0  0  0  0  0  0  0  0  0  0  0
  -19.0706    7.6151   -8.4671 O   0  0  0  0  0  0  0  0  0  0  0  0
  -16.9664    8.3711   -9.8411 C   0  0  0  0  0  0  0  0  0  0  0  0
  -16.6798    9.7857   -9.4543 C   0  0  0  0  0  0  0  0  0  0  0  0
  -16.1872    7.3348   -9.1022 C   0  0  0  0  0  0  0  0  0  0  0  0
  -17.5075   10.7459  -19.1854 C   0  0  0  0  0  0  0  0  0  0  0  0
  -17.6257   11.9335  -19.8839 C   0  0  0  0  0  0  0  0  0  0  0  0
  -18.5258   12.9077  -19.5137 C   0  0  0  0  0  0  0  0  0  0  0  0
  -19.2996   12.6337  -18.4122 C   0  0  0  0  0  0  0  0  0  0  0  0
  -19.2056   11.4440  -17.6834 C   0  0  0  0  0  0  0  0  0  0  0  0
  -18.3066   10.4769  -18.0571 C   0  0  0  0  0  0  0  0  0  0  0  0
  -18.6416   14.1279  -20.2507 N   0  0  0  0  0  0  0  0  0  0  0  0
  -18.1568   14.1590  -21.5879 C   0  0  0  0  0  0  0  0  0  0  0  0
  -18.6094   15.3217  -22.4258 C   0  0  0  0  0  0  0  0  0  0  0  0
  -18.5920   16.6352  -21.7190 C   0  0  0  0  0  0  0  0  0  0  0  0
  -18.4914   16.4960  -20.2132 C   0  0  0  0  0  0  0  0  0  0  0  0
  -19.2262   15.3154  -19.6752 C   0  0  0  0  0  0  0  0  0  0  0  0
  -19.6122   17.5553  -22.0294 N   0  0  0  0  0  0  0  0  0  0  0  0
  -19.8831   17.8600  -23.3722 C   0  0  0  0  0  0  0  0  0  0  0  0
  -20.7303   19.1333  -23.4488 C   0  0  0  0  0  0  0  0  0  0  0  0
  -21.7750   19.0299  -22.4486 N   0  0  0  0  0  0  0  0  0  0  0  0
  -22.7870   18.0699  -22.7545 C   0  0  0  0  0  0  0  0  0  0  0  0
  -21.2763   18.9981  -21.1116 C   0  0  0  0  0  0  0  0  0  0  0  0
  -19.7868   18.6621  -21.1445 C   0  0  0  0  0  0  0  0  0  0  0  0
  -15.8340   10.0703  -20.7793 C   0  0  0  0  0  0  0  0  0  0  0  0
  -16.5804    9.8082  -19.6130 O   0  0  0  0  0  0  0  0  0  0  0  0
 43 44  1  0  0  0
 44 24  1  0  0  0
 24 25  2  0  0  0
 25 26  1  0  0  0
 26 27  2  0  0  0
 27 28  1  0  0  0
 28 29  2  0  0  0
 29  1  1  0  0  0
  1  3  1  0  0  0
  3  4  2  0  0  0
  4  5  1  0  0  0
  5  6  2  0  0  0
  6  7  1  0  0  0
  6  8  1  0  0  0
  8 10  1  0  0  0
 10 12  1  0  0  0
 12 13  2  0  0  0
 13 14  1  0  0  0
 14 15  2  0  0  0
 15 16  1  0  0  0
 16 17  2  0  0  0
 17 18  1  0  0  0
 18 19  2  0  0  0
 18 20  2  0  0  0
 18 21  1  0  0  0
 21 22  1  0  0  0
 21 23  1  0  0  0
  8  9  2  0  0  0
 26 30  1  0  0  0
 30 31  1  0  0  0
 31 32  1  0  0  0
 32 33  1  0  0  0
 33 34  1  0  0  0
 34 35  1  0  0  0
 33 36  1  0  0  0
 36 37  1  0  0  0
 37 38  1  0  0  0
 38 39  1  0  0  0
 39 40  1  0  0  0
 39 41  1  0  0  0
 41 42  1  0  0  0
 29 24  1  0  0  0
  9  3  1  0  0  0
 35 30  1  0  0  0
 42 36  1  0  0  0
 17 12  1  0  0  0
  1  2  1  0  0  0
 10 11  1  0  0  0
M  END
> <minimizedAffinity>
-8.81084

> <CNNscore>
0.2181086987

> <CNNaffinity>
6.7518606186

> <CNN_VS>
1.4726395607

> <CNNaffinity_variance>
0.5614341497

$$$$
[H]c1nc(N([H])c2c([H])c([H])c(N3C([H])([H])C([H])([H])C([H])(N4C([H])([H])C([H])([H])N(C([H])([H])[H])C([H])([H])C4([H])[H])C([H])([H])C3([H])[H])c([H])c2OC([H])([H])[H])nc(N([H])c2c([H])c([H])c([H])c([H])c2S(=O)(=O)C([H])(C([H])([H])[H])C([H])([H])[H])c1Cl


 44 48  0  0  0  0  0  0  0  0999 V2000
  -17.7529   13.9261  -21.2081 N   0  0  0  0  0  0  0  0  0  0  0  0
  -17.3480   13.3973  -22.0611 H   0  0  0  0  0  0  0  0  0  0  0  0
  -17.7703   15.3429  -21.3011 C   0  0  0  0  0  0  0  0  0  0  0  0
  -16.7072   16.1369  -21.4519 N   0  0  0  0  0  0  0  0  0  0  0  0
  -16.7954   17.4703  -21.5343 C   0  0  0  0  0  0  0  0  0  0  0  0
  -18.0255   18.0811  -21.4638 C   0  0  0  0  0  0  0  0  0  0  0  0
  -18.1608   19.8335  -21.5706 Cl  0  0  0  0  0  0  0  0  0  0  0  0
  -19.1644   17.2649  -21.3046 C   0  0  0  0  0  0  0  0  0  0  0  0
  -18.9726   15.9462  -21.2326 N   0  0  0  0  0  0  0  0  0  0  0  0
  -20.4074   17.9128  -21.2375 N   0  0  0  0  0  0  0  0  0  0  0  0
  -20.5742   18.4585  -20.3290 H   0  0  0  0  0  0  0  0  0  0  0  0
  -21.4749   17.9772  -22.1457 C   0  0  0  0  0  0  0  0  0  0  0  0
  -21.2271   17.9856  -23.5021 C   0  0  0  0  0  0  0  0  0  0  0  0
  -22.2818   18.0513  -24.4217 C   0  0  0  0  0  0  0  0  0  0  0  0
  -23.5618   18.1072  -23.9580 C   0  0  0  0  0  0  0  0  0  0  0  0
  -23.8060   18.0984  -22.6033 C   0  0  0  0  0  0  0  0  0  0  0  0
  -22.7937   18.0346  -21.6818 C   0  0  0  0  0  0  0  0  0  0  0  0
  -23.1148   18.0234  -19.9975 S   0  0  0  0  0  0  0  0  0  0  0  0
  -22.2504   16.9919  -19.3171 O   0  0  0  0  0  0  0  0  0  0  0  0
  -24.5448   17.7380  -19.6328 O   0  0  0  0  0  0  0  0  0  0  0  0
  -22.7185   19.5759  -19.2159 C   0  0  0  0  0  0  0  0  0  0  0  0
  -21.5746   19.4175  -18.2677 C   0  0  0  0  0  0  0  0  0  0  0  0
  -22.6020   20.7124  -20.1759 C   0  0  0  0  0  0  0  0  0  0  0  0
  -17.5753   11.8554  -20.0028 C   0  0  0  0  0  0  0  0  0  0  0  0
  -17.9490   10.9907  -18.9904 C   0  0  0  0  0  0  0  0  0  0  0  0
  -18.9366   11.3137  -18.0867 C   0  0  0  0  0  0  0  0  0  0  0  0
  -19.5294   12.5425  -18.2470 C   0  0  0  0  0  0  0  0  0  0  0  0
  -19.1759   13.4403  -19.2593 C   0  0  0  0  0  0  0  0  0  0  0  0
  -18.1910   13.1128  -20.1569 C   0  0  0  0  0  0  0  0  0  0  0  0
  -19.3071   10.4118  -17.0403 N   0  0  0  0  0  0  0  0  0  0  0  0
  -18.7752    9.0924  -17.0648 C   0  0  0  0  0  0  0  0  0  0  0  0
  -18.9000    8.3082  -15.7887 C   0  0  0  0  0  0  0  0  0  0  0  0
  -20.2210    8.4421  -15.1091 C   0  0  0  0  0  0  0  0  0  0  0  0
  -21.0321    9.6171  -15.6175 C   0  0  0  0  0  0  0  0  0  0  0  0
  -20.2010   10.8018  -15.9765 C   0  0  0  0  0  0  0  0  0  0  0  0
  -20.2308    8.4506  -13.7007 N   0  0  0  0  0  0  0  0  0  0  0  0
  -21.4145    8.7738  -13.0196 C   0  0  0  0  0  0  0  0  0  0  0  0
  -21.0940    9.0943  -11.5570 C   0  0  0  0  0  0  0  0  0  0  0  0
  -20.1703    8.0855  -11.0756 N   0  0  0  0  0  0  0  0  0  0  0  0
  -20.7527    6.7937  -10.8984 C   0  0  0  0  0  0  0  0  0  0  0  0
  -18.9093    8.1090  -11.7436 C   0  0  0  0  0  0  0  0  0  0  0  0
  -19.0485    8.9033  -13.0407 C   0  0  0  0  0  0  0  0  0  0  0  0
  -16.0673   10.1537  -20.7953 C   0  0  0  0  0  0  0  0  0  0  0  0
  -16.5732   11.4665  -20.8782 O   0  0  0  0  0  0  0  0  0  0  0  0
 43 44  1  0  0  0
 44 24  1  0  0  0
 24 25  2  0  0  0
 25 26  1  0  0  0
 26 27  2  0  0  0
 27 28  1  0  0  0
 28 29  2  0  0  0
 29  1  1  0  0  0
  1  3  1  0  0  0
  3  4  2  0  0  0
  4  5  1  0  0  0
  5  6  2  0  0  0
  6  7  1  0  0  0
  6  8  1  0  0  0
  8 10  1  0  0  0
 10 12  1  0  0  0
 12 13  2  0  0  0
 13 14  1  0  0  0
 14 15  2  0  0  0
 15 16  1  0  0  0
 16 17  2  0  0  0
 17 18  1  0  0  0
 18 19  2  0  0  0
 18 20  2  0  0  0
 18 21  1  0  0  0
 21 22  1  0  0  0
 21 23  1  0  0  0
  8  9  2  0  0  0
 26 30  1  0  0  0
 30 31  1  0  0  0
 31 32  1  0  0  0
 32 33  1  0  0  0
 33 34  1  0  0  0
 34 35  1  0  0  0
 33 36  1  0  0  0
 36 37  1  0  0  0
 37 38  1  0  0  0
 38 39  1  0  0  0
 39 40  1  0  0  0
 39 41  1  0  0  0
 41 42  1  0  0  0
 29 24  1  0  0  0
  9  3  1  0  0  0
 35 30  1  0  0  0
 42 36  1  0  0  0
 17 12  1  0  0  0
  1  2  1  0  0  0
 10 11  1  0  0  0
M  END
> <minimizedAffinity>
-8.12821

> <CNNscore>
0.1768947989

> <CNNaffinity>
6.9974160194

> <CNN_VS>
1.2378065586

> <CNNaffinity_variance>
0.2204501927

$$$$
[H]c1nc(N([H])c2c([H])c([H])c(N3C([H])([H])C([H])([H])C([H])(N4C([H])([H])C([H])([H])N(C([H])([H])[H])C([H])([H])C4([H])[H])C([H])([H])C3([H])[H])c([H])c2OC([H])([H])[H])nc(N([H])c2c([H])c([H])c([H])c([H])c2S(=O)(=O)C([H])(C([H])([H])[H])C([H])([H])[H])c1Cl


 44 48  0  0  0  0  0  0  0  0999 V2000
  -17.1017   13.1174  -21.6274 N   0  0  0  0  0  0  0  0  0  0  0  0
  -16.5336   12.7779  -22.4836 H   0  0  0  0  0  0  0  0  0  0  0  0
  -17.3526   12.1491  -20.6194 C   0  0  0  0  0  0  0  0  0  0  0  0
  -16.7331   10.9741  -20.4824 N   0  0  0  0  0  0  0  0  0  0  0  0
  -17.0190   10.1057  -19.5043 C   0  0  0  0  0  0  0  0  0  0  0  0
  -17.9921   10.4095  -18.5813 C   0  0  0  0  0  0  0  0  0  0  0  0
  -18.3815    9.2798  -17.2880 Cl  0  0  0  0  0  0  0  0  0  0  0  0
  -18.6616   11.6446  -18.7038 C   0  0  0  0  0  0  0  0  0  0  0  0
  -18.3048   12.4418  -19.7128 N   0  0  0  0  0  0  0  0  0  0  0  0
  -19.6486   11.9311  -17.7482 N   0  0  0  0  0  0  0  0  0  0  0  0
  -19.9632   11.0849  -17.1686 H   0  0  0  0  0  0  0  0  0  0  0  0
  -20.3004   13.1271  -17.4118 C   0  0  0  0  0  0  0  0  0  0  0  0
  -20.1641   14.2375  -18.2178 C   0  0  0  0  0  0  0  0  0  0  0  0
  -20.8069   15.4395  -17.8947 C   0  0  0  0  0  0  0  0  0  0  0  0
  -21.5722   15.4990  -16.7689 C   0  0  0  0  0  0  0  0  0  0  0  0
  -21.7066   14.3887  -15.9663 C   0  0  0  0  0  0  0  0  0  0  0  0
  -21.0893   13.2006  -16.2585 C   0  0  0  0  0  0  0  0  0  0  0  0
  -21.2677   11.8263  -15.2488 S   0  0  0  0  0  0  0  0  0  0  0  0
  -19.9351   11.4531  -14.6495 O   0  0  0  0  0  0  0  0  0  0  0  0
  -21.8195   10.6091  -15.9369 O   0  0  0  0  0  0  0  0  0  0  0  0
  -22.3503   12.1304  -13.8655 C   0  0  0  0  0  0  0  0  0  0  0  0
  -23.6494   11.4127  -14.0386 C   0  0  0  0  0  0  0  0  0  0  0  0
  -21.6885   11.9464  -12.5407 C   0  0  0  0  0  0  0  0  0  0  0  0
  -18.0086   14.9570  -22.8786 C   0  0  0  0  0  0  0  0  0  0  0  0
  -18.4160   16.2727  -23.0021 C   0  0  0  0  0  0  0  0  0  0  0  0
  -18.3365   17.1596  -21.9516 C   0  0  0  0  0  0  0  0  0  0  0  0
  -17.8302   16.6642  -20.7746 C   0  0  0  0  0  0  0  0  0  0  0  0
  -17.4091   15.3402  -20.6157 C   0  0  0  0  0  0  0  0  0  0  0  0
  -17.4907   14.4610  -21.6662 C   0  0  0  0  0  0  0  0  0  0  0  0
  -18.7688   18.5156  -22.0925 N   0  0  0  0  0  0  0  0  0  0  0  0
  -18.6842   19.1224  -23.3766 C   0  0  0  0  0  0  0  0  0  0  0  0
  -19.4611   20.3965  -23.5554 C   0  0  0  0  0  0  0  0  0  0  0  0
  -19.3694   21.3416  -22.4050 C   0  0  0  0  0  0  0  0  0  0  0  0
  -18.8374   20.6900  -21.1443 C   0  0  0  0  0  0  0  0  0  0  0  0
  -19.2772   19.2753  -20.9756 C   0  0  0  0  0  0  0  0  0  0  0  0
  -20.5175   22.0925  -22.0861 N   0  0  0  0  0  0  0  0  0  0  0  0
  -21.4420   22.4039  -23.0949 C   0  0  0  0  0  0  0  0  0  0  0  0
  -22.3709   23.5218  -22.6126 C   0  0  0  0  0  0  0  0  0  0  0  0
  -22.7763   23.2054  -21.2569 N   0  0  0  0  0  0  0  0  0  0  0  0
  -23.6808   22.1050  -21.1567 C   0  0  0  0  0  0  0  0  0  0  0  0
  -21.6916   23.2007  -20.3292 C   0  0  0  0  0  0  0  0  0  0  0  0
  -20.3769   23.1173  -21.1020 C   0  0  0  0  0  0  0  0  0  0  0  0
  -17.5419   14.5184  -25.1996 C   0  0  0  0  0  0  0  0  0  0  0  0
  -18.1165   14.1179  -23.9767 O   0  0  0  0  0  0  0  0  0  0  0  0
 43 44  1  0  0  0
 44 24  1  0  0  0
 24 25  2  0  0  0
 25 26  1  0  0  0
 26 27  2  0  0  0
 27 28  1  0  0  0
 28 29  2  0  0  0
 29  1  1  0  0  0
  1  3  1  0  0  0
  3  4  2  0  0  0
  4  5  1  0  0  0
  5  6  2  0  0  0
  6  7  1  0  0  0
  6  8  1  0  0  0
  8 10  1  0  0  0
 10 12  1  0  0  0
 12 13  2  0  0  0
 13 14  1  0  0  0
 14 15  2  0  0  0
 15 16  1  0  0  0
 16 17  2  0  0  0
 17 18  1  0  0  0
 18 19  2  0  0  0
 18 20  2  0  0  0
 18 21  1  0  0  0
 21 22  1  0  0  0
 21 23  1  0  0  0
  8  9  2  0  0  0
 26 30  1  0  0  0
 30 31  1  0  0  0
 31 32  1  0  0  0
 32 33  1  0  0  0
 33 34  1  0  0  0
 34 35  1  0  0  0
 33 36  1  0  0  0
 36 37  1  0  0  0
 37 38  1  0  0  0
 38 39  1  0  0  0
 39 40  1  0  0  0
 39 41  1  0  0  0
 41 42  1  0  0  0
 29 24  1  0  0  0
  9  3  1  0  0  0
 35 30  1  0  0  0
 42 36  1  0  0  0
 17 12  1  0  0  0
  1  2  1  0  0  0
 10 11  1  0  0  0
M  END
> <minimizedAffinity>
-7.58541

> <CNNscore>
0.1694174409

> <CNNaffinity>
7.1374311447

> <CNN_VS>
1.2092052698

> <CNNaffinity_variance>
0.2538827956

$$$$
[H]c1nc(N([H])c2c([H])c([H])c(N3C([H])([H])C([H])([H])C([H])(N4C([H])([H])C([H])([H])N(C([H])([H])[H])C([H])([H])C4([H])[H])C([H])([H])C3([H])[H])c([H])c2OC([H])([H])[H])nc(N([H])c2c([H])c([H])c([H])c([H])c2S(=O)(=O)C([H])(C([H])([H])[H])C([H])([H])[H])c1Cl


 44 48  0  0  0  0  0  0  0  0999 V2000
  -17.0503   12.9285  -21.6400 N   0  0  0  0  0  0  0  0  0  0  0  0
  -16.3484   12.6161  -22.4022 H   0  0  0  0  0  0  0  0  0  0  0  0
  -17.3081   11.9910  -20.6050 C   0  0  0  0  0  0  0  0  0  0  0  0
  -16.6835   10.8248  -20.4232 N   0  0  0  0  0  0  0  0  0  0  0  0
  -16.9765    9.9859  -19.4217 C   0  0  0  0  0  0  0  0  0  0  0  0
  -17.9629   10.3127  -18.5209 C   0  0  0  0  0  0  0  0  0  0  0  0
  -18.3619    9.2219  -17.1974 Cl  0  0  0  0  0  0  0  0  0  0  0  0
  -18.6381   11.5391  -18.6907 C   0  0  0  0  0  0  0  0  0  0  0  0
  -18.2733   12.3061  -19.7200 N   0  0  0  0  0  0  0  0  0  0  0  0
  -19.6387   11.8494  -17.7570 N   0  0  0  0  0  0  0  0  0  0  0  0
  -19.9035   11.0392  -17.1054 H   0  0  0  0  0  0  0  0  0  0  0  0
  -20.3576   13.0306  -17.5197 C   0  0  0  0  0  0  0  0  0  0  0  0
  -20.3047   14.0651  -18.4298 C   0  0  0  0  0  0  0  0  0  0  0  0
  -21.0152   15.2516  -18.2065 C   0  0  0  0  0  0  0  0  0  0  0  0
  -21.7630   15.3721  -17.0738 C   0  0  0  0  0  0  0  0  0  0  0  0
  -21.8140   14.3375  -16.1673 C   0  0  0  0  0  0  0  0  0  0  0  0
  -21.1293   13.1663  -16.3604 C   0  0  0  0  0  0  0  0  0  0  0  0
  -21.2043   11.8864  -15.2218 S   0  0  0  0  0  0  0  0  0  0  0  0
  -19.8257   11.5972  -14.6832 O   0  0  0  0  0  0  0  0  0  0  0  0
  -21.7674   10.6004  -15.7589 O   0  0  0  0  0  0  0  0  0  0  0  0
  -22.2014   12.2932  -13.8011 C   0  0  0  0  0  0  0  0  0  0  0  0
  -23.6152   11.8524  -13.9996 C   0  0  0  0  0  0  0  0  0  0  0  0
  -21.5812   11.8914  -12.5045 C   0  0  0  0  0  0  0  0  0  0  0  0
  -17.9492   14.5983  -23.1151 C   0  0  0  0  0  0  0  0  0  0  0  0
  -18.4825   15.8482  -23.3713 C   0  0  0  0  0  0  0  0  0  0  0  0
  -18.6813   16.7724  -22.3700 C   0  0  0  0  0  0  0  0  0  0  0  0
  -18.3205   16.3833  -21.1029 C   0  0  0  0  0  0  0  0  0  0  0  0
  -17.7787   15.1281  -20.8093 C   0  0  0  0  0  0  0  0  0  0  0  0
  -17.5828   14.2112  -21.8113 C   0  0  0  0  0  0  0  0  0  0  0  0
  -19.2409   18.0586  -22.6495 N   0  0  0  0  0  0  0  0  0  0  0  0
  -18.7006   19.1914  -21.9792 C   0  0  0  0  0  0  0  0  0  0  0  0
  -19.0658   20.5319  -22.5523 C   0  0  0  0  0  0  0  0  0  0  0  0
  -20.4962   20.6616  -22.9553 C   0  0  0  0  0  0  0  0  0  0  0  0
  -21.2037   19.3258  -23.0656 C   0  0  0  0  0  0  0  0  0  0  0  0
  -20.3308   18.2317  -23.5796 C   0  0  0  0  0  0  0  0  0  0  0  0
  -20.7831   21.4307  -24.0998 N   0  0  0  0  0  0  0  0  0  0  0  0
  -20.4420   22.7917  -24.1213 C   0  0  0  0  0  0  0  0  0  0  0  0
  -21.1807   23.4880  -25.2678 C   0  0  0  0  0  0  0  0  0  0  0  0
  -21.0754   22.6412  -26.4402 N   0  0  0  0  0  0  0  0  0  0  0  0
  -19.7684   22.5929  -27.0135 C   0  0  0  0  0  0  0  0  0  0  0  0
  -21.7311   21.3825  -26.2889 C   0  0  0  0  0  0  0  0  0  0  0  0
  -21.9881   21.1310  -24.8045 C   0  0  0  0  0  0  0  0  0  0  0  0
  -17.3651   14.2212  -25.4203 C   0  0  0  0  0  0  0  0  0  0  0  0
  -17.7758   13.7162  -24.1704 O   0  0  0  0  0  0  0  0  0  0  0  0
 43 44  1  0  0  0
 44 24  1  0  0  0
 24 25  2  0  0  0
 25 26  1  0  0  0
 26 27  2  0  0  0
 27 28  1  0  0  0
 28 29  2  0  0  0
 29  1  1  0  0  0
  1  3  1  0  0  0
  3  4  2  0  0  0
  4  5  1  0  0  0
  5  6  2  0  0  0
  6  7  1  0  0  0
  6  8  1  0  0  0
  8 10  1  0  0  0
 10 12  1  0  0  0
 12 13  2  0  0  0
 13 14  1  0  0  0
 14 15  2  0  0  0
 15 16  1  0  0  0
 16 17  2  0  0  0
 17 18  1  0  0  0
 18 19  2  0  0  0
 18 20  2  0  0  0
 18 21  1  0  0  0
 21 22  1  0  0  0
 21 23  1  0  0  0
  8  9  2  0  0  0
 26 30  1  0  0  0
 30 31  1  0  0  0
 31 32  1  0  0  0
 32 33  1  0  0  0
 33 34  1  0  0  0
 34 35  1  0  0  0
 33 36  1  0  0  0
 36 37  1  0  0  0
 37 38  1  0  0  0
 38 39  1  0  0  0
 39 40  1  0  0  0
 39 41  1  0  0  0
 41 42  1  0  0  0
 29 24  1  0  0  0
  9  3  1  0  0  0
 35 30  1  0  0  0
 42 36  1  0  0  0
 17 12  1  0  0  0
  1  2  1  0  0  0
 10 11  1  0  0  0
M  END
> <minimizedAffinity>
-8.10759

> <CNNscore>
0.1677810550

> <CNNaffinity>
7.2722826004

> <CNN_VS>
1.2201513052

> <CNNaffinity_variance>
0.1475920975

$$$$
[H]c1nc(N([H])c2c([H])c([H])c(N3C([H])([H])C([H])([H])C([H])(N4C([H])([H])C([H])([H])N(C([H])([H])[H])C([H])([H])C4([H])[H])C([H])([H])C3([H])[H])c([H])c2OC([H])([H])[H])nc(N([H])c2c([H])c([H])c([H])c([H])c2S(=O)(=O)C([H])(C([H])([H])[H])C([H])([H])[H])c1Cl


 44 48  0  0  0  0  0  0  0  0999 V2000
  -17.0253   13.4078  -22.1782 N   0  0  0  0  0  0  0  0  0  0  0  0
  -16.5450   13.1067  -23.1001 H   0  0  0  0  0  0  0  0  0  0  0  0
  -17.1647   12.4000  -21.1875 C   0  0  0  0  0  0  0  0  0  0  0  0
  -16.9322   11.0953  -21.3510 N   0  0  0  0  0  0  0  0  0  0  0  0
  -17.0827   10.1965  -20.3702 C   0  0  0  0  0  0  0  0  0  0  0  0
  -17.4951   10.6055  -19.1236 C   0  0  0  0  0  0  0  0  0  0  0  0
  -17.6983    9.4377  -17.8215 Cl  0  0  0  0  0  0  0  0  0  0  0  0
  -17.7474   11.9786  -18.9246 C   0  0  0  0  0  0  0  0  0  0  0  0
  -17.5683   12.7953  -19.9647 N   0  0  0  0  0  0  0  0  0  0  0  0
  -18.1651   12.3698  -17.6433 N   0  0  0  0  0  0  0  0  0  0  0  0
  -17.3901   12.7944  -17.0349 H   0  0  0  0  0  0  0  0  0  0  0  0
  -19.4162   12.3068  -17.0115 C   0  0  0  0  0  0  0  0  0  0  0  0
  -19.9464   11.0860  -16.6511 C   0  0  0  0  0  0  0  0  0  0  0  0
  -21.1951   11.0061  -16.0213 C   0  0  0  0  0  0  0  0  0  0  0  0
  -21.8833   12.1546  -15.7677 C   0  0  0  0  0  0  0  0  0  0  0  0
  -21.3512   13.3718  -16.1285 C   0  0  0  0  0  0  0  0  0  0  0  0
  -20.1323   13.4791  -16.7454 C   0  0  0  0  0  0  0  0  0  0  0  0
  -19.4829   15.0032  -17.1875 S   0  0  0  0  0  0  0  0  0  0  0  0
  -19.6106   15.2031  -18.6768 O   0  0  0  0  0  0  0  0  0  0  0  0
  -18.0392   15.2014  -16.8189 O   0  0  0  0  0  0  0  0  0  0  0  0
  -20.3620   16.3630  -16.4414 C   0  0  0  0  0  0  0  0  0  0  0  0
  -19.4101   17.3925  -15.9250 C   0  0  0  0  0  0  0  0  0  0  0  0
  -21.4754   16.8864  -17.2860 C   0  0  0  0  0  0  0  0  0  0  0  0
  -18.1209   15.2657  -23.2364 C   0  0  0  0  0  0  0  0  0  0  0  0
  -18.5523   16.5791  -23.2661 C   0  0  0  0  0  0  0  0  0  0  0  0
  -18.3259   17.4421  -22.2171 C   0  0  0  0  0  0  0  0  0  0  0  0
  -17.6479   16.9252  -21.1400 C   0  0  0  0  0  0  0  0  0  0  0  0
  -17.1977   15.6027  -21.0776 C   0  0  0  0  0  0  0  0  0  0  0  0
  -17.4263   14.7474  -22.1261 C   0  0  0  0  0  0  0  0  0  0  0  0
  -18.7848   18.7960  -22.2593 N   0  0  0  0  0  0  0  0  0  0  0  0
  -18.7659   19.4780  -23.5078 C   0  0  0  0  0  0  0  0  0  0  0  0
  -19.5695   20.7461  -23.5780 C   0  0  0  0  0  0  0  0  0  0  0  0
  -19.4421   21.6242  -22.3789 C   0  0  0  0  0  0  0  0  0  0  0  0
  -18.8454   20.9100  -21.1826 C   0  0  0  0  0  0  0  0  0  0  0  0
  -19.2555   19.4802  -21.0789 C   0  0  0  0  0  0  0  0  0  0  0  0
  -20.5866   22.3345  -21.9675 N   0  0  0  0  0  0  0  0  0  0  0  0
  -21.3490   23.0282  -22.9197 C   0  0  0  0  0  0  0  0  0  0  0  0
  -22.2816   24.0145  -22.2110 C   0  0  0  0  0  0  0  0  0  0  0  0
  -22.8828   23.3241  -21.0865 N   0  0  0  0  0  0  0  0  0  0  0  0
  -23.8431   22.3325  -21.4523 C   0  0  0  0  0  0  0  0  0  0  0  0
  -21.9365   22.9316  -20.0928 C   0  0  0  0  0  0  0  0  0  0  0  0
  -20.5339   22.9803  -20.6952 C   0  0  0  0  0  0  0  0  0  0  0  0
  -17.4670   14.4312  -25.3983 C   0  0  0  0  0  0  0  0  0  0  0  0
  -18.3827   14.4512  -24.3272 O   0  0  0  0  0  0  0  0  0  0  0  0
 43 44  1  0  0  0
 44 24  1  0  0  0
 24 25  2  0  0  0
 25 26  1  0  0  0
 26 27  2  0  0  0
 27 28  1  0  0  0
 28 29  2  0  0  0
 29  1  1  0  0  0
  1  3  1  0  0  0
  3  4  2  0  0  0
  4  5  1  0  0  0
  5  6  2  0  0  0
  6  7  1  0  0  0
  6  8  1  0  0  0
  8 10  1  0  0  0
 10 12  1  0  0  0
 12 13  2  0  0  0
 13 14  1  0  0  0
 14 15  2  0  0  0
 15 16  1  0  0  0
 16 17  2  0  0  0
 17 18  1  0  0  0
 18 19  2  0  0  0
 18 20  2  0  0  0
 18 21  1  0  0  0
 21 22  1  0  0  0
 21 23  1  0  0  0
  8  9  2  0  0  0
 26 30  1  0  0  0
 30 31  1  0  0  0
 31 32  1  0  0  0
 32 33  1  0  0  0
 33 34  1  0  0  0
 34 35  1  0  0  0
 33 36  1  0  0  0
 36 37  1  0  0  0
 37 38  1  0  0  0
 38 39  1  0  0  0
 39 40  1  0  0  0
 39 41  1  0  0  0
 41 42  1  0  0  0
 29 24  1  0  0  0
  9  3  1  0  0  0
 35 30  1  0  0  0
 42 36  1  0  0  0
 17 12  1  0  0  0
  1  2  1  0  0  0
 10 11  1  0  0  0
M  END
> <minimizedAffinity>
-7.50485

> <CNNscore>
0.1650960445

> <CNNaffinity>
7.3433737755

> <CNN_VS>
1.2123619318

> <CNNaffinity_variance>
0.1867582500

$$$$
[H]c1nc(N([H])c2c([H])c([H])c(N3C([H])([H])C([H])([H])C([H])(N4C([H])([H])C([H])([H])N(C([H])([H])[H])C([H])([H])C4([H])[H])C([H])([H])C3([H])[H])c([H])c2OC([H])([H])[H])nc(N([H])c2c([H])c([H])c([H])c([H])c2S(=O)(=O)C([H])(C([H])([H])[H])C([H])([H])[H])c1Cl


 44 48  0  0  0  0  0  0  0  0999 V2000
  -19.4512   11.7318  -17.5466 N   0  0  0  0  0  0  0  0  0  0  0  0
  -19.8987   10.9038  -17.0124 H   0  0  0  0  0  0  0  0  0  0  0  0
  -18.4423   11.3967  -18.4881 C   0  0  0  0  0  0  0  0  0  0  0  0
  -17.6323   10.3366  -18.4328 N   0  0  0  0  0  0  0  0  0  0  0  0
  -16.7001   10.0787  -19.3585 C   0  0  0  0  0  0  0  0  0  0  0  0
  -16.5450   10.9273  -20.4294 C   0  0  0  0  0  0  0  0  0  0  0  0
  -15.3244   10.6042  -21.6568 Cl  0  0  0  0  0  0  0  0  0  0  0  0
  -17.3883   12.0547  -20.5114 C   0  0  0  0  0  0  0  0  0  0  0  0
  -18.2863   12.2247  -19.5390 N   0  0  0  0  0  0  0  0  0  0  0  0
  -17.2109   12.9034  -21.6148 N   0  0  0  0  0  0  0  0  0  0  0  0
  -17.3416   12.4260  -22.5667 H   0  0  0  0  0  0  0  0  0  0  0  0
  -16.8931   14.2673  -21.6995 C   0  0  0  0  0  0  0  0  0  0  0  0
  -17.1331   15.0996  -20.6267 C   0  0  0  0  0  0  0  0  0  0  0  0
  -16.8231   16.4639  -20.6961 C   0  0  0  0  0  0  0  0  0  0  0  0
  -16.2789   16.9616  -21.8420 C   0  0  0  0  0  0  0  0  0  0  0  0
  -16.0403   16.1282  -22.9113 C   0  0  0  0  0  0  0  0  0  0  0  0
  -16.3337   14.7902  -22.8707 C   0  0  0  0  0  0  0  0  0  0  0  0
  -16.0292   13.7651  -24.2111 S   0  0  0  0  0  0  0  0  0  0  0  0
  -15.3475   12.5025  -23.7472 O   0  0  0  0  0  0  0  0  0  0  0  0
  -15.1794   14.3772  -25.2893 O   0  0  0  0  0  0  0  0  0  0  0  0
  -17.5268   13.2352  -25.0202 C   0  0  0  0  0  0  0  0  0  0  0  0
  -18.5661   14.3077  -24.9712 C   0  0  0  0  0  0  0  0  0  0  0  0
  -17.2943   12.6295  -26.3641 C   0  0  0  0  0  0  0  0  0  0  0  0
  -21.0799   13.0505  -16.3716 C   0  0  0  0  0  0  0  0  0  0  0  0
  -21.6367   14.2583  -15.9930 C   0  0  0  0  0  0  0  0  0  0  0  0
  -21.1181   15.4618  -16.4163 C   0  0  0  0  0  0  0  0  0  0  0  0
  -20.0171   15.3952  -17.2351 C   0  0  0  0  0  0  0  0  0  0  0  0
  -19.4297   14.1915  -17.6370 C   0  0  0  0  0  0  0  0  0  0  0  0
  -19.9509   12.9954  -17.2121 C   0  0  0  0  0  0  0  0  0  0  0  0
  -21.7006   16.7033  -16.0102 N   0  0  0  0  0  0  0  0  0  0  0  0
  -22.9039   16.6698  -15.2517 C   0  0  0  0  0  0  0  0  0  0  0  0
  -23.2805   17.9483  -14.5573 C   0  0  0  0  0  0  0  0  0  0  0  0
  -23.0894   19.1772  -15.3809 C   0  0  0  0  0  0  0  0  0  0  0  0
  -22.2112   18.9460  -16.5944 C   0  0  0  0  0  0  0  0  0  0  0  0
  -21.1071   17.9737  -16.3522 C   0  0  0  0  0  0  0  0  0  0  0  0
  -22.6623   20.3448  -14.7191 N   0  0  0  0  0  0  0  0  0  0  0  0
  -22.1989   20.2598  -13.3972 C   0  0  0  0  0  0  0  0  0  0  0  0
  -22.1651   21.6582  -12.7742 C   0  0  0  0  0  0  0  0  0  0  0  0
  -21.5808   22.5613  -13.7466 N   0  0  0  0  0  0  0  0  0  0  0  0
  -20.1801   22.3749  -13.9528 C   0  0  0  0  0  0  0  0  0  0  0  0
  -22.3665   22.7030  -14.9297 C   0  0  0  0  0  0  0  0  0  0  0  0
  -23.3688   21.5529  -15.0017 C   0  0  0  0  0  0  0  0  0  0  0  0
  -21.5019   11.5333  -14.5501 C   0  0  0  0  0  0  0  0  0  0  0  0
  -21.6527   11.8760  -15.9088 O   0  0  0  0  0  0  0  0  0  0  0  0
 43 44  1  0  0  0
 44 24  1  0  0  0
 24 25  2  0  0  0
 25 26  1  0  0  0
 26 27  2  0  0  0
 27 28  1  0  0  0
 28 29  2  0  0  0
 29  1  1  0  0  0
  1  3  1  0  0  0
  3  4  2  0  0  0
  4  5  1  0  0  0
  5  6  2  0  0  0
  6  7  1  0  0  0
  6  8  1  0  0  0
  8 10  1  0  0  0
 10 12  1  0  0  0
 12 13  2  0  0  0
 13 14  1  0  0  0
 14 15  2  0  0  0
 15 16  1  0  0  0
 16 17  2  0  0  0
 17 18  1  0  0  0
 18 19  2  0  0  0
 18 20  2  0  0  0
 18 21  1  0  0  0
 21 22  1  0  0  0
 21 23  1  0  0  0
  8  9  2  0  0  0
 26 30  1  0  0  0
 30 31  1  0  0  0
 31 32  1  0  0  0
 32 33  1  0  0  0
 33 34  1  0  0  0
 34 35  1  0  0  0
 33 36  1  0  0  0
 36 37  1  0  0  0
 37 38  1  0  0  0
 38 39  1  0  0  0
 39 40  1  0  0  0
 39 41  1  0  0  0
 41 42  1  0  0  0
 29 24  1  0  0  0
  9  3  1  0  0  0
 35 30  1  0  0  0
 42 36  1  0  0  0
 17 12  1  0  0  0
  1  2  1  0  0  0
 10 11  1  0  0  0
M  END
> <minimizedAffinity>
-8.05115

> <CNNscore>
0.1642215550

> <CNNaffinity>
7.2557396889

> <CNN_VS>
1.1915488243

> <CNNaffinity_variance>
0.0626383424

$$$$
[H]c1nc(N([H])c2c([H])c([H])c(N3C([H])([H])C([H])([H])C([H])(N4C([H])([H])C([H])([H])N(C([H])([H])[H])C([H])([H])C4([H])[H])C([H])([H])C3([H])[H])c([H])c2OC([H])([H])[H])nc(N([H])c2c([H])c([H])c([H])c([H])c2S(=O)(=O)C([H])(C([H])([H])[H])C([H])([H])[H])c1Cl


 44 48  0  0  0  0  0  0  0  0999 V2000
  -17.3518   13.7697  -20.7270 N   0  0  0  0  0  0  0  0  0  0  0  0
  -16.6790   13.2575  -21.4025 H   0  0  0  0  0  0  0  0  0  0  0  0
  -17.5112   15.1644  -20.9414 C   0  0  0  0  0  0  0  0  0  0  0  0
  -16.5786   16.1025  -20.7582 N   0  0  0  0  0  0  0  0  0  0  0  0
  -16.7965   17.4045  -20.9816 C   0  0  0  0  0  0  0  0  0  0  0  0
  -18.0290   17.8272  -21.4212 C   0  0  0  0  0  0  0  0  0  0  0  0
  -18.3338   19.5355  -21.7205 Cl  0  0  0  0  0  0  0  0  0  0  0  0
  -19.0316   16.8562  -21.6226 C   0  0  0  0  0  0  0  0  0  0  0  0
  -18.7165   15.5838  -21.3720 N   0  0  0  0  0  0  0  0  0  0  0  0
  -20.2794   17.3136  -22.0732 N   0  0  0  0  0  0  0  0  0  0  0  0
  -20.3236   17.5159  -23.1259 H   0  0  0  0  0  0  0  0  0  0  0  0
  -21.4838   17.5546  -21.3950 C   0  0  0  0  0  0  0  0  0  0  0  0
  -21.6606   17.0794  -20.1128 C   0  0  0  0  0  0  0  0  0  0  0  0
  -22.8578   17.3101  -19.4229 C   0  0  0  0  0  0  0  0  0  0  0  0
  -23.8506   18.0131  -20.0368 C   0  0  0  0  0  0  0  0  0  0  0  0
  -23.6710   18.4864  -21.3169 C   0  0  0  0  0  0  0  0  0  0  0  0
  -22.5106   18.2755  -22.0146 C   0  0  0  0  0  0  0  0  0  0  0  0
  -22.3022   18.8729  -23.6083 S   0  0  0  0  0  0  0  0  0  0  0  0
  -22.3385   17.7314  -24.5932 O   0  0  0  0  0  0  0  0  0  0  0  0
  -21.0247   19.6327  -23.8319 O   0  0  0  0  0  0  0  0  0  0  0  0
  -23.6124   19.9768  -24.1011 C   0  0  0  0  0  0  0  0  0  0  0  0
  -23.1422   21.3951  -24.0986 C   0  0  0  0  0  0  0  0  0  0  0  0
  -24.3243   19.5403  -25.3379 C   0  0  0  0  0  0  0  0  0  0  0  0
  -17.4307   11.6629  -19.5750 C   0  0  0  0  0  0  0  0  0  0  0  0
  -17.9637   10.7987  -18.6362 C   0  0  0  0  0  0  0  0  0  0  0  0
  -19.0231   11.1606  -17.8343 C   0  0  0  0  0  0  0  0  0  0  0  0
  -19.5205   12.4277  -18.0190 C   0  0  0  0  0  0  0  0  0  0  0  0
  -19.0056   13.3262  -18.9587 C   0  0  0  0  0  0  0  0  0  0  0  0
  -17.9499   12.9599  -19.7551 C   0  0  0  0  0  0  0  0  0  0  0  0
  -19.5588   10.2582  -16.8625 N   0  0  0  0  0  0  0  0  0  0  0  0
  -20.7746   10.6086  -16.2120 C   0  0  0  0  0  0  0  0  0  0  0  0
  -21.4732    9.4980  -15.4790 C   0  0  0  0  0  0  0  0  0  0  0  0
  -20.5673    8.6155  -14.6879 C   0  0  0  0  0  0  0  0  0  0  0  0
  -19.1090    8.7678  -15.0714 C   0  0  0  0  0  0  0  0  0  0  0  0
  -18.9003    9.0187  -16.5263 C   0  0  0  0  0  0  0  0  0  0  0  0
  -20.8860    7.2451  -14.6238 N   0  0  0  0  0  0  0  0  0  0  0  0
  -22.2321    6.8484  -14.6092 C   0  0  0  0  0  0  0  0  0  0  0  0
  -22.3326    5.3903  -14.1526 C   0  0  0  0  0  0  0  0  0  0  0  0
  -21.3074    4.6374  -14.8489 N   0  0  0  0  0  0  0  0  0  0  0  0
  -21.5596    4.4528  -16.2423 C   0  0  0  0  0  0  0  0  0  0  0  0
  -19.9811    5.0403  -14.5086 C   0  0  0  0  0  0  0  0  0  0  0  0
  -20.0347    6.4112  -13.8374 C   0  0  0  0  0  0  0  0  0  0  0  0
  -16.2809    9.8713  -20.6998 C   0  0  0  0  0  0  0  0  0  0  0  0
  -16.3640   11.2337  -20.3493 O   0  0  0  0  0  0  0  0  0  0  0  0
 43 44  1  0  0  0
 44 24  1  0  0  0
 24 25  2  0  0  0
 25 26  1  0  0  0
 26 27  2  0  0  0
 27 28  1  0  0  0
 28 29  2  0  0  0
 29  1  1  0  0  0
  1  3  1  0  0  0
  3  4  2  0  0  0
  4  5  1  0  0  0
  5  6  2  0  0  0
  6  7  1  0  0  0
  6  8  1  0  0  0
  8 10  1  0  0  0
 10 12  1  0  0  0
 12 13  2  0  0  0
 13 14  1  0  0  0
 14 15  2  0  0  0
 15 16  1  0  0  0
 16 17  2  0  0  0
 17 18  1  0  0  0
 18 19  2  0  0  0
 18 20  2  0  0  0
 18 21  1  0  0  0
 21 22  1  0  0  0
 21 23  1  0  0  0
  8  9  2  0  0  0
 26 30  1  0  0  0
 30 31  1  0  0  0
 31 32  1  0  0  0
 32 33  1  0  0  0
 33 34  1  0  0  0
 34 35  1  0  0  0
 33 36  1  0  0  0
 36 37  1  0  0  0
 37 38  1  0  0  0
 38 39  1  0  0  0
 39 40  1  0  0  0
 39 41  1  0  0  0
 41 42  1  0  0  0
 29 24  1  0  0  0
  9  3  1  0  0  0
 35 30  1  0  0  0
 42 36  1  0  0  0
 17 12  1  0  0  0
  1  2  1  0  0  0
 10 11  1  0  0  0
M  END
> <minimizedAffinity>
-8.45325

> <CNNscore>
0.1557455361

> <CNNaffinity>
6.9069914818

> <CNN_VS>
1.0757330656

> <CNNaffinity_variance>
0.1915616393

$$$$
[H]N=C(N([H])[H])N([H])C([H])([H])C([H])([H])C([H])([H])[C@@]([H])(C(=O)N([H])[C@]([H])(C(=O)c1nc([H])c([H])s1)C([H])([H])C([H])([H])C(=O)N([H])[H])N([H])C(=O)[C@@]1([H])N(C(=O)[C@]([H])(N([H])C(=O)OC([H])([H])c2c([H])c([H])c([H])c([H])c2[H])C([H])([H])c2c([H])c([H])c([H])c([H])c2[H])C([H])([H])C([H])([H])C1([H])[H]


 62 65  0  0  0  0  0  0  0  0999 V2000
  -20.6433   13.3734  -16.0465 C   0  0  0  0  0  0  0  0  0  0  0  0
  -20.3701   12.0277  -16.5633 C   0  0  0  0  0  0  0  0  0  0  0  0
  -21.4143   11.3177  -16.8956 O   0  0  0  0  0  0  0  0  0  0  0  0
  -19.1330   11.3957  -16.7490 N   0  0  0  0  0  0  0  0  0  0  0  0
  -18.1995   11.7684  -16.5518 H   0  0  0  0  0  0  0  0  0  0  0  0
  -19.0873    9.9985  -17.3099 C   0  0  0  0  0  0  0  0  0  0  0  0
  -19.0114    9.1285  -16.1245 C   0  0  0  0  0  0  0  0  0  0  0  0
  -18.3858    7.9882  -16.3616 O   0  0  0  0  0  0  0  0  0  0  0  0
  -19.4875    9.2633  -14.7621 C   0  0  0  0  0  0  0  0  0  0  0  0
  -19.0680    9.8405  -13.6701 N   0  0  0  0  0  0  0  0  0  0  0  0
  -19.6857    9.8116  -12.5548 C   0  0  0  0  0  0  0  0  0  0  0  0
  -20.8931    9.1023  -12.5430 C   0  0  0  0  0  0  0  0  0  0  0  0
  -20.9809    8.5681  -14.1439 S   0  0  0  0  0  0  0  0  0  0  0  0
  -17.9885    9.8890  -18.2528 C   0  0  0  0  0  0  0  0  0  0  0  0
  -17.4350   11.1319  -18.8600 C   0  0  0  0  0  0  0  0  0  0  0  0
  -16.8717   10.7965  -20.2060 C   0  0  0  0  0  0  0  0  0  0  0  0
  -17.3196   11.5184  -21.3246 N   0  0  0  0  0  0  0  0  0  0  0  0
  -16.0286    9.8960  -20.3040 O   0  0  0  0  0  0  0  0  0  0  0  0
  -18.2526   11.2328  -21.7461 H   0  0  0  0  0  0  0  0  0  0  0  0
  -16.8041   12.2950  -21.7566 H   0  0  0  0  0  0  0  0  0  0  0  0
  -20.2975   14.3822  -17.1254 N   0  0  0  0  0  0  0  0  0  0  0  0
  -19.0116   14.8638  -17.3062 C   0  0  0  0  0  0  0  0  0  0  0  0
  -18.1385   14.3443  -16.4273 O   0  0  0  0  0  0  0  0  0  0  0  0
  -21.0827   14.6760  -17.6928 H   0  0  0  0  0  0  0  0  0  0  0  0
  -18.4459   15.7826  -18.2174 C   0  0  0  0  0  0  0  0  0  0  0  0
  -19.2041   17.1507  -17.9744 C   0  0  0  0  0  0  0  0  0  0  0  0
  -18.7219   18.0400  -19.0594 C   0  0  0  0  0  0  0  0  0  0  0  0
  -17.6310   17.1937  -19.7336 C   0  0  0  0  0  0  0  0  0  0  0  0
  -18.3162   15.8264  -19.5900 N   0  0  0  0  0  0  0  0  0  0  0  0
  -18.5982   15.1200  -20.7819 C   0  0  0  0  0  0  0  0  0  0  0  0
  -19.2476   14.0768  -20.7718 O   0  0  0  0  0  0  0  0  0  0  0  0
  -18.1082   15.6337  -22.0675 C   0  0  0  0  0  0  0  0  0  0  0  0
  -19.0919   16.5501  -22.7243 N   0  0  0  0  0  0  0  0  0  0  0  0
  -18.6176   17.7884  -23.2064 C   0  0  0  0  0  0  0  0  0  0  0  0
  -17.4500   18.1356  -23.0939 O   0  0  0  0  0  0  0  0  0  0  0  0
  -20.0909   16.3073  -22.8322 H   0  0  0  0  0  0  0  0  0  0  0  0
  -19.5164   18.6601  -23.8459 O   0  0  0  0  0  0  0  0  0  0  0  0
  -20.7823   18.8878  -23.2102 C   0  0  0  0  0  0  0  0  0  0  0  0
  -21.8384   18.7940  -24.1916 C   0  0  0  0  0  0  0  0  0  0  0  0
  -22.2172   19.9349  -24.8930 C   0  0  0  0  0  0  0  0  0  0  0  0
  -23.2130   19.9080  -25.8655 C   0  0  0  0  0  0  0  0  0  0  0  0
  -23.8408   18.6967  -26.1344 C   0  0  0  0  0  0  0  0  0  0  0  0
  -23.4793   17.5619  -25.4524 C   0  0  0  0  0  0  0  0  0  0  0  0
  -22.4895   17.6342  -24.4980 C   0  0  0  0  0  0  0  0  0  0  0  0
  -17.9505   14.4924  -23.0870 C   0  0  0  0  0  0  0  0  0  0  0  0
  -16.7996   14.6603  -23.9763 C   0  0  0  0  0  0  0  0  0  0  0  0
  -15.5467   14.5502  -23.4397 C   0  0  0  0  0  0  0  0  0  0  0  0
  -14.4245   14.6924  -24.2061 C   0  0  0  0  0  0  0  0  0  0  0  0
  -14.5411   14.9564  -25.5674 C   0  0  0  0  0  0  0  0  0  0  0  0
  -15.8125   15.0639  -26.0849 C   0  0  0  0  0  0  0  0  0  0  0  0
  -16.9397   14.9187  -25.3037 C   0  0  0  0  0  0  0  0  0  0  0  0
  -21.9178   13.7173  -15.4638 C   0  0  0  0  0  0  0  0  0  0  0  0
  -22.5469   15.0110  -15.4859 C   0  0  0  0  0  0  0  0  0  0  0  0
  -22.2520   16.1933  -14.6913 C   0  0  0  0  0  0  0  0  0  0  0  0
  -20.9628   16.6878  -14.4785 N   0  0  0  0  0  0  0  0  0  0  0  0
  -20.1664   15.9278  -14.5549 H   0  0  0  0  0  0  0  0  0  0  0  0
  -21.0881   19.1307  -14.7376 N   0  0  0  0  0  0  0  0  0  0  0  0
  -20.4913   17.9770  -14.1917 C   0  0  0  0  0  0  0  0  0  0  0  0
  -19.4766   18.1627  -13.4134 N   0  0  0  0  0  0  0  0  0  0  0  0
  -21.4204   19.1165  -15.7482 H   0  0  0  0  0  0  0  0  0  0  0  0
  -21.2291   20.0072  -14.2217 H   0  0  0  0  0  0  0  0  0  0  0  0
  -18.9613   17.3792  -12.9567 H   0  0  0  0  0  0  0  0  0  0  0  0
 57 58  1  0  0  0
 58 59  2  0  0  0
 58 55  1  0  0  0
 55 54  1  0  0  0
 54 53  1  0  0  0
 53 52  1  0  0  0
 52  1  1  0  0  0
  1 21  1  0  0  0
 21 22  1  0  0  0
 22 23  2  0  0  0
 22 25  1  0  0  0
 25 26  1  0  0  0
 26 27  1  0  0  0
 27 28  1  0  0  0
 28 29  1  0  0  0
 29 30  1  0  0  0
 30 31  2  0  0  0
 30 32  1  0  0  0
 32 45  1  0  0  0
 45 46  1  0  0  0
 46 47  2  0  0  0
 47 48  1  0  0  0
 48 49  2  0  0  0
 49 50  1  0  0  0
 50 51  2  0  0  0
 32 33  1  0  0  0
 33 34  1  0  0  0
 34 35  2  0  0  0
 34 37  1  0  0  0
 37 38  1  0  0  0
 38 39  1  0  0  0
 39 40  2  0  0  0
 40 41  1  0  0  0
 41 42  2  0  0  0
 42 43  1  0  0  0
 43 44  2  0  0  0
  1  2  1  0  0  0
  2  3  2  0  0  0
  2  4  1  0  0  0
  4  6  1  0  0  0
  6 14  1  0  0  0
 14 15  1  0  0  0
 15 16  1  0  0  0
 16 17  1  0  0  0
 16 18  2  0  0  0
  6  7  1  0  0  0
  7  8  2  0  0  0
  7  9  1  0  0  0
  9 10  2  0  0  0
 10 11  1  0  0  0
 11 12  2  0  0  0
 12 13  1  0  0  0
 29 25  1  0  0  0
 51 46  1  0  0  0
 44 39  1  0  0  0
 13  9  1  0  0  0
 57 60  1  0  0  0
 57 61  1  0  0  0
 59 62  1  0  0  0
 55 56  1  0  0  0
 21 24  1  0  0  0
 33 36  1  0  0  0
  4  5  1  0  0  0
 17 19  1  0  0  0
 17 20  1  0  0  0
M  END
> <minimizedAffinity>
-8.54602

> <CNNscore>
0.5794920325

> <CNNaffinity>
8.0540904999

> <CNN_VS>
4.6672811508

> <CNNaffinity_variance>
0.0496944971

$$$$
[H]N=C(N([H])[H])N([H])C([H])([H])C([H])([H])C([H])([H])[C@@]([H])(C(=O)N([H])[C@]([H])(C(=O)c1nc([H])c([H])s1)C([H])([H])C([H])([H])C(=O)N([H])[H])N([H])C(=O)[C@@]1([H])N(C(=O)[C@]([H])(N([H])C(=O)OC([H])([H])c2c([H])c([H])c([H])c([H])c2[H])C([H])([H])c2c([H])c([H])c([H])c([H])c2[H])C([H])([H])C([H])([H])C1([H])[H]


 62 65  0  0  0  0  0  0  0  0999 V2000
  -17.3463   12.5676  -19.2855 C   0  0  0  0  0  0  0  0  0  0  0  0
  -17.6131   12.7408  -20.7178 C   0  0  0  0  0  0  0  0  0  0  0  0
  -18.5098   11.9448  -21.2348 O   0  0  0  0  0  0  0  0  0  0  0  0
  -17.0319   13.6492  -21.6129 N   0  0  0  0  0  0  0  0  0  0  0  0
  -16.3132   14.3527  -21.4184 H   0  0  0  0  0  0  0  0  0  0  0  0
  -17.4701   13.6586  -23.0540 C   0  0  0  0  0  0  0  0  0  0  0  0
  -16.2268   13.4619  -23.8178 C   0  0  0  0  0  0  0  0  0  0  0  0
  -15.5875   12.3536  -23.4850 O   0  0  0  0  0  0  0  0  0  0  0  0
  -15.5614   14.2354  -24.8474 C   0  0  0  0  0  0  0  0  0  0  0  0
  -14.3832   14.7712  -25.0098 N   0  0  0  0  0  0  0  0  0  0  0  0
  -14.0262   15.4319  -26.0406 C   0  0  0  0  0  0  0  0  0  0  0  0
  -14.9933   15.5685  -27.0442 C   0  0  0  0  0  0  0  0  0  0  0  0
  -16.2937   14.7256  -26.3701 S   0  0  0  0  0  0  0  0  0  0  0  0
  -18.2025   14.8812  -23.3314 C   0  0  0  0  0  0  0  0  0  0  0  0
  -17.9869   16.0643  -22.4517 C   0  0  0  0  0  0  0  0  0  0  0  0
  -16.9594   16.9500  -23.0853 C   0  0  0  0  0  0  0  0  0  0  0  0
  -17.2937   17.6360  -24.2644 N   0  0  0  0  0  0  0  0  0  0  0  0
  -15.8443   17.0584  -22.5598 O   0  0  0  0  0  0  0  0  0  0  0  0
  -17.2493   17.0890  -25.1747 H   0  0  0  0  0  0  0  0  0  0  0  0
  -17.5723   18.6242  -24.2999 H   0  0  0  0  0  0  0  0  0  0  0  0
  -18.5456   13.0761  -18.5080 N   0  0  0  0  0  0  0  0  0  0  0  0
  -18.8233   14.4260  -18.3716 C   0  0  0  0  0  0  0  0  0  0  0  0
  -17.9193   15.2032  -18.9909 O   0  0  0  0  0  0  0  0  0  0  0  0
  -19.1171   12.3497  -18.0950 H   0  0  0  0  0  0  0  0  0  0  0  0
  -19.8529   15.1366  -17.7163 C   0  0  0  0  0  0  0  0  0  0  0  0
  -21.0291   14.0974  -17.5115 C   0  0  0  0  0  0  0  0  0  0  0  0
  -22.1559   14.9101  -16.9912 C   0  0  0  0  0  0  0  0  0  0  0  0
  -21.5141   16.2913  -16.7883 C   0  0  0  0  0  0  0  0  0  0  0  0
  -20.5866   16.2666  -18.0125 N   0  0  0  0  0  0  0  0  0  0  0  0
  -20.7676   17.2843  -18.9772 C   0  0  0  0  0  0  0  0  0  0  0  0
  -20.1536   17.2766  -20.0417 O   0  0  0  0  0  0  0  0  0  0  0  0
  -21.7071   18.3816  -18.7125 C   0  0  0  0  0  0  0  0  0  0  0  0
  -22.3627   18.8808  -19.9613 N   0  0  0  0  0  0  0  0  0  0  0  0
  -23.6527   18.3971  -20.2661 C   0  0  0  0  0  0  0  0  0  0  0  0
  -24.2359   17.5860  -19.5601 O   0  0  0  0  0  0  0  0  0  0  0  0
  -21.9061   19.5566  -20.5964 H   0  0  0  0  0  0  0  0  0  0  0  0
  -24.3002   18.8652  -21.4230 O   0  0  0  0  0  0  0  0  0  0  0  0
  -23.5582   19.7346  -22.2901 C   0  0  0  0  0  0  0  0  0  0  0  0
  -23.5813   19.2081  -23.6353 C   0  0  0  0  0  0  0  0  0  0  0  0
  -23.4053   17.8417  -23.8330 C   0  0  0  0  0  0  0  0  0  0  0  0
  -23.4368   17.2684  -25.1012 C   0  0  0  0  0  0  0  0  0  0  0  0
  -23.6516   18.0984  -26.1960 C   0  0  0  0  0  0  0  0  0  0  0  0
  -23.8276   19.4480  -26.0190 C   0  0  0  0  0  0  0  0  0  0  0  0
  -23.7881   19.9730  -24.7467 C   0  0  0  0  0  0  0  0  0  0  0  0
  -20.9645   19.6199  -18.1817 C   0  0  0  0  0  0  0  0  0  0  0  0
  -21.2956   19.9476  -16.7937 C   0  0  0  0  0  0  0  0  0  0  0  0
  -20.3574   19.7008  -15.8299 C   0  0  0  0  0  0  0  0  0  0  0  0
  -20.5922   19.9814  -14.5135 C   0  0  0  0  0  0  0  0  0  0  0  0
  -21.8105   20.5316  -14.1265 C   0  0  0  0  0  0  0  0  0  0  0  0
  -22.7397   20.7703  -15.1141 C   0  0  0  0  0  0  0  0  0  0  0  0
  -22.4939   20.4840  -16.4406 C   0  0  0  0  0  0  0  0  0  0  0  0
  -16.9285   11.2985  -18.7403 C   0  0  0  0  0  0  0  0  0  0  0  0
  -17.7350   10.1135  -18.6177 C   0  0  0  0  0  0  0  0  0  0  0  0
  -18.6246    9.7111  -17.5393 C   0  0  0  0  0  0  0  0  0  0  0  0
  -18.4034    8.6021  -16.7190 N   0  0  0  0  0  0  0  0  0  0  0  0
  -17.4991    8.0228  -16.9726 H   0  0  0  0  0  0  0  0  0  0  0  0
  -18.8028    8.4423  -14.2971 N   0  0  0  0  0  0  0  0  0  0  0  0
  -19.1165    8.0909  -15.6251 C   0  0  0  0  0  0  0  0  0  0  0  0
  -20.0954    7.2636  -15.7895 N   0  0  0  0  0  0  0  0  0  0  0  0
  -17.7825    8.5398  -14.0115 H   0  0  0  0  0  0  0  0  0  0  0  0
  -19.5016    8.6145  -13.5649 H   0  0  0  0  0  0  0  0  0  0  0  0
  -20.4107    6.9375  -16.7287 H   0  0  0  0  0  0  0  0  0  0  0  0
 57 58  1  0  0  0
 58 59  2  0  0  0
 58 55  1  0  0  0
 55 54  1  0  0  0
 54 53  1  0  0  0
 53 52  1  0  0  0
 52  1  1  0  0  0
  1 21  1  0  0  0
 21 22  1  0  0  0
 22 23  2  0  0  0
 22 25  1  0  0  0
 25 26  1  0  0  0
 26 27  1  0  0  0
 27 28  1  0  0  0
 28 29  1  0  0  0
 29 30  1  0  0  0
 30 31  2  0  0  0
 30 32  1  0  0  0
 32 45  1  0  0  0
 45 46  1  0  0  0
 46 47  2  0  0  0
 47 48  1  0  0  0
 48 49  2  0  0  0
 49 50  1  0  0  0
 50 51  2  0  0  0
 32 33  1  0  0  0
 33 34  1  0  0  0
 34 35  2  0  0  0
 34 37  1  0  0  0
 37 38  1  0  0  0
 38 39  1  0  0  0
 39 40  2  0  0  0
 40 41  1  0  0  0
 41 42  2  0  0  0
 42 43  1  0  0  0
 43 44  2  0  0  0
  1  2  1  0  0  0
  2  3  2  0  0  0
  2  4  1  0  0  0
  4  6  1  0  0  0
  6 14  1  0  0  0
 14 15  1  0  0  0
 15 16  1  0  0  0
 16 17  1  0  0  0
 16 18  2  0  0  0
  6  7  1  0  0  0
  7  8  2  0  0  0
  7  9  1  0  0  0
  9 10  2  0  0  0
 10 11  1  0  0  0
 11 12  2  0  0  0
 12 13  1  0  0  0
 29 25  1  0  0  0
 51 46  1  0  0  0
 44 39  1  0  0  0
 13  9  1  0  0  0
 57 60  1  0  0  0
 57 61  1  0  0  0
 59 62  1  0  0  0
 55 56  1  0  0  0
 21 24  1  0  0  0
 33 36  1  0  0  0
  4  5  1  0  0  0
 17 19  1  0  0  0
 17 20  1  0  0  0
M  END
> <minimizedAffinity>
-8.06204

> <CNNscore>
0.3637642860

> <CNNaffinity>
7.8897180557

> <CNN_VS>
2.8699977398

> <CNNaffinity_variance>
0.4381906986

$$$$
[H]N=C(N([H])[H])N([H])C([H])([H])C([H])([H])C([H])([H])[C@@]([H])(C(=O)N([H])[C@]([H])(C(=O)c1nc([H])c([H])s1)C([H])([H])C([H])([H])C(=O)N([H])[H])N([H])C(=O)[C@@]1([H])N(C(=O)[C@]([H])(N([H])C(=O)OC([H])([H])c2c([H])c([H])c([H])c([H])c2[H])C([H])([H])c2c([H])c([H])c([H])c([H])c2[H])C([H])([H])C([H])([H])C1([H])[H]


 62 65  0  0  0  0  0  0  0  0999 V2000
  -20.6568   12.2971  -17.0167 C   0  0  0  0  0  0  0  0  0  0  0  0
  -21.3122   13.0275  -15.9261 C   0  0  0  0  0  0  0  0  0  0  0  0
  -21.2579   12.4686  -14.7473 O   0  0  0  0  0  0  0  0  0  0  0  0
  -21.9942   14.2508  -15.9776 N   0  0  0  0  0  0  0  0  0  0  0  0
  -22.1548   14.8485  -16.7938 H   0  0  0  0  0  0  0  0  0  0  0  0
  -22.5863   14.8269  -14.7181 C   0  0  0  0  0  0  0  0  0  0  0  0
  -24.0401   14.6686  -14.8892 C   0  0  0  0  0  0  0  0  0  0  0  0
  -24.5335   13.6578  -14.1944 O   0  0  0  0  0  0  0  0  0  0  0  0
  -25.0322   15.3854  -15.6657 C   0  0  0  0  0  0  0  0  0  0  0  0
  -25.0319   16.3907  -16.4969 N   0  0  0  0  0  0  0  0  0  0  0  0
  -26.0729   16.8557  -17.0683 C   0  0  0  0  0  0  0  0  0  0  0  0
  -27.2788   16.2156  -16.7564 C   0  0  0  0  0  0  0  0  0  0  0  0
  -26.7542   15.0248  -15.6780 S   0  0  0  0  0  0  0  0  0  0  0  0
  -22.1099   16.1862  -14.5346 C   0  0  0  0  0  0  0  0  0  0  0  0
  -21.4814   16.8900  -15.6876 C   0  0  0  0  0  0  0  0  0  0  0  0
  -20.4425   17.8324  -15.1638 C   0  0  0  0  0  0  0  0  0  0  0  0
  -19.9171   17.6125  -13.8799 N   0  0  0  0  0  0  0  0  0  0  0  0
  -20.0711   18.7792  -15.8687 O   0  0  0  0  0  0  0  0  0  0  0  0
  -20.4990   17.9407  -13.0533 H   0  0  0  0  0  0  0  0  0  0  0  0
  -19.0129   17.1613  -13.6941 H   0  0  0  0  0  0  0  0  0  0  0  0
  -20.1504   13.3030  -18.0331 N   0  0  0  0  0  0  0  0  0  0  0  0
  -19.0157   14.0675  -17.8184 C   0  0  0  0  0  0  0  0  0  0  0  0
  -18.4428   13.8168  -16.6295 O   0  0  0  0  0  0  0  0  0  0  0  0
  -20.7127   13.3717  -18.8721 H   0  0  0  0  0  0  0  0  0  0  0  0
  -18.3535   15.0472  -18.5905 C   0  0  0  0  0  0  0  0  0  0  0  0
  -19.0400   16.4240  -18.2184 C   0  0  0  0  0  0  0  0  0  0  0  0
  -18.4544   17.3998  -19.1700 C   0  0  0  0  0  0  0  0  0  0  0  0
  -17.3845   16.5685  -19.8946 C   0  0  0  0  0  0  0  0  0  0  0  0
  -18.1556   15.2409  -19.9419 N   0  0  0  0  0  0  0  0  0  0  0  0
  -18.4214   14.6967  -21.2195 C   0  0  0  0  0  0  0  0  0  0  0  0
  -19.1313   13.7035  -21.3594 O   0  0  0  0  0  0  0  0  0  0  0  0
  -17.8408   15.3229  -22.4143 C   0  0  0  0  0  0  0  0  0  0  0  0
  -18.8080   16.2315  -23.1055 N   0  0  0  0  0  0  0  0  0  0  0  0
  -18.4491   17.5885  -23.2488 C   0  0  0  0  0  0  0  0  0  0  0  0
  -17.3958   18.0401  -22.8209 O   0  0  0  0  0  0  0  0  0  0  0  0
  -19.7154   15.9003  -23.4734 H   0  0  0  0  0  0  0  0  0  0  0  0
  -19.3305   18.4600  -23.9123 O   0  0  0  0  0  0  0  0  0  0  0  0
  -20.2282   19.2343  -23.1041 C   0  0  0  0  0  0  0  0  0  0  0  0
  -21.4821   18.5301  -22.9664 C   0  0  0  0  0  0  0  0  0  0  0  0
  -21.8346   18.0068  -21.7259 C   0  0  0  0  0  0  0  0  0  0  0  0
  -23.0370   17.3355  -21.5215 C   0  0  0  0  0  0  0  0  0  0  0  0
  -23.9037   17.1904  -22.5992 C   0  0  0  0  0  0  0  0  0  0  0  0
  -23.5720   17.7008  -23.8293 C   0  0  0  0  0  0  0  0  0  0  0  0
  -22.3719   18.3571  -23.9869 C   0  0  0  0  0  0  0  0  0  0  0  0
  -17.5205   14.2650  -23.4842 C   0  0  0  0  0  0  0  0  0  0  0  0
  -16.4268   14.6518  -24.3774 C   0  0  0  0  0  0  0  0  0  0  0  0
  -15.1467   14.5741  -23.9029 C   0  0  0  0  0  0  0  0  0  0  0  0
  -14.0741   14.9161  -24.6772 C   0  0  0  0  0  0  0  0  0  0  0  0
  -14.2711   15.3566  -25.9825 C   0  0  0  0  0  0  0  0  0  0  0  0
  -15.5686   15.4275  -26.4377 C   0  0  0  0  0  0  0  0  0  0  0  0
  -16.6453   15.0801  -25.6491 C   0  0  0  0  0  0  0  0  0  0  0  0
  -19.6279   11.3178  -16.7623 C   0  0  0  0  0  0  0  0  0  0  0  0
  -18.9453   10.5196  -17.7456 C   0  0  0  0  0  0  0  0  0  0  0  0
  -17.5441   10.5370  -18.1360 C   0  0  0  0  0  0  0  0  0  0  0  0
  -17.0396    9.8765  -19.2589 N   0  0  0  0  0  0  0  0  0  0  0  0
  -16.9779    8.7799  -19.1514 H   0  0  0  0  0  0  0  0  0  0  0  0
  -17.3451   11.2840  -21.2530 N   0  0  0  0  0  0  0  0  0  0  0  0
  -16.6019   10.3499  -20.5043 C   0  0  0  0  0  0  0  0  0  0  0  0
  -15.4925    9.9410  -21.0255 N   0  0  0  0  0  0  0  0  0  0  0  0
  -18.4054   11.2011  -21.2838 H   0  0  0  0  0  0  0  0  0  0  0  0
  -16.9307   12.0575  -21.7860 H   0  0  0  0  0  0  0  0  0  0  0  0
  -14.8658    9.2514  -20.5568 H   0  0  0  0  0  0  0  0  0  0  0  0
 57 58  1  0  0  0
 58 59  2  0  0  0
 58 55  1  0  0  0
 55 54  1  0  0  0
 54 53  1  0  0  0
 53 52  1  0  0  0
 52  1  1  0  0  0
  1 21  1  0  0  0
 21 22  1  0  0  0
 22 23  2  0  0  0
 22 25  1  0  0  0
 25 26  1  0  0  0
 26 27  1  0  0  0
 27 28  1  0  0  0
 28 29  1  0  0  0
 29 30  1  0  0  0
 30 31  2  0  0  0
 30 32  1  0  0  0
 32 45  1  0  0  0
 45 46  1  0  0  0
 46 47  2  0  0  0
 47 48  1  0  0  0
 48 49  2  0  0  0
 49 50  1  0  0  0
 50 51  2  0  0  0
 32 33  1  0  0  0
 33 34  1  0  0  0
 34 35  2  0  0  0
 34 37  1  0  0  0
 37 38  1  0  0  0
 38 39  1  0  0  0
 39 40  2  0  0  0
 40 41  1  0  0  0
 41 42  2  0  0  0
 42 43  1  0  0  0
 43 44  2  0  0  0
  1  2  1  0  0  0
  2  3  2  0  0  0
  2  4  1  0  0  0
  4  6  1  0  0  0
  6 14  1  0  0  0
 14 15  1  0  0  0
 15 16  1  0  0  0
 16 17  1  0  0  0
 16 18  2  0  0  0
  6  7  1  0  0  0
  7  8  2  0  0  0
  7  9  1  0  0  0
  9 10  2  0  0  0
 10 11  1  0  0  0
 11 12  2  0  0  0
 12 13  1  0  0  0
 29 25  1  0  0  0
 51 46  1  0  0  0
 44 39  1  0  0  0
 13  9  1  0  0  0
 57 60  1  0  0  0
 57 61  1  0  0  0
 59 62  1  0  0  0
 55 56  1  0  0  0
 21 24  1  0  0  0
 33 36  1  0  0  0
  4  5  1  0  0  0
 17 19  1  0  0  0
 17 20  1  0  0  0
M  END
> <minimizedAffinity>
-8.04501

> <CNNscore>
0.2124243975

> <CNNaffinity>
7.7016515732

> <CNN_VS>
1.6360187531

> <CNNaffinity_variance>
0.1427488029

$$$$
[H]N=C(N([H])[H])N([H])C([H])([H])C([H])([H])C([H])([H])[C@@]([H])(C(=O)N([H])[C@]([H])(C(=O)c1nc([H])c([H])s1)C([H])([H])C([H])([H])C(=O)N([H])[H])N([H])C(=O)[C@@]1([H])N(C(=O)[C@]([H])(N([H])C(=O)OC([H])([H])c2c([H])c([H])c([H])c([H])c2[H])C([H])([H])c2c([H])c([H])c([H])c([H])c2[H])C([H])([H])C([H])([H])C1([H])[H]


 62 65  0  0  0  0  0  0  0  0999 V2000
  -20.3539   15.1912  -16.5484 C   0  0  0  0  0  0  0  0  0  0  0  0
  -19.5323   14.0426  -16.9465 C   0  0  0  0  0  0  0  0  0  0  0  0
  -18.2575   14.1283  -16.6773 O   0  0  0  0  0  0  0  0  0  0  0  0
  -19.9316   12.8589  -17.5816 N   0  0  0  0  0  0  0  0  0  0  0  0
  -20.8740   12.5918  -17.8811 H   0  0  0  0  0  0  0  0  0  0  0  0
  -18.9084   11.7972  -17.8895 C   0  0  0  0  0  0  0  0  0  0  0  0
  -18.6140   11.9741  -19.3212 C   0  0  0  0  0  0  0  0  0  0  0  0
  -19.5469   12.6613  -19.9579 O   0  0  0  0  0  0  0  0  0  0  0  0
  -17.5213   11.5435  -20.1707 C   0  0  0  0  0  0  0  0  0  0  0  0
  -17.0447   11.8819  -21.3369 N   0  0  0  0  0  0  0  0  0  0  0  0
  -16.0389   11.3299  -21.8938 C   0  0  0  0  0  0  0  0  0  0  0  0
  -15.4323   10.2946  -21.1718 C   0  0  0  0  0  0  0  0  0  0  0  0
  -16.3925   10.2512  -19.7818 S   0  0  0  0  0  0  0  0  0  0  0  0
  -19.4247   10.4971  -17.5003 C   0  0  0  0  0  0  0  0  0  0  0  0
  -19.7939   10.2669  -16.0753 C   0  0  0  0  0  0  0  0  0  0  0  0
  -18.9361    9.1671  -15.5310 C   0  0  0  0  0  0  0  0  0  0  0  0
  -18.2477    8.3385  -16.4322 N   0  0  0  0  0  0  0  0  0  0  0  0
  -18.8522    9.0125  -14.3060 O   0  0  0  0  0  0  0  0  0  0  0  0
  -18.7997    7.5551  -16.8918 H   0  0  0  0  0  0  0  0  0  0  0  0
  -17.2532    8.4411  -16.6688 H   0  0  0  0  0  0  0  0  0  0  0  0
  -20.3564   16.1973  -17.6837 N   0  0  0  0  0  0  0  0  0  0  0  0
  -19.4813   17.2698  -17.7266 C   0  0  0  0  0  0  0  0  0  0  0  0
  -18.6600   17.3075  -16.6641 O   0  0  0  0  0  0  0  0  0  0  0  0
  -21.0521   16.0225  -18.3981 H   0  0  0  0  0  0  0  0  0  0  0  0
  -19.2869   18.3185  -18.6522 C   0  0  0  0  0  0  0  0  0  0  0  0
  -20.3115   19.4519  -18.2388 C   0  0  0  0  0  0  0  0  0  0  0  0
  -20.2144   20.4551  -19.3274 C   0  0  0  0  0  0  0  0  0  0  0  0
  -19.0562   19.9182  -20.1825 C   0  0  0  0  0  0  0  0  0  0  0  0
  -19.3640   18.4215  -20.0257 N   0  0  0  0  0  0  0  0  0  0  0  0
  -19.6303   17.6923  -21.2074 C   0  0  0  0  0  0  0  0  0  0  0  0
  -20.0006   16.5212  -21.1697 O   0  0  0  0  0  0  0  0  0  0  0  0
  -19.4629   18.3376  -22.5160 C   0  0  0  0  0  0  0  0  0  0  0  0
  -20.6145   19.2287  -22.8605 N   0  0  0  0  0  0  0  0  0  0  0  0
  -20.3689   20.3175  -23.7238 C   0  0  0  0  0  0  0  0  0  0  0  0
  -19.2601   20.5589  -24.1806 O   0  0  0  0  0  0  0  0  0  0  0  0
  -21.5670   19.0735  -22.4904 H   0  0  0  0  0  0  0  0  0  0  0  0
  -21.4374   21.1589  -24.0801 O   0  0  0  0  0  0  0  0  0  0  0  0
  -22.7661   20.6364  -23.9390 C   0  0  0  0  0  0  0  0  0  0  0  0
  -23.0214   19.6783  -24.9898 C   0  0  0  0  0  0  0  0  0  0  0  0
  -23.3276   18.3636  -24.6506 C   0  0  0  0  0  0  0  0  0  0  0  0
  -23.6035   17.3970  -25.6136 C   0  0  0  0  0  0  0  0  0  0  0  0
  -23.5687   17.7702  -26.9527 C   0  0  0  0  0  0  0  0  0  0  0  0
  -23.2691   19.0624  -27.3048 C   0  0  0  0  0  0  0  0  0  0  0  0
  -23.0019   19.9862  -26.3194 C   0  0  0  0  0  0  0  0  0  0  0  0
  -19.4721   17.2928  -23.6451 C   0  0  0  0  0  0  0  0  0  0  0  0
  -18.1468   16.7481  -23.9459 C   0  0  0  0  0  0  0  0  0  0  0  0
  -18.0598   15.4431  -24.3450 C   0  0  0  0  0  0  0  0  0  0  0  0
  -16.8588   14.8646  -24.6449 C   0  0  0  0  0  0  0  0  0  0  0  0
  -15.6858   15.6068  -24.5467 C   0  0  0  0  0  0  0  0  0  0  0  0
  -15.7982   16.9180  -24.1420 C   0  0  0  0  0  0  0  0  0  0  0  0
  -17.0148   17.4938  -23.8415 C   0  0  0  0  0  0  0  0  0  0  0  0
  -21.7001   15.0256  -16.0556 C   0  0  0  0  0  0  0  0  0  0  0  0
  -22.2095   15.4822  -14.7900 C   0  0  0  0  0  0  0  0  0  0  0  0
  -22.3907   16.8417  -14.3053 C   0  0  0  0  0  0  0  0  0  0  0  0
  -21.6229   17.9292  -14.7291 N   0  0  0  0  0  0  0  0  0  0  0  0
  -21.9747   18.3963  -15.6650 H   0  0  0  0  0  0  0  0  0  0  0  0
  -20.3797   19.9432  -14.0591 N   0  0  0  0  0  0  0  0  0  0  0  0
  -20.4882   18.5436  -14.1799 C   0  0  0  0  0  0  0  0  0  0  0  0
  -19.4827   17.8466  -13.7642 N   0  0  0  0  0  0  0  0  0  0  0  0
  -20.7462   20.5634  -14.8421 H   0  0  0  0  0  0  0  0  0  0  0  0
  -19.9618   20.4225  -13.2530 H   0  0  0  0  0  0  0  0  0  0  0  0
  -19.4585   16.8047  -13.8068 H   0  0  0  0  0  0  0  0  0  0  0  0
 57 58  1  0  0  0
 58 59  2  0  0  0
 58 55  1  0  0  0
 55 54  1  0  0  0
 54 53  1  0  0  0
 53 52  1  0  0  0
 52  1  1  0  0  0
  1 21  1  0  0  0
 21 22  1  0  0  0
 22 23  2  0  0  0
 22 25  1  0  0  0
 25 26  1  0  0  0
 26 27  1  0  0  0
 27 28  1  0  0  0
 28 29  1  0  0  0
 29 30  1  0  0  0
 30 31  2  0  0  0
 30 32  1  0  0  0
 32 45  1  0  0  0
 45 46  1  0  0  0
 46 47  2  0  0  0
 47 48  1  0  0  0
 48 49  2  0  0  0
 49 50  1  0  0  0
 50 51  2  0  0  0
 32 33  1  0  0  0
 33 34  1  0  0  0
 34 35  2  0  0  0
 34 37  1  0  0  0
 37 38  1  0  0  0
 38 39  1  0  0  0
 39 40  2  0  0  0
 40 41  1  0  0  0
 41 42  2  0  0  0
 42 43  1  0  0  0
 43 44  2  0  0  0
  1  2  1  0  0  0
  2  3  2  0  0  0
  2  4  1  0  0  0
  4  6  1  0  0  0
  6 14  1  0  0  0
 14 15  1  0  0  0
 15 16  1  0  0  0
 16 17  1  0  0  0
 16 18  2  0  0  0
  6  7  1  0  0  0
  7  8  2  0  0  0
  7  9  1  0  0  0
  9 10  2  0  0  0
 10 11  1  0  0  0
 11 12  2  0  0  0
 12 13  1  0  0  0
 29 25  1  0  0  0
 51 46  1  0  0  0
 44 39  1  0  0  0
 13  9  1  0  0  0
 57 60  1  0  0  0
 57 61  1  0  0  0
 59 62  1  0  0  0
 55 56  1  0  0  0
 21 24  1  0  0  0
 33 36  1  0  0  0
  4  5  1  0  0  0
 17 19  1  0  0  0
 17 20  1  0  0  0
M  END
> <minimizedAffinity>
-8.26952

> <CNNscore>
0.1684653312

> <CNNaffinity>
7.4149627686

> <CNN_VS>
1.2491641045

> <CNNaffinity_variance>
0.3892976642

$$$$
[H]N=C(N([H])[H])N([H])C([H])([H])C([H])([H])C([H])([H])[C@@]([H])(C(=O)N([H])[C@]([H])(C(=O)c1nc([H])c([H])s1)C([H])([H])C([H])([H])C(=O)N([H])[H])N([H])C(=O)[C@@]1([H])N(C(=O)[C@]([H])(N([H])C(=O)OC([H])([H])c2c([H])c([H])c([H])c([H])c2[H])C([H])([H])c2c([H])c([H])c([H])c([H])c2[H])C([H])([H])C([H])([H])C1([H])[H]


 62 65  0  0  0  0  0  0  0  0999 V2000
  -21.5585   19.8893  -21.7065 C   0  0  0  0  0  0  0  0  0  0  0  0
  -22.0582   20.5541  -20.4977 C   0  0  0  0  0  0  0  0  0  0  0  0
  -21.9864   21.8578  -20.4886 O   0  0  0  0  0  0  0  0  0  0  0  0
  -22.6045   19.9767  -19.3434 N   0  0  0  0  0  0  0  0  0  0  0  0
  -22.7476   18.9822  -19.1439 H   0  0  0  0  0  0  0  0  0  0  0  0
  -23.0677   20.8615  -18.2159 C   0  0  0  0  0  0  0  0  0  0  0  0
  -21.9987   20.7635  -17.2083 C   0  0  0  0  0  0  0  0  0  0  0  0
  -21.9682   21.7993  -16.3871 O   0  0  0  0  0  0  0  0  0  0  0  0
  -20.9743   19.7735  -16.9407 C   0  0  0  0  0  0  0  0  0  0  0  0
  -20.1618   19.0423  -17.6525 N   0  0  0  0  0  0  0  0  0  0  0  0
  -19.3249   18.2114  -17.1672 C   0  0  0  0  0  0  0  0  0  0  0  0
  -19.3075   18.1065  -15.7708 C   0  0  0  0  0  0  0  0  0  0  0  0
  -20.5020   19.2211  -15.3384 S   0  0  0  0  0  0  0  0  0  0  0  0
  -24.3907   20.4466  -17.7846 C   0  0  0  0  0  0  0  0  0  0  0  0
  -24.5273   19.6928  -16.5067 C   0  0  0  0  0  0  0  0  0  0  0  0
  -25.6609   18.7242  -16.6419 C   0  0  0  0  0  0  0  0  0  0  0  0
  -26.5575   18.8789  -17.7119 N   0  0  0  0  0  0  0  0  0  0  0  0
  -25.7832   17.8133  -15.8131 O   0  0  0  0  0  0  0  0  0  0  0  0
  -27.3188   19.6131  -17.6064 H   0  0  0  0  0  0  0  0  0  0  0  0
  -26.5239   18.3293  -18.5792 H   0  0  0  0  0  0  0  0  0  0  0  0
  -20.7693   18.6627  -21.2894 N   0  0  0  0  0  0  0  0  0  0  0  0
  -19.3918   18.6797  -21.1476 C   0  0  0  0  0  0  0  0  0  0  0  0
  -18.8601   19.8819  -21.4244 O   0  0  0  0  0  0  0  0  0  0  0  0
  -21.3312   17.8355  -21.1317 H   0  0  0  0  0  0  0  0  0  0  0  0
  -18.4489   17.6954  -20.7779 C   0  0  0  0  0  0  0  0  0  0  0  0
  -17.0568   18.4439  -20.6941 C   0  0  0  0  0  0  0  0  0  0  0  0
  -16.0650   17.3607  -20.4852 C   0  0  0  0  0  0  0  0  0  0  0  0
  -16.9507   16.1177  -20.3084 C   0  0  0  0  0  0  0  0  0  0  0  0
  -18.0389   16.4969  -21.3241 N   0  0  0  0  0  0  0  0  0  0  0  0
  -18.2457   15.6105  -22.4060 C   0  0  0  0  0  0  0  0  0  0  0  0
  -19.0097   15.8890  -23.3274 O   0  0  0  0  0  0  0  0  0  0  0  0
  -17.5383   14.3239  -22.4405 C   0  0  0  0  0  0  0  0  0  0  0  0
  -17.1838   13.8346  -21.0716 N   0  0  0  0  0  0  0  0  0  0  0  0
  -17.4284   12.4773  -20.7740 C   0  0  0  0  0  0  0  0  0  0  0  0
  -17.9250   11.7048  -21.5821 O   0  0  0  0  0  0  0  0  0  0  0  0
  -16.7735   14.4511  -20.3504 H   0  0  0  0  0  0  0  0  0  0  0  0
  -17.0859   11.9862  -19.5019 O   0  0  0  0  0  0  0  0  0  0  0  0
  -17.2790   10.5853  -19.2598 C   0  0  0  0  0  0  0  0  0  0  0  0
  -18.2314   10.4082  -18.1879 C   0  0  0  0  0  0  0  0  0  0  0  0
  -19.0612   11.4682  -17.8345 C   0  0  0  0  0  0  0  0  0  0  0  0
  -20.0133   11.3567  -16.8251 C   0  0  0  0  0  0  0  0  0  0  0  0
  -20.1283   10.1426  -16.1569 C   0  0  0  0  0  0  0  0  0  0  0  0
  -19.3183    9.0868  -16.4931 C   0  0  0  0  0  0  0  0  0  0  0  0
  -18.3895    9.2414  -17.4976 C   0  0  0  0  0  0  0  0  0  0  0  0
  -16.1711   14.4709  -23.1303 C   0  0  0  0  0  0  0  0  0  0  0  0
  -16.2580   14.5251  -24.5908 C   0  0  0  0  0  0  0  0  0  0  0  0
  -15.5944   15.5284  -25.2409 C   0  0  0  0  0  0  0  0  0  0  0  0
  -15.6266   15.6436  -26.6020 C   0  0  0  0  0  0  0  0  0  0  0  0
  -16.3479   14.7265  -27.3605 C   0  0  0  0  0  0  0  0  0  0  0  0
  -17.0086   13.7258  -26.6839 C   0  0  0  0  0  0  0  0  0  0  0  0
  -16.9703   13.6171  -25.3096 C   0  0  0  0  0  0  0  0  0  0  0  0
  -22.4358   19.5426  -22.7985 C   0  0  0  0  0  0  0  0  0  0  0  0
  -23.3328   20.4302  -23.4894 C   0  0  0  0  0  0  0  0  0  0  0  0
  -23.9008   20.3122  -24.8234 C   0  0  0  0  0  0  0  0  0  0  0  0
  -23.3276   19.5589  -25.8509 N   0  0  0  0  0  0  0  0  0  0  0  0
  -22.4667   20.0430  -26.3431 H   0  0  0  0  0  0  0  0  0  0  0  0
  -23.6448   17.1363  -25.5670 N   0  0  0  0  0  0  0  0  0  0  0  0
  -23.6404   18.2942  -26.3698 C   0  0  0  0  0  0  0  0  0  0  0  0
  -23.9337   18.1348  -27.6181 N   0  0  0  0  0  0  0  0  0  0  0  0
  -22.8912   17.0134  -24.8261 H   0  0  0  0  0  0  0  0  0  0  0  0
  -24.3368   16.3818  -25.6455 H   0  0  0  0  0  0  0  0  0  0  0  0
  -23.9599   18.9238  -28.2998 H   0  0  0  0  0  0  0  0  0  0  0  0
 57 58  1  0  0  0
 58 59  2  0  0  0
 58 55  1  0  0  0
 55 54  1  0  0  0
 54 53  1  0  0  0
 53 52  1  0  0  0
 52  1  1  0  0  0
  1 21  1  0  0  0
 21 22  1  0  0  0
 22 23  2  0  0  0
 22 25  1  0  0  0
 25 26  1  0  0  0
 26 27  1  0  0  0
 27 28  1  0  0  0
 28 29  1  0  0  0
 29 30  1  0  0  0
 30 31  2  0  0  0
 30 32  1  0  0  0
 32 45  1  0  0  0
 45 46  1  0  0  0
 46 47  2  0  0  0
 47 48  1  0  0  0
 48 49  2  0  0  0
 49 50  1  0  0  0
 50 51  2  0  0  0
 32 33  1  0  0  0
 33 34  1  0  0  0
 34 35  2  0  0  0
 34 37  1  0  0  0
 37 38  1  0  0  0
 38 39  1  0  0  0
 39 40  2  0  0  0
 40 41  1  0  0  0
 41 42  2  0  0  0
 42 43  1  0  0  0
 43 44  2  0  0  0
  1  2  1  0  0  0
  2  3  2  0  0  0
  2  4  1  0  0  0
  4  6  1  0  0  0
  6 14  1  0  0  0
 14 15  1  0  0  0
 15 16  1  0  0  0
 16 17  1  0  0  0
 16 18  2  0  0  0
  6  7  1  0  0  0
  7  8  2  0  0  0
  7  9  1  0  0  0
  9 10  2  0  0  0
 10 11  1  0  0  0
 11 12  2  0  0  0
 12 13  1  0  0  0
 29 25  1  0  0  0
 51 46  1  0  0  0
 44 39  1  0  0  0
 13  9  1  0  0  0
 57 60  1  0  0  0
 57 61  1  0  0  0
 59 62  1  0  0  0
 55 56  1  0  0  0
 21 24  1  0  0  0
 33 36  1  0  0  0
  4  5  1  0  0  0
 17 19  1  0  0  0
 17 20  1  0  0  0
M  END
> <minimizedAffinity>
-8.03280

> <CNNscore>
0.1604832560

> <CNNaffinity>
7.2408347130

> <CNN_VS>
1.1620327234

> <CNNaffinity_variance>
0.4976872504

$$$$
[H]N=C(N([H])[H])N([H])C([H])([H])C([H])([H])C([H])([H])[C@@]([H])(C(=O)N([H])[C@]([H])(C(=O)c1nc([H])c([H])s1)C([H])([H])C([H])([H])C(=O)N([H])[H])N([H])C(=O)[C@@]1([H])N(C(=O)[C@]([H])(N([H])C(=O)OC([H])([H])c2c([H])c([H])c([H])c([H])c2[H])C([H])([H])c2c([H])c([H])c([H])c([H])c2[H])C([H])([H])C([H])([H])C1([H])[H]


 62 65  0  0  0  0  0  0  0  0999 V2000
  -17.0434   16.1610  -23.0100 C   0  0  0  0  0  0  0  0  0  0  0  0
  -17.2250   15.8040  -21.5985 C   0  0  0  0  0  0  0  0  0  0  0  0
  -16.1907   15.9869  -20.8228 O   0  0  0  0  0  0  0  0  0  0  0  0
  -18.3643   15.2889  -20.9654 N   0  0  0  0  0  0  0  0  0  0  0  0
  -19.2729   15.0697  -21.3846 H   0  0  0  0  0  0  0  0  0  0  0  0
  -18.3294   15.0026  -19.4870 C   0  0  0  0  0  0  0  0  0  0  0  0
  -18.4999   13.5433  -19.3908 C   0  0  0  0  0  0  0  0  0  0  0  0
  -19.5796   13.1945  -18.7122 O   0  0  0  0  0  0  0  0  0  0  0  0
  -17.7255   12.4191  -19.8779 C   0  0  0  0  0  0  0  0  0  0  0  0
  -17.2233   12.0462  -21.0226 N   0  0  0  0  0  0  0  0  0  0  0  0
  -16.5598   10.9724  -21.2047 C   0  0  0  0  0  0  0  0  0  0  0  0
  -16.3794   10.1662  -20.0740 C   0  0  0  0  0  0  0  0  0  0  0  0
  -17.1913   11.0623  -18.8933 S   0  0  0  0  0  0  0  0  0  0  0  0
  -19.3317   15.8078  -18.8122 C   0  0  0  0  0  0  0  0  0  0  0  0
  -18.8931   17.0048  -18.0411 C   0  0  0  0  0  0  0  0  0  0  0  0
  -19.0948   18.2210  -18.8907 C   0  0  0  0  0  0  0  0  0  0  0  0
  -18.1609   19.2666  -18.8059 N   0  0  0  0  0  0  0  0  0  0  0  0
  -20.0741   18.2789  -19.6450 O   0  0  0  0  0  0  0  0  0  0  0  0
  -18.2542   19.9370  -17.9863 H   0  0  0  0  0  0  0  0  0  0  0  0
  -17.4036   19.4225  -19.4824 H   0  0  0  0  0  0  0  0  0  0  0  0
  -18.1051   17.1758  -23.3898 N   0  0  0  0  0  0  0  0  0  0  0  0
  -18.2045   18.4117  -22.7728 C   0  0  0  0  0  0  0  0  0  0  0  0
  -17.2738   18.5886  -21.8204 O   0  0  0  0  0  0  0  0  0  0  0  0
  -18.7339   16.8716  -24.1225 H   0  0  0  0  0  0  0  0  0  0  0  0
  -19.0811   19.5059  -22.9429 C   0  0  0  0  0  0  0  0  0  0  0  0
  -18.6888   20.5494  -21.8192 C   0  0  0  0  0  0  0  0  0  0  0  0
  -19.7350   21.5977  -21.9046 C   0  0  0  0  0  0  0  0  0  0  0  0
  -20.5399   21.1749  -23.1432 C   0  0  0  0  0  0  0  0  0  0  0  0
  -20.4524   19.6556  -22.9342 N   0  0  0  0  0  0  0  0  0  0  0  0
  -21.6717   18.9555  -22.7858 C   0  0  0  0  0  0  0  0  0  0  0  0
  -21.6954   17.7610  -22.4980 O   0  0  0  0  0  0  0  0  0  0  0  0
  -22.9456   19.6602  -22.9786 C   0  0  0  0  0  0  0  0  0  0  0  0
  -23.8257   19.5819  -21.7711 N   0  0  0  0  0  0  0  0  0  0  0  0
  -24.0835   20.7764  -21.0659 C   0  0  0  0  0  0  0  0  0  0  0  0
  -23.6071   21.8532  -21.3977 O   0  0  0  0  0  0  0  0  0  0  0  0
  -24.2419   18.6941  -21.4438 H   0  0  0  0  0  0  0  0  0  0  0  0
  -24.9236   20.7349  -19.9393 O   0  0  0  0  0  0  0  0  0  0  0  0
  -25.8939   21.7824  -19.7989 C   0  0  0  0  0  0  0  0  0  0  0  0
  -25.8104   22.3417  -18.4694 C   0  0  0  0  0  0  0  0  0  0  0  0
  -26.9837   22.6546  -17.7893 C   0  0  0  0  0  0  0  0  0  0  0  0
  -26.9730   23.1770  -16.4989 C   0  0  0  0  0  0  0  0  0  0  0  0
  -25.7448   23.3880  -15.8820 C   0  0  0  0  0  0  0  0  0  0  0  0
  -24.5781   23.0845  -16.5382 C   0  0  0  0  0  0  0  0  0  0  0  0
  -24.6351   22.5701  -17.8141 C   0  0  0  0  0  0  0  0  0  0  0  0
  -23.7849   18.9810  -24.0745 C   0  0  0  0  0  0  0  0  0  0  0  0
  -23.3609   19.3277  -25.4323 C   0  0  0  0  0  0  0  0  0  0  0  0
  -23.6692   18.4635  -26.4462 C   0  0  0  0  0  0  0  0  0  0  0  0
  -23.3091   18.7190  -27.7392 C   0  0  0  0  0  0  0  0  0  0  0  0
  -22.6109   19.8821  -28.0496 C   0  0  0  0  0  0  0  0  0  0  0  0
  -22.3110   20.7365  -27.0124 C   0  0  0  0  0  0  0  0  0  0  0  0
  -22.6787   20.4704  -25.7100 C   0  0  0  0  0  0  0  0  0  0  0  0
  -15.7662   16.5926  -23.5245 C   0  0  0  0  0  0  0  0  0  0  0  0
  -15.0556   16.0217  -24.6376 C   0  0  0  0  0  0  0  0  0  0  0  0
  -15.4958   15.0206  -25.5968 C   0  0  0  0  0  0  0  0  0  0  0  0
  -15.7043   13.6760  -25.2800 N   0  0  0  0  0  0  0  0  0  0  0  0
  -14.7814   13.1131  -25.0585 H   0  0  0  0  0  0  0  0  0  0  0  0
  -17.3604   12.1476  -26.2659 N   0  0  0  0  0  0  0  0  0  0  0  0
  -16.8740   12.9082  -25.1842 C   0  0  0  0  0  0  0  0  0  0  0  0
  -17.5648   12.8710  -24.0928 N   0  0  0  0  0  0  0  0  0  0  0  0
  -17.3064   12.5481  -27.2501 H   0  0  0  0  0  0  0  0  0  0  0  0
  -17.7750   11.2127  -26.1743 H   0  0  0  0  0  0  0  0  0  0  0  0
  -17.2951   13.3958  -23.2327 H   0  0  0  0  0  0  0  0  0  0  0  0
 57 58  1  0  0  0
 58 59  2  0  0  0
 58 55  1  0  0  0
 55 54  1  0  0  0
 54 53  1  0  0  0
 53 52  1  0  0  0
 52  1  1  0  0  0
  1 21  1  0  0  0
 21 22  1  0  0  0
 22 23  2  0  0  0
 22 25  1  0  0  0
 25 26  1  0  0  0
 26 27  1  0  0  0
 27 28  1  0  0  0
 28 29  1  0  0  0
 29 30  1  0  0  0
 30 31  2  0  0  0
 30 32  1  0  0  0
 32 45  1  0  0  0
 45 46  1  0  0  0
 46 47  2  0  0  0
 47 48  1  0  0  0
 48 49  2  0  0  0
 49 50  1  0  0  0
 50 51  2  0  0  0
 32 33  1  0  0  0
 33 34  1  0  0  0
 34 35  2  0  0  0
 34 37  1  0  0  0
 37 38  1  0  0  0
 38 39  1  0  0  0
 39 40  2  0  0  0
 40 41  1  0  0  0
 41 42  2  0  0  0
 42 43  1  0  0  0
 43 44  2  0  0  0
  1  2  1  0  0  0
  2  3  2  0  0  0
  2  4  1  0  0  0
  4  6  1  0  0  0
  6 14  1  0  0  0
 14 15  1  0  0  0
 15 16  1  0  0  0
 16 17  1  0  0  0
 16 18  2  0  0  0
  6  7  1  0  0  0
  7  8  2  0  0  0
  7  9  1  0  0  0
  9 10  2  0  0  0
 10 11  1  0  0  0
 11 12  2  0  0  0
 12 13  1  0  0  0
 29 25  1  0  0  0
 51 46  1  0  0  0
 44 39  1  0  0  0
 13  9  1  0  0  0
 57 60  1  0  0  0
 57 61  1  0  0  0
 59 62  1  0  0  0
 55 56  1  0  0  0
 21 24  1  0  0  0
 33 36  1  0  0  0
  4  5  1  0  0  0
 17 19  1  0  0  0
 17 20  1  0  0  0
M  END
> <minimizedAffinity>
-7.22197

> <CNNscore>
0.1493108720

> <CNNaffinity>
7.4879713058

> <CNN_VS>
1.1180355549

> <CNNaffinity_variance>
0.1972556412

$$$$
[H]N=C(N([H])[H])N([H])C([H])([H])C([H])([H])C([H])([H])[C@@]([H])(C(=O)N([H])[C@]([H])(C(=O)c1nc([H])c([H])s1)C([H])([H])C([H])([H])C(=O)N([H])[H])N([H])C(=O)[C@@]1([H])N(C(=O)[C@]([H])(N([H])C(=O)OC([H])([H])c2c([H])c([H])c([H])c([H])c2[H])C([H])([H])c2c([H])c([H])c([H])c([H])c2[H])C([H])([H])C([H])([H])C1([H])[H]


 62 65  0  0  0  0  0  0  0  0999 V2000
  -17.3096   15.9440  -23.8083 C   0  0  0  0  0  0  0  0  0  0  0  0
  -17.0941   15.3987  -22.4633 C   0  0  0  0  0  0  0  0  0  0  0  0
  -15.9422   15.6703  -21.9119 O   0  0  0  0  0  0  0  0  0  0  0  0
  -17.9614   14.6200  -21.6851 N   0  0  0  0  0  0  0  0  0  0  0  0
  -18.9021   14.2937  -21.9257 H   0  0  0  0  0  0  0  0  0  0  0  0
  -17.5324   14.1743  -20.3118 C   0  0  0  0  0  0  0  0  0  0  0  0
  -17.7585   12.7194  -20.3097 C   0  0  0  0  0  0  0  0  0  0  0  0
  -17.5655   12.1664  -21.4950 O   0  0  0  0  0  0  0  0  0  0  0  0
  -18.1553   11.7778  -19.2816 C   0  0  0  0  0  0  0  0  0  0  0  0
  -19.0718   11.7255  -18.3549 N   0  0  0  0  0  0  0  0  0  0  0  0
  -19.2211   10.7553  -17.5407 C   0  0  0  0  0  0  0  0  0  0  0  0
  -18.3202    9.6928  -17.6843 C   0  0  0  0  0  0  0  0  0  0  0  0
  -17.3734   10.2316  -18.9764 S   0  0  0  0  0  0  0  0  0  0  0  0
  -18.2548   14.9335  -19.3067 C   0  0  0  0  0  0  0  0  0  0  0  0
  -19.2876   15.9122  -19.7488 C   0  0  0  0  0  0  0  0  0  0  0  0
  -18.8055   17.2931  -19.4290 C   0  0  0  0  0  0  0  0  0  0  0  0
  -19.7433   18.2615  -19.0348 N   0  0  0  0  0  0  0  0  0  0  0  0
  -17.5983   17.5504  -19.5181 O   0  0  0  0  0  0  0  0  0  0  0  0
  -20.3053   18.7353  -19.8025 H   0  0  0  0  0  0  0  0  0  0  0  0
  -19.9146   18.5384  -18.0604 H   0  0  0  0  0  0  0  0  0  0  0  0
  -18.4698   16.9197  -23.7515 N   0  0  0  0  0  0  0  0  0  0  0  0
  -18.3795   18.1432  -23.1091 C   0  0  0  0  0  0  0  0  0  0  0  0
  -17.1728   18.3462  -22.5545 O   0  0  0  0  0  0  0  0  0  0  0  0
  -19.3113   16.5990  -24.2140 H   0  0  0  0  0  0  0  0  0  0  0  0
  -19.2938   19.2032  -22.9219 C   0  0  0  0  0  0  0  0  0  0  0  0
  -18.5527   20.2514  -21.9959 C   0  0  0  0  0  0  0  0  0  0  0  0
  -19.5922   21.2581  -21.6690 C   0  0  0  0  0  0  0  0  0  0  0  0
  -20.7801   20.8147  -22.5368 C   0  0  0  0  0  0  0  0  0  0  0  0
  -20.5708   19.2983  -22.4090 N   0  0  0  0  0  0  0  0  0  0  0  0
  -21.6267   18.5489  -21.8411 C   0  0  0  0  0  0  0  0  0  0  0  0
  -21.5031   17.3520  -21.5919 O   0  0  0  0  0  0  0  0  0  0  0  0
  -22.9058   19.2041  -21.5387 C   0  0  0  0  0  0  0  0  0  0  0  0
  -23.3193   19.0108  -20.1138 N   0  0  0  0  0  0  0  0  0  0  0  0
  -22.9712   20.0146  -19.1853 C   0  0  0  0  0  0  0  0  0  0  0  0
  -22.3411   21.0144  -19.5014 O   0  0  0  0  0  0  0  0  0  0  0  0
  -23.8421   18.1778  -19.7953 H   0  0  0  0  0  0  0  0  0  0  0  0
  -23.3650   19.8680  -17.8437 O   0  0  0  0  0  0  0  0  0  0  0  0
  -23.0050   18.6489  -17.1783 C   0  0  0  0  0  0  0  0  0  0  0  0
  -22.2022   18.9528  -16.0162 C   0  0  0  0  0  0  0  0  0  0  0  0
  -21.4523   20.1251  -15.9965 C   0  0  0  0  0  0  0  0  0  0  0  0
  -20.6741   20.4863  -14.9001 C   0  0  0  0  0  0  0  0  0  0  0  0
  -20.6545   19.6402  -13.7968 C   0  0  0  0  0  0  0  0  0  0  0  0
  -21.3885   18.4805  -13.7993 C   0  0  0  0  0  0  0  0  0  0  0  0
  -22.1439   18.1618  -14.9055 C   0  0  0  0  0  0  0  0  0  0  0  0
  -24.0527   18.5553  -22.3326 C   0  0  0  0  0  0  0  0  0  0  0  0
  -23.8587   18.6049  -23.7829 C   0  0  0  0  0  0  0  0  0  0  0  0
  -23.6612   17.4273  -24.4492 C   0  0  0  0  0  0  0  0  0  0  0  0
  -23.4747   17.3927  -25.8023 C   0  0  0  0  0  0  0  0  0  0  0  0
  -23.4825   18.5754  -26.5357 C   0  0  0  0  0  0  0  0  0  0  0  0
  -23.6822   19.7485  -25.8431 C   0  0  0  0  0  0  0  0  0  0  0  0
  -23.8697   19.7739  -24.4770 C   0  0  0  0  0  0  0  0  0  0  0  0
  -16.2328   16.5283  -24.5708 C   0  0  0  0  0  0  0  0  0  0  0  0
  -15.2503   15.8181  -25.3455 C   0  0  0  0  0  0  0  0  0  0  0  0
  -14.2051   14.9098  -24.8997 C   0  0  0  0  0  0  0  0  0  0  0  0
  -14.3729   13.9682  -23.8814 N   0  0  0  0  0  0  0  0  0  0  0  0
  -13.8116   14.1927  -22.9581 H   0  0  0  0  0  0  0  0  0  0  0  0
  -16.3630   12.6530  -24.4814 N   0  0  0  0  0  0  0  0  0  0  0  0
  -15.1305   12.7901  -23.8125 C   0  0  0  0  0  0  0  0  0  0  0  0
  -14.7304   11.7744  -23.1212 N   0  0  0  0  0  0  0  0  0  0  0  0
  -17.0345   13.4777  -24.5101 H   0  0  0  0  0  0  0  0  0  0  0  0
  -16.6711   11.7952  -24.9541 H   0  0  0  0  0  0  0  0  0  0  0  0
  -13.8340   11.7689  -22.5880 H   0  0  0  0  0  0  0  0  0  0  0  0
 57 58  1  0  0  0
 58 59  2  0  0  0
 58 55  1  0  0  0
 55 54  1  0  0  0
 54 53  1  0  0  0
 53 52  1  0  0  0
 52  1  1  0  0  0
  1 21  1  0  0  0
 21 22  1  0  0  0
 22 23  2  0  0  0
 22 25  1  0  0  0
 25 26  1  0  0  0
 26 27  1  0  0  0
 27 28  1  0  0  0
 28 29  1  0  0  0
 29 30  1  0  0  0
 30 31  2  0  0  0
 30 32  1  0  0  0
 32 45  1  0  0  0
 45 46  1  0  0  0
 46 47  2  0  0  0
 47 48  1  0  0  0
 48 49  2  0  0  0
 49 50  1  0  0  0
 50 51  2  0  0  0
 32 33  1  0  0  0
 33 34  1  0  0  0
 34 35  2  0  0  0
 34 37  1  0  0  0
 37 38  1  0  0  0
 38 39  1  0  0  0
 39 40  2  0  0  0
 40 41  1  0  0  0
 41 42  2  0  0  0
 42 43  1  0  0  0
 43 44  2  0  0  0
  1  2  1  0  0  0
  2  3  2  0  0  0
  2  4  1  0  0  0
  4  6  1  0  0  0
  6 14  1  0  0  0
 14 15  1  0  0  0
 15 16  1  0  0  0
 16 17  1  0  0  0
 16 18  2  0  0  0
  6  7  1  0  0  0
  7  8  2  0  0  0
  7  9  1  0  0  0
  9 10  2  0  0  0
 10 11  1  0  0  0
 11 12  2  0  0  0
 12 13  1  0  0  0
 29 25  1  0  0  0
 51 46  1  0  0  0
 44 39  1  0  0  0
 13  9  1  0  0  0
 57 60  1  0  0  0
 57 61  1  0  0  0
 59 62  1  0  0  0
 55 56  1  0  0  0
 21 24  1  0  0  0
 33 36  1  0  0  0
  4  5  1  0  0  0
 17 19  1  0  0  0
 17 20  1  0  0  0
M  END
> <minimizedAffinity>
-7.03252

> <CNNscore>
0.1466505527

> <CNNaffinity>
7.8020005226

> <CNN_VS>
1.1441676617

> <CNNaffinity_variance>
0.1222858876

$$$$
[H]N=C(N([H])[H])N([H])C([H])([H])C([H])([H])C([H])([H])[C@@]([H])(C(=O)N([H])[C@]([H])(C(=O)c1nc([H])c([H])s1)C([H])([H])C([H])([H])C(=O)N([H])[H])N([H])C(=O)[C@@]1([H])N(C(=O)[C@]([H])(N([H])C(=O)OC([H])([H])c2c([H])c([H])c([H])c([H])c2[H])C([H])([H])c2c([H])c([H])c([H])c([H])c2[H])C([H])([H])C([H])([H])C1([H])[H]


 62 65  0  0  0  0  0  0  0  0999 V2000
  -20.1583   15.4919  -19.9865 C   0  0  0  0  0  0  0  0  0  0  0  0
  -20.9752   16.5883  -20.5188 C   0  0  0  0  0  0  0  0  0  0  0  0
  -22.2675   16.4032  -20.4985 O   0  0  0  0  0  0  0  0  0  0  0  0
  -20.5546   17.8148  -21.0507 N   0  0  0  0  0  0  0  0  0  0  0  0
  -19.5957   18.1575  -21.1617 H   0  0  0  0  0  0  0  0  0  0  0  0
  -21.5792   18.8076  -21.5340 C   0  0  0  0  0  0  0  0  0  0  0  0
  -21.3414   18.9055  -22.9837 C   0  0  0  0  0  0  0  0  0  0  0  0
  -20.1171   19.3078  -23.2789 O   0  0  0  0  0  0  0  0  0  0  0  0
  -22.1735   18.6606  -24.1450 C   0  0  0  0  0  0  0  0  0  0  0  0
  -22.7770   17.6310  -24.6714 N   0  0  0  0  0  0  0  0  0  0  0  0
  -23.4720   17.6697  -25.7400 C   0  0  0  0  0  0  0  0  0  0  0  0
  -23.5700   18.9214  -26.3603 C   0  0  0  0  0  0  0  0  0  0  0  0
  -22.6459   19.8813  -25.3207 S   0  0  0  0  0  0  0  0  0  0  0  0
  -21.4515   20.0429  -20.7817 C   0  0  0  0  0  0  0  0  0  0  0  0
  -20.5741   20.0647  -19.5777 C   0  0  0  0  0  0  0  0  0  0  0  0
  -19.4776   21.0589  -19.8032 C   0  0  0  0  0  0  0  0  0  0  0  0
  -18.7882   21.5681  -18.6904 N   0  0  0  0  0  0  0  0  0  0  0  0
  -19.2035   21.4087  -20.9581 O   0  0  0  0  0  0  0  0  0  0  0  0
  -19.2577   22.3487  -18.1427 H   0  0  0  0  0  0  0  0  0  0  0  0
  -17.8667   21.2372  -18.3794 H   0  0  0  0  0  0  0  0  0  0  0  0
  -21.0263   14.6435  -19.0765 N   0  0  0  0  0  0  0  0  0  0  0  0
  -20.8334   14.5894  -17.7061 C   0  0  0  0  0  0  0  0  0  0  0  0
  -19.8074   15.3554  -17.2996 O   0  0  0  0  0  0  0  0  0  0  0  0
  -21.7485   14.1190  -19.5542 H   0  0  0  0  0  0  0  0  0  0  0  0
  -21.4913   13.8952  -16.6670 C   0  0  0  0  0  0  0  0  0  0  0  0
  -21.8841   14.9941  -15.5976 C   0  0  0  0  0  0  0  0  0  0  0  0
  -22.4054   14.2200  -14.4444 C   0  0  0  0  0  0  0  0  0  0  0  0
  -22.4237   12.7805  -14.9812 C   0  0  0  0  0  0  0  0  0  0  0  0
  -21.1418   12.8609  -15.8237 N   0  0  0  0  0  0  0  0  0  0  0  0
  -20.0986   11.9652  -15.4947 C   0  0  0  0  0  0  0  0  0  0  0  0
  -18.9970   12.0362  -16.0347 O   0  0  0  0  0  0  0  0  0  0  0  0
  -20.3244   10.9210  -14.4870 C   0  0  0  0  0  0  0  0  0  0  0  0
  -19.6846   11.2507  -13.1752 N   0  0  0  0  0  0  0  0  0  0  0  0
  -20.3883   10.9193  -11.9980 C   0  0  0  0  0  0  0  0  0  0  0  0
  -21.4920   10.3921  -12.0166 O   0  0  0  0  0  0  0  0  0  0  0  0
  -18.7595   11.7069  -13.1075 H   0  0  0  0  0  0  0  0  0  0  0  0
  -19.8013   11.1995  -10.7516 O   0  0  0  0  0  0  0  0  0  0  0  0
  -20.0095   10.2520   -9.6945 C   0  0  0  0  0  0  0  0  0  0  0  0
  -18.7860    9.5227   -9.4529 C   0  0  0  0  0  0  0  0  0  0  0  0
  -17.5672   10.1861   -9.5610 C   0  0  0  0  0  0  0  0  0  0  0  0
  -16.3540    9.5467   -9.3215 C   0  0  0  0  0  0  0  0  0  0  0  0
  -16.3750    8.2030   -8.9641 C   0  0  0  0  0  0  0  0  0  0  0  0
  -17.5680    7.5338   -8.8525 C   0  0  0  0  0  0  0  0  0  0  0  0
  -18.7445    8.2051   -9.0991 C   0  0  0  0  0  0  0  0  0  0  0  0
  -19.6362    9.6079  -14.8978 C   0  0  0  0  0  0  0  0  0  0  0  0
  -20.5705    8.4997  -15.1036 C   0  0  0  0  0  0  0  0  0  0  0  0
  -21.8989    8.7921  -15.2445 C   0  0  0  0  0  0  0  0  0  0  0  0
  -22.8307    7.8124  -15.4414 C   0  0  0  0  0  0  0  0  0  0  0  0
  -22.4359    6.4793  -15.5023 C   0  0  0  0  0  0  0  0  0  0  0  0
  -21.0936    6.2094  -15.3568 C   0  0  0  0  0  0  0  0  0  0  0  0
  -20.1599    7.2049  -15.1585 C   0  0  0  0  0  0  0  0  0  0  0  0
  -19.3903   14.6296  -20.8519 C   0  0  0  0  0  0  0  0  0  0  0  0
  -18.3538   13.7171  -20.4485 C   0  0  0  0  0  0  0  0  0  0  0  0
  -18.2711   12.2763  -20.6315 C   0  0  0  0  0  0  0  0  0  0  0  0
  -17.1506   11.6189  -21.1453 N   0  0  0  0  0  0  0  0  0  0  0  0
  -16.8322   11.9740  -22.1405 H   0  0  0  0  0  0  0  0  0  0  0  0
  -16.6137    9.9947  -19.3777 N   0  0  0  0  0  0  0  0  0  0  0  0
  -16.3486   10.5924  -20.6258 C   0  0  0  0  0  0  0  0  0  0  0  0
  -15.3199   10.1523  -21.2720 N   0  0  0  0  0  0  0  0  0  0  0  0
  -16.9396   10.6030  -18.5678 H   0  0  0  0  0  0  0  0  0  0  0  0
  -16.5124    8.9914  -19.1847 H   0  0  0  0  0  0  0  0  0  0  0  0
  -15.0337   10.5239  -22.2037 H   0  0  0  0  0  0  0  0  0  0  0  0
 57 58  1  0  0  0
 58 59  2  0  0  0
 58 55  1  0  0  0
 55 54  1  0  0  0
 54 53  1  0  0  0
 53 52  1  0  0  0
 52  1  1  0  0  0
  1 21  1  0  0  0
 21 22  1  0  0  0
 22 23  2  0  0  0
 22 25  1  0  0  0
 25 26  1  0  0  0
 26 27  1  0  0  0
 27 28  1  0  0  0
 28 29  1  0  0  0
 29 30  1  0  0  0
 30 31  2  0  0  0
 30 32  1  0  0  0
 32 45  1  0  0  0
 45 46  1  0  0  0
 46 47  2  0  0  0
 47 48  1  0  0  0
 48 49  2  0  0  0
 49 50  1  0  0  0
 50 51  2  0  0  0
 32 33  1  0  0  0
 33 34  1  0  0  0
 34 35  2  0  0  0
 34 37  1  0  0  0
 37 38  1  0  0  0
 38 39  1  0  0  0
 39 40  2  0  0  0
 40 41  1  0  0  0
 41 42  2  0  0  0
 42 43  1  0  0  0
 43 44  2  0  0  0
  1  2  1  0  0  0
  2  3  2  0  0  0
  2  4  1  0  0  0
  4  6  1  0  0  0
  6 14  1  0  0  0
 14 15  1  0  0  0
 15 16  1  0  0  0
 16 17  1  0  0  0
 16 18  2  0  0  0
  6  7  1  0  0  0
  7  8  2  0  0  0
  7  9  1  0  0  0
  9 10  2  0  0  0
 10 11  1  0  0  0
 11 12  2  0  0  0
 12 13  1  0  0  0
 29 25  1  0  0  0
 51 46  1  0  0  0
 44 39  1  0  0  0
 13  9  1  0  0  0
 57 60  1  0  0  0
 57 61  1  0  0  0
 59 62  1  0  0  0
 55 56  1  0  0  0
 21 24  1  0  0  0
 33 36  1  0  0  0
  4  5  1  0  0  0
 17 19  1  0  0  0
 17 20  1  0  0  0
M  END
> <minimizedAffinity>
-7.26769

> <CNNscore>
0.1440021992

> <CNNaffinity>
6.7020630836

> <CNN_VS>
0.9651118517

> <CNNaffinity_variance>
0.1381785125

$$$$
[H]N=C(N([H])[H])N([H])C([H])([H])C([H])([H])C([H])([H])[C@@]([H])(C(=O)N([H])[C@]([H])(C(=O)c1nc([H])c([H])s1)C([H])([H])C([H])([H])C(=O)N([H])[H])N([H])C(=O)[C@@]1([H])N(C(=O)[C@]([H])(N([H])C(=O)OC([H])([H])c2c([H])c([H])c([H])c([H])c2[H])C([H])([H])c2c([H])c([H])c([H])c([H])c2[H])C([H])([H])C([H])([H])C1([H])[H]


 62 65  0  0  0  0  0  0  0  0999 V2000
  -18.6378   11.6050  -17.7601 C   0  0  0  0  0  0  0  0  0  0  0  0
  -17.8178   12.0567  -18.8898 C   0  0  0  0  0  0  0  0  0  0  0  0
  -16.7026   11.4063  -19.0855 O   0  0  0  0  0  0  0  0  0  0  0  0
  -18.0693   13.0986  -19.7927 N   0  0  0  0  0  0  0  0  0  0  0  0
  -18.8755   13.7301  -19.8170 H   0  0  0  0  0  0  0  0  0  0  0  0
  -17.0835   13.3827  -20.8955 C   0  0  0  0  0  0  0  0  0  0  0  0
  -17.2184   14.8272  -21.1466 C   0  0  0  0  0  0  0  0  0  0  0  0
  -17.6367   15.4974  -20.0865 O   0  0  0  0  0  0  0  0  0  0  0  0
  -16.9957   15.6570  -22.3140 C   0  0  0  0  0  0  0  0  0  0  0  0
  -15.9837   16.2885  -22.8419 N   0  0  0  0  0  0  0  0  0  0  0  0
  -16.0426   16.9806  -23.9114 C   0  0  0  0  0  0  0  0  0  0  0  0
  -17.2967   17.0416  -24.5317 C   0  0  0  0  0  0  0  0  0  0  0  0
  -18.2294   16.0919  -23.4905 S   0  0  0  0  0  0  0  0  0  0  0  0
  -17.3532   12.5111  -22.0251 C   0  0  0  0  0  0  0  0  0  0  0  0
  -16.2074   11.8660  -22.7257 C   0  0  0  0  0  0  0  0  0  0  0  0
  -15.7692   12.7571  -23.8461 C   0  0  0  0  0  0  0  0  0  0  0  0
  -16.6632   13.0058  -24.9005 N   0  0  0  0  0  0  0  0  0  0  0  0
  -14.6356   13.2528  -23.8196 O   0  0  0  0  0  0  0  0  0  0  0  0
  -16.7496   12.2587  -25.6515 H   0  0  0  0  0  0  0  0  0  0  0  0
  -17.2298   13.8581  -24.9900 H   0  0  0  0  0  0  0  0  0  0  0  0
  -19.7717   12.5934  -17.5634 N   0  0  0  0  0  0  0  0  0  0  0  0
  -19.5762   13.8452  -17.0042 C   0  0  0  0  0  0  0  0  0  0  0  0
  -18.2952   14.0627  -16.6630 O   0  0  0  0  0  0  0  0  0  0  0  0
  -20.6776   12.2590  -17.8674 H   0  0  0  0  0  0  0  0  0  0  0  0
  -20.4462   14.9215  -16.7230 C   0  0  0  0  0  0  0  0  0  0  0  0
  -21.7041   14.2814  -16.0065 C   0  0  0  0  0  0  0  0  0  0  0  0
  -22.6726   15.3989  -15.8885 C   0  0  0  0  0  0  0  0  0  0  0  0
  -21.8623   16.6055  -16.3869 C   0  0  0  0  0  0  0  0  0  0  0  0
  -21.0751   15.8809  -17.4891 N   0  0  0  0  0  0  0  0  0  0  0  0
  -21.2397   16.3513  -18.8122 C   0  0  0  0  0  0  0  0  0  0  0  0
  -20.7439   15.7618  -19.7697 O   0  0  0  0  0  0  0  0  0  0  0  0
  -22.0176   17.5719  -19.0610 C   0  0  0  0  0  0  0  0  0  0  0  0
  -22.4745   17.6737  -20.4822 N   0  0  0  0  0  0  0  0  0  0  0  0
  -23.8430   17.9239  -20.7173 C   0  0  0  0  0  0  0  0  0  0  0  0
  -24.6558   18.0448  -19.8110 O   0  0  0  0  0  0  0  0  0  0  0  0
  -21.8287   17.5668  -21.2822 H   0  0  0  0  0  0  0  0  0  0  0  0
  -24.2957   18.0444  -22.0428 O   0  0  0  0  0  0  0  0  0  0  0  0
  -23.5951   17.3020  -23.0510 C   0  0  0  0  0  0  0  0  0  0  0  0
  -23.4756   18.1057  -24.2457 C   0  0  0  0  0  0  0  0  0  0  0  0
  -23.1716   19.4586  -24.1266 C   0  0  0  0  0  0  0  0  0  0  0  0
  -23.0227   20.2833  -25.2382 C   0  0  0  0  0  0  0  0  0  0  0  0
  -23.1856   19.7249  -26.5013 C   0  0  0  0  0  0  0  0  0  0  0  0
  -23.4852   18.3924  -26.6368 C   0  0  0  0  0  0  0  0  0  0  0  0
  -23.6241   17.6134  -25.5100 C   0  0  0  0  0  0  0  0  0  0  0  0
  -21.1422   18.8238  -18.8788 C   0  0  0  0  0  0  0  0  0  0  0  0
  -20.3524   19.1603  -20.0647 C   0  0  0  0  0  0  0  0  0  0  0  0
  -19.0591   18.7205  -20.1261 C   0  0  0  0  0  0  0  0  0  0  0  0
  -18.2604   18.9930  -21.2007 C   0  0  0  0  0  0  0  0  0  0  0  0
  -18.7589   19.7352  -22.2671 C   0  0  0  0  0  0  0  0  0  0  0  0
  -20.0632   20.1680  -22.1824 C   0  0  0  0  0  0  0  0  0  0  0  0
  -20.8623   19.8881  -21.0937 C   0  0  0  0  0  0  0  0  0  0  0  0
  -19.1598   10.2614  -17.6917 C   0  0  0  0  0  0  0  0  0  0  0  0
  -18.6952    9.2065  -16.8308 C   0  0  0  0  0  0  0  0  0  0  0  0
  -19.0928    8.8853  -15.4689 C   0  0  0  0  0  0  0  0  0  0  0  0
  -20.2409    9.3892  -14.8527 N   0  0  0  0  0  0  0  0  0  0  0  0
  -21.1379    8.7590  -14.9788 H   0  0  0  0  0  0  0  0  0  0  0  0
  -21.4094   10.5895  -13.0514 N   0  0  0  0  0  0  0  0  0  0  0  0
  -20.4636   10.5481  -14.0951 C   0  0  0  0  0  0  0  0  0  0  0  0
  -19.8104   11.6383  -14.3284 N   0  0  0  0  0  0  0  0  0  0  0  0
  -22.3401   10.0883  -13.1719 H   0  0  0  0  0  0  0  0  0  0  0  0
  -21.2658   11.0804  -12.1611 H   0  0  0  0  0  0  0  0  0  0  0  0
  -19.0881   11.7175  -15.0768 H   0  0  0  0  0  0  0  0  0  0  0  0
 57 58  1  0  0  0
 58 59  2  0  0  0
 58 55  1  0  0  0
 55 54  1  0  0  0
 54 53  1  0  0  0
 53 52  1  0  0  0
 52  1  1  0  0  0
  1 21  1  0  0  0
 21 22  1  0  0  0
 22 23  2  0  0  0
 22 25  1  0  0  0
 25 26  1  0  0  0
 26 27  1  0  0  0
 27 28  1  0  0  0
 28 29  1  0  0  0
 29 30  1  0  0  0
 30 31  2  0  0  0
 30 32  1  0  0  0
 32 45  1  0  0  0
 45 46  1  0  0  0
 46 47  2  0  0  0
 47 48  1  0  0  0
 48 49  2  0  0  0
 49 50  1  0  0  0
 50 51  2  0  0  0
 32 33  1  0  0  0
 33 34  1  0  0  0
 34 35  2  0  0  0
 34 37  1  0  0  0
 37 38  1  0  0  0
 38 39  1  0  0  0
 39 40  2  0  0  0
 40 41  1  0  0  0
 41 42  2  0  0  0
 42 43  1  0  0  0
 43 44  2  0  0  0
  1  2  1  0  0  0
  2  3  2  0  0  0
  2  4  1  0  0  0
  4  6  1  0  0  0
  6 14  1  0  0  0
 14 15  1  0  0  0
 15 16  1  0  0  0
 16 17  1  0  0  0
 16 18  2  0  0  0
  6  7  1  0  0  0
  7  8  2  0  0  0
  7  9  1  0  0  0
  9 10  2  0  0  0
 10 11  1  0  0  0
 11 12  2  0  0  0
 12 13  1  0  0  0
 29 25  1  0  0  0
 51 46  1  0  0  0
 44 39  1  0  0  0
 13  9  1  0  0  0
 57 60  1  0  0  0
 57 61  1  0  0  0
 59 62  1  0  0  0
 55 56  1  0  0  0
 21 24  1  0  0  0
 33 36  1  0  0  0
  4  5  1  0  0  0
 17 19  1  0  0  0
 17 20  1  0  0  0
M  END
> <minimizedAffinity>
-7.73292

> <CNNscore>
0.1357327849

> <CNNaffinity>
7.2244386673

> <CNN_VS>
0.9805932045

> <CNNaffinity_variance>
1.0638630390

$$$$
[H]c1c([H])c(C(=O)N([H])c2sc(N([H])c3c([H])c([H])c4c([H])c([H])n([H])c4c3[H])nc2C(=O)N([H])[H])c([H])c([H])c1F


 33 36  0  0  0  0  0  0  0  0999 V2000
  -16.6474   11.8006  -21.2025 C   0  0  0  0  0  0  0  0  0  0  0  0
  -17.1396   11.6792  -19.9992 N   0  0  0  0  0  0  0  0  0  0  0  0
  -18.1643   12.4072  -19.5916 C   0  0  0  0  0  0  0  0  0  0  0  0
  -18.4800   13.3350  -20.9652 S   0  0  0  0  0  0  0  0  0  0  0  0
  -17.2079   12.7058  -22.0367 C   0  0  0  0  0  0  0  0  0  0  0  0
  -14.7468   11.0816  -22.6736 N   0  0  0  0  0  0  0  0  0  0  0  0
  -15.6678   10.7680  -21.6425 C   0  0  0  0  0  0  0  0  0  0  0  0
  -15.6114    9.6446  -21.1588 O   0  0  0  0  0  0  0  0  0  0  0  0
  -14.3820   12.0707  -22.6945 H   0  0  0  0  0  0  0  0  0  0  0  0
  -14.4338   10.4002  -23.3769 H   0  0  0  0  0  0  0  0  0  0  0  0
  -16.9128   13.3143  -23.2768 N   0  0  0  0  0  0  0  0  0  0  0  0
  -15.7806   13.8931  -23.8065 C   0  0  0  0  0  0  0  0  0  0  0  0
  -14.6973   14.0247  -23.1902 O   0  0  0  0  0  0  0  0  0  0  0  0
  -17.7818   13.2986  -23.9480 H   0  0  0  0  0  0  0  0  0  0  0  0
  -15.7811   14.4201  -25.2110 C   0  0  0  0  0  0  0  0  0  0  0  0
  -16.6895   13.9986  -26.1443 C   0  0  0  0  0  0  0  0  0  0  0  0
  -16.6643   14.4988  -27.4514 C   0  0  0  0  0  0  0  0  0  0  0  0
  -15.7227   15.4258  -27.8203 C   0  0  0  0  0  0  0  0  0  0  0  0
  -15.7211   15.8929  -29.0916 F   0  0  0  0  0  0  0  0  0  0  0  0
  -14.8254   15.8305  -26.8665 C   0  0  0  0  0  0  0  0  0  0  0  0
  -14.8405   15.3468  -25.5816 C   0  0  0  0  0  0  0  0  0  0  0  0
  -18.7641   12.3808  -18.3001 N   0  0  0  0  0  0  0  0  0  0  0  0
  -19.0016   13.2864  -17.8480 H   0  0  0  0  0  0  0  0  0  0  0  0
  -19.0430   11.1798  -17.6232 C   0  0  0  0  0  0  0  0  0  0  0  0
  -18.3480   10.0175  -17.7893 C   0  0  0  0  0  0  0  0  0  0  0  0
  -18.6847    8.8486  -17.1144 C   0  0  0  0  0  0  0  0  0  0  0  0
  -19.7443    8.8151  -16.2404 C   0  0  0  0  0  0  0  0  0  0  0  0
  -20.3324    7.8626  -15.4349 C   0  0  0  0  0  0  0  0  0  0  0  0
  -21.3859    8.4721  -14.7860 C   0  0  0  0  0  0  0  0  0  0  0  0
  -21.4326    9.7477  -15.1855 N   0  0  0  0  0  0  0  0  0  0  0  0
  -20.4459   10.0019  -16.0762 C   0  0  0  0  0  0  0  0  0  0  0  0
  -20.1213   11.1473  -16.7337 C   0  0  0  0  0  0  0  0  0  0  0  0
  -22.1203   10.4972  -14.8825 H   0  0  0  0  0  0  0  0  0  0  0  0
  6  7  1  0  0  0
  7  8  2  0  0  0
  7  1  1  0  0  0
  1  2  1  0  0  0
  2  3  2  0  0  0
  3 22  1  0  0  0
 22 24  1  0  0  0
 24 25  2  0  0  0
 25 26  1  0  0  0
 26 27  2  0  0  0
 27 28  1  0  0  0
 28 29  2  0  0  0
 29 30  1  0  0  0
 30 31  1  0  0  0
 31 32  2  0  0  0
  3  4  1  0  0  0
  4  5  1  0  0  0
  5 11  1  0  0  0
 11 12  1  0  0  0
 12 13  2  0  0  0
 12 15  1  0  0  0
 15 16  2  0  0  0
 16 17  1  0  0  0
 17 18  2  0  0  0
 18 19  1  0  0  0
 18 20  1  0  0  0
 20 21  2  0  0  0
  5  1  2  0  0  0
 21 15  1  0  0  0
 32 24  1  0  0  0
 31 27  1  0  0  0
  6  9  1  0  0  0
  6 10  1  0  0  0
 22 23  1  0  0  0
 30 33  1  0  0  0
 11 14  1  0  0  0
M  END
> <minimizedAffinity>
-9.65913

> <CNNscore>
0.9786977768

> <CNNaffinity>
7.1162657738

> <CNN_VS>
6.9646735191

> <CNNaffinity_variance>
0.1045664176

$$$$
[H]c1c([H])c(C(=O)N([H])c2sc(N([H])c3c([H])c([H])c4c([H])c([H])n([H])c4c3[H])nc2C(=O)N([H])[H])c([H])c([H])c1F


 33 36  0  0  0  0  0  0  0  0999 V2000
  -16.9829   11.6781  -20.7674 C   0  0  0  0  0  0  0  0  0  0  0  0
  -16.7710   12.6330  -21.6325 N   0  0  0  0  0  0  0  0  0  0  0  0
  -17.3904   13.7970  -21.5471 C   0  0  0  0  0  0  0  0  0  0  0  0
  -18.3419   13.5672  -20.1727 S   0  0  0  0  0  0  0  0  0  0  0  0
  -17.8689   11.9009  -19.7700 C   0  0  0  0  0  0  0  0  0  0  0  0
  -15.0432   10.4624  -21.7935 N   0  0  0  0  0  0  0  0  0  0  0  0
  -16.0575   10.5111  -20.8043 C   0  0  0  0  0  0  0  0  0  0  0  0
  -16.1234    9.5749  -20.0179 O   0  0  0  0  0  0  0  0  0  0  0  0
  -14.6021   11.3819  -22.0615 H   0  0  0  0  0  0  0  0  0  0  0  0
  -14.7344    9.5906  -22.2423 H   0  0  0  0  0  0  0  0  0  0  0  0
  -18.5500   11.1528  -18.7844 N   0  0  0  0  0  0  0  0  0  0  0  0
  -19.1096   11.4712  -17.5666 C   0  0  0  0  0  0  0  0  0  0  0  0
  -19.0754   12.6114  -17.0474 O   0  0  0  0  0  0  0  0  0  0  0  0
  -18.6544   10.1005  -19.0806 H   0  0  0  0  0  0  0  0  0  0  0  0
  -19.8223   10.4264  -16.7599 C   0  0  0  0  0  0  0  0  0  0  0  0
  -19.2924    9.1811  -16.5544 C   0  0  0  0  0  0  0  0  0  0  0  0
  -19.9806    8.2198  -15.8050 C   0  0  0  0  0  0  0  0  0  0  0  0
  -21.2055    8.5125  -15.2609 C   0  0  0  0  0  0  0  0  0  0  0  0
  -21.8498    7.5638  -14.5403 F   0  0  0  0  0  0  0  0  0  0  0  0
  -21.7129    9.7665  -15.4819 C   0  0  0  0  0  0  0  0  0  0  0  0
  -21.0468   10.7171  -16.2152 C   0  0  0  0  0  0  0  0  0  0  0  0
  -17.2602   14.8957  -22.4440 N   0  0  0  0  0  0  0  0  0  0  0  0
  -17.2542   15.8572  -22.0484 H   0  0  0  0  0  0  0  0  0  0  0  0
  -17.1405   14.7231  -23.8347 C   0  0  0  0  0  0  0  0  0  0  0  0
  -17.8162   13.7855  -24.5600 C   0  0  0  0  0  0  0  0  0  0  0  0
  -17.6386   13.6389  -25.9319 C   0  0  0  0  0  0  0  0  0  0  0  0
  -16.7649   14.4428  -26.6233 C   0  0  0  0  0  0  0  0  0  0  0  0
  -16.3607   14.5649  -27.9361 C   0  0  0  0  0  0  0  0  0  0  0  0
  -15.4364   15.5875  -27.9843 C   0  0  0  0  0  0  0  0  0  0  0  0
  -15.2875   16.0663  -26.7444 N   0  0  0  0  0  0  0  0  0  0  0  0
  -16.0819   15.3948  -25.8785 C   0  0  0  0  0  0  0  0  0  0  0  0
  -16.2513   15.5423  -24.5371 C   0  0  0  0  0  0  0  0  0  0  0  0
  -14.6538   16.8559  -26.4259 H   0  0  0  0  0  0  0  0  0  0  0  0
  6  7  1  0  0  0
  7  8  2  0  0  0
  7  1  1  0  0  0
  1  2  1  0  0  0
  2  3  2  0  0  0
  3 22  1  0  0  0
 22 24  1  0  0  0
 24 25  2  0  0  0
 25 26  1  0  0  0
 26 27  2  0  0  0
 27 28  1  0  0  0
 28 29  2  0  0  0
 29 30  1  0  0  0
 30 31  1  0  0  0
 31 32  2  0  0  0
  3  4  1  0  0  0
  4  5  1  0  0  0
  5 11  1  0  0  0
 11 12  1  0  0  0
 12 13  2  0  0  0
 12 15  1  0  0  0
 15 16  2  0  0  0
 16 17  1  0  0  0
 17 18  2  0  0  0
 18 19  1  0  0  0
 18 20  1  0  0  0
 20 21  2  0  0  0
  5  1  2  0  0  0
 21 15  1  0  0  0
 32 24  1  0  0  0
 31 27  1  0  0  0
  6  9  1  0  0  0
  6 10  1  0  0  0
 22 23  1  0  0  0
 30 33  1  0  0  0
 11 14  1  0  0  0
M  END
> <minimizedAffinity>
-9.27861

> <CNNscore>
0.9056050777

> <CNNaffinity>
7.1664514542

> <CNN_VS>
6.4899749756

> <CNNaffinity_variance>
0.1685837805

$$$$
[H]c1c([H])c(C(=O)N([H])c2sc(N([H])c3c([H])c([H])c4c([H])c([H])n([H])c4c3[H])nc2C(=O)N([H])[H])c([H])c([H])c1F


 33 36  0  0  0  0  0  0  0  0999 V2000
  -16.9909   11.4952  -20.3355 C   0  0  0  0  0  0  0  0  0  0  0  0
  -17.3979   11.4528  -19.0954 N   0  0  0  0  0  0  0  0  0  0  0  0
  -18.3935   12.2077  -18.6654 C   0  0  0  0  0  0  0  0  0  0  0  0
  -18.8063   13.0455  -20.0707 S   0  0  0  0  0  0  0  0  0  0  0  0
  -17.6103   12.3458  -21.1853 C   0  0  0  0  0  0  0  0  0  0  0  0
  -15.1124   10.7203  -21.8065 N   0  0  0  0  0  0  0  0  0  0  0  0
  -16.0419   10.4342  -20.7750 C   0  0  0  0  0  0  0  0  0  0  0  0
  -16.0181    9.3100  -20.2905 O   0  0  0  0  0  0  0  0  0  0  0  0
  -14.7190   11.6983  -21.8281 H   0  0  0  0  0  0  0  0  0  0  0  0
  -14.8195   10.0296  -22.5094 H   0  0  0  0  0  0  0  0  0  0  0  0
  -17.4037   12.8723  -22.4796 N   0  0  0  0  0  0  0  0  0  0  0  0
  -16.9243   14.0742  -22.9520 C   0  0  0  0  0  0  0  0  0  0  0  0
  -16.5796   15.0348  -22.2245 O   0  0  0  0  0  0  0  0  0  0  0  0
  -17.6786   12.1463  -23.2564 H   0  0  0  0  0  0  0  0  0  0  0  0
  -16.7811   14.3098  -24.4265 C   0  0  0  0  0  0  0  0  0  0  0  0
  -17.1859   13.3861  -25.3522 C   0  0  0  0  0  0  0  0  0  0  0  0
  -17.0339   13.6254  -26.7229 C   0  0  0  0  0  0  0  0  0  0  0  0
  -16.4730   14.7973  -27.1635 C   0  0  0  0  0  0  0  0  0  0  0  0
  -16.3377   15.0029  -28.4953 F   0  0  0  0  0  0  0  0  0  0  0  0
  -16.0765   15.7046  -26.2157 C   0  0  0  0  0  0  0  0  0  0  0  0
  -16.2207   15.4807  -24.8688 C   0  0  0  0  0  0  0  0  0  0  0  0
  -18.9019   12.2660  -17.3363 N   0  0  0  0  0  0  0  0  0  0  0  0
  -18.6362   13.0765  -16.7418 H   0  0  0  0  0  0  0  0  0  0  0  0
  -19.7442   11.2715  -16.8073 C   0  0  0  0  0  0  0  0  0  0  0  0
  -21.0222   11.4855  -16.3800 C   0  0  0  0  0  0  0  0  0  0  0  0
  -21.8031   10.4699  -15.8377 C   0  0  0  0  0  0  0  0  0  0  0  0
  -21.3146    9.1923  -15.7088 C   0  0  0  0  0  0  0  0  0  0  0  0
  -21.7983    7.9917  -15.2331 C   0  0  0  0  0  0  0  0  0  0  0  0
  -20.7930    7.0593  -15.3833 C   0  0  0  0  0  0  0  0  0  0  0  0
  -19.7392    7.6750  -15.9303 N   0  0  0  0  0  0  0  0  0  0  0  0
  -20.0139    8.9825  -16.1467 C   0  0  0  0  0  0  0  0  0  0  0  0
  -19.2458    9.9716  -16.6772 C   0  0  0  0  0  0  0  0  0  0  0  0
  -18.7987    7.2515  -16.1805 H   0  0  0  0  0  0  0  0  0  0  0  0
  6  7  1  0  0  0
  7  8  2  0  0  0
  7  1  1  0  0  0
  1  2  1  0  0  0
  2  3  2  0  0  0
  3 22  1  0  0  0
 22 24  1  0  0  0
 24 25  2  0  0  0
 25 26  1  0  0  0
 26 27  2  0  0  0
 27 28  1  0  0  0
 28 29  2  0  0  0
 29 30  1  0  0  0
 30 31  1  0  0  0
 31 32  2  0  0  0
  3  4  1  0  0  0
  4  5  1  0  0  0
  5 11  1  0  0  0
 11 12  1  0  0  0
 12 13  2  0  0  0
 12 15  1  0  0  0
 15 16  2  0  0  0
 16 17  1  0  0  0
 17 18  2  0  0  0
 18 19  1  0  0  0
 18 20  1  0  0  0
 20 21  2  0  0  0
  5  1  2  0  0  0
 21 15  1  0  0  0
 32 24  1  0  0  0
 31 27  1  0  0  0
  6  9  1  0  0  0
  6 10  1  0  0  0
 22 23  1  0  0  0
 30 33  1  0  0  0
 11 14  1  0  0  0
M  END
> <minimizedAffinity>
-9.10533

> <CNNscore>
0.8979048729

> <CNNaffinity>
6.9318418503

> <CNN_VS>
6.2241344452

> <CNNaffinity_variance>
0.1015779227

$$$$
[H]c1c([H])c(C(=O)N([H])c2sc(N([H])c3c([H])c([H])c4c([H])c([H])n([H])c4c3[H])nc2C(=O)N([H])[H])c([H])c([H])c1F


 33 36  0  0  0  0  0  0  0  0999 V2000
  -16.8287   11.7492  -20.7874 C   0  0  0  0  0  0  0  0  0  0  0  0
  -17.3514   11.6673  -19.5936 N   0  0  0  0  0  0  0  0  0  0  0  0
  -18.3525   12.4443  -19.2193 C   0  0  0  0  0  0  0  0  0  0  0  0
  -18.5985   13.3636  -20.6127 S   0  0  0  0  0  0  0  0  0  0  0  0
  -17.3318   12.6645  -21.6467 C   0  0  0  0  0  0  0  0  0  0  0  0
  -14.9532   10.9160  -22.2301 N   0  0  0  0  0  0  0  0  0  0  0  0
  -15.8852   10.6691  -21.1907 C   0  0  0  0  0  0  0  0  0  0  0  0
  -15.8679    9.5613  -20.6695 O   0  0  0  0  0  0  0  0  0  0  0  0
  -14.5544   11.8906  -22.2834 H   0  0  0  0  0  0  0  0  0  0  0  0
  -14.6635   10.2009  -22.9095 H   0  0  0  0  0  0  0  0  0  0  0  0
  -16.9844   13.2408  -22.8886 N   0  0  0  0  0  0  0  0  0  0  0  0
  -16.3252   14.3951  -23.2501 C   0  0  0  0  0  0  0  0  0  0  0  0
  -15.8997   15.2515  -22.4401 O   0  0  0  0  0  0  0  0  0  0  0  0
  -17.3072   12.6101  -23.7276 H   0  0  0  0  0  0  0  0  0  0  0  0
  -16.0683   14.7040  -24.6954 C   0  0  0  0  0  0  0  0  0  0  0  0
  -16.8796   14.2353  -25.6934 C   0  0  0  0  0  0  0  0  0  0  0  0
  -16.6142   14.5300  -27.0358 C   0  0  0  0  0  0  0  0  0  0  0  0
  -15.5295   15.2985  -27.3749 C   0  0  0  0  0  0  0  0  0  0  0  0
  -15.2961   15.5683  -28.6815 F   0  0  0  0  0  0  0  0  0  0  0  0
  -14.7340   15.7548  -26.3563 C   0  0  0  0  0  0  0  0  0  0  0  0
  -14.9845   15.4720  -25.0363 C   0  0  0  0  0  0  0  0  0  0  0  0
  -18.9805   12.4633  -17.9411 N   0  0  0  0  0  0  0  0  0  0  0  0
  -19.0509   11.5706  -17.4130 H   0  0  0  0  0  0  0  0  0  0  0  0
  -19.5033   13.6404  -17.3759 C   0  0  0  0  0  0  0  0  0  0  0  0
  -20.7671   13.7652  -16.8770 C   0  0  0  0  0  0  0  0  0  0  0  0
  -21.2435   14.9630  -16.3541 C   0  0  0  0  0  0  0  0  0  0  0  0
  -20.4512   16.0849  -16.3167 C   0  0  0  0  0  0  0  0  0  0  0  0
  -20.5985   17.3859  -15.8838 C   0  0  0  0  0  0  0  0  0  0  0  0
  -19.4065   18.0345  -16.1300 C   0  0  0  0  0  0  0  0  0  0  0  0
  -18.5686   17.1564  -16.6918 N   0  0  0  0  0  0  0  0  0  0  0  0
  -19.1665   15.9495  -16.8253 C   0  0  0  0  0  0  0  0  0  0  0  0
  -18.6956   14.7811  -17.3380 C   0  0  0  0  0  0  0  0  0  0  0  0
  -17.5694   17.3243  -17.0078 H   0  0  0  0  0  0  0  0  0  0  0  0
  6  7  1  0  0  0
  7  8  2  0  0  0
  7  1  1  0  0  0
  1  2  1  0  0  0
  2  3  2  0  0  0
  3 22  1  0  0  0
 22 24  1  0  0  0
 24 25  2  0  0  0
 25 26  1  0  0  0
 26 27  2  0  0  0
 27 28  1  0  0  0
 28 29  2  0  0  0
 29 30  1  0  0  0
 30 31  1  0  0  0
 31 32  2  0  0  0
  3  4  1  0  0  0
  4  5  1  0  0  0
  5 11  1  0  0  0
 11 12  1  0  0  0
 12 13  2  0  0  0
 12 15  1  0  0  0
 15 16  2  0  0  0
 16 17  1  0  0  0
 17 18  2  0  0  0
 18 19  1  0  0  0
 18 20  1  0  0  0
 20 21  2  0  0  0
  5  1  2  0  0  0
 21 15  1  0  0  0
 32 24  1  0  0  0
 31 27  1  0  0  0
  6  9  1  0  0  0
  6 10  1  0  0  0
 22 23  1  0  0  0
 30 33  1  0  0  0
 11 14  1  0  0  0
M  END
> <minimizedAffinity>
-8.79558

> <CNNscore>
0.8722398281

> <CNNaffinity>
7.1629285812

> <CNN_VS>
6.2477917671

> <CNNaffinity_variance>
0.0962023586

$$$$
[H]c1c([H])c(C(=O)N([H])c2sc(N([H])c3c([H])c([H])c4c([H])c([H])n([H])c4c3[H])nc2C(=O)N([H])[H])c([H])c([H])c1F


 33 36  0  0  0  0  0  0  0  0999 V2000
  -16.7346   11.7307  -21.1651 C   0  0  0  0  0  0  0  0  0  0  0  0
  -17.2716   11.5981  -19.9823 N   0  0  0  0  0  0  0  0  0  0  0  0
  -18.3320   12.2977  -19.6189 C   0  0  0  0  0  0  0  0  0  0  0  0
  -18.6177   13.2133  -21.0071 S   0  0  0  0  0  0  0  0  0  0  0  0
  -17.2861   12.6180  -22.0242 C   0  0  0  0  0  0  0  0  0  0  0  0
  -14.7813   11.0483  -22.5835 N   0  0  0  0  0  0  0  0  0  0  0  0
  -15.7094   10.7252  -21.5618 C   0  0  0  0  0  0  0  0  0  0  0  0
  -15.6207    9.6166  -21.0496 O   0  0  0  0  0  0  0  0  0  0  0  0
  -14.4529   12.0495  -22.6222 H   0  0  0  0  0  0  0  0  0  0  0  0
  -14.4300   10.3624  -23.2640 H   0  0  0  0  0  0  0  0  0  0  0  0
  -16.9583   13.2319  -23.2534 N   0  0  0  0  0  0  0  0  0  0  0  0
  -16.1512   14.2926  -23.6011 C   0  0  0  0  0  0  0  0  0  0  0  0
  -15.5201   15.0012  -22.7823 O   0  0  0  0  0  0  0  0  0  0  0  0
  -17.4536   12.7316  -24.0962 H   0  0  0  0  0  0  0  0  0  0  0  0
  -15.9745   14.6746  -25.0410 C   0  0  0  0  0  0  0  0  0  0  0  0
  -16.8109   14.2145  -26.0221 C   0  0  0  0  0  0  0  0  0  0  0  0
  -16.6204   14.5782  -27.3603 C   0  0  0  0  0  0  0  0  0  0  0  0
  -15.5855   15.4072  -27.7122 C   0  0  0  0  0  0  0  0  0  0  0  0
  -15.4242   15.7431  -29.0143 F   0  0  0  0  0  0  0  0  0  0  0  0
  -14.7633   15.8533  -26.7103 C   0  0  0  0  0  0  0  0  0  0  0  0
  -14.9405   15.5032  -25.3946 C   0  0  0  0  0  0  0  0  0  0  0  0
  -18.9826   12.2571  -18.3525 N   0  0  0  0  0  0  0  0  0  0  0  0
  -19.0652   11.3401  -17.8697 H   0  0  0  0  0  0  0  0  0  0  0  0
  -19.5118   13.4074  -17.7401 C   0  0  0  0  0  0  0  0  0  0  0  0
  -18.7670   14.4602  -17.2947 C   0  0  0  0  0  0  0  0  0  0  0  0
  -19.3401   15.5627  -16.6692 C   0  0  0  0  0  0  0  0  0  0  0  0
  -20.6977   15.6393  -16.4719 C   0  0  0  0  0  0  0  0  0  0  0  0
  -21.5655   16.5512  -15.9087 C   0  0  0  0  0  0  0  0  0  0  0  0
  -22.8368   16.0292  -16.0251 C   0  0  0  0  0  0  0  0  0  0  0  0
  -22.7404   14.8437  -16.6369 N   0  0  0  0  0  0  0  0  0  0  0  0
  -21.4487   14.5647  -16.9287 C   0  0  0  0  0  0  0  0  0  0  0  0
  -20.8936   13.4842  -17.5405 C   0  0  0  0  0  0  0  0  0  0  0  0
  -23.5273   14.1755  -16.8837 H   0  0  0  0  0  0  0  0  0  0  0  0
  6  7  1  0  0  0
  7  8  2  0  0  0
  7  1  1  0  0  0
  1  2  1  0  0  0
  2  3  2  0  0  0
  3 22  1  0  0  0
 22 24  1  0  0  0
 24 25  2  0  0  0
 25 26  1  0  0  0
 26 27  2  0  0  0
 27 28  1  0  0  0
 28 29  2  0  0  0
 29 30  1  0  0  0
 30 31  1  0  0  0
 31 32  2  0  0  0
  3  4  1  0  0  0
  4  5  1  0  0  0
  5 11  1  0  0  0
 11 12  1  0  0  0
 12 13  2  0  0  0
 12 15  1  0  0  0
 15 16  2  0  0  0
 16 17  1  0  0  0
 17 18  2  0  0  0
 18 19  1  0  0  0
 18 20  1  0  0  0
 20 21  2  0  0  0
  5  1  2  0  0  0
 21 15  1  0  0  0
 32 24  1  0  0  0
 31 27  1  0  0  0
  6  9  1  0  0  0
  6 10  1  0  0  0
 22 23  1  0  0  0
 30 33  1  0  0  0
 11 14  1  0  0  0
M  END
> <minimizedAffinity>
-8.73328

> <CNNscore>
0.8374882936

> <CNNaffinity>
6.9830193520

> <CNN_VS>
5.8481969833

> <CNNaffinity_variance>
0.1028379053

$$$$
[H]c1c([H])c(C(=O)N([H])c2sc(N([H])c3c([H])c([H])c4c([H])c([H])n([H])c4c3[H])nc2C(=O)N([H])[H])c([H])c([H])c1F


 33 36  0  0  0  0  0  0  0  0999 V2000
  -18.3437   12.7102  -20.1876 C   0  0  0  0  0  0  0  0  0  0  0  0
  -18.4537   11.8116  -19.2466 N   0  0  0  0  0  0  0  0  0  0  0  0
  -17.5933   10.8149  -19.1347 C   0  0  0  0  0  0  0  0  0  0  0  0
  -16.5494   11.1308  -20.4221 S   0  0  0  0  0  0  0  0  0  0  0  0
  -17.3219   12.5972  -21.0665 C   0  0  0  0  0  0  0  0  0  0  0  0
  -18.6076   15.1723  -19.7853 N   0  0  0  0  0  0  0  0  0  0  0  0
  -19.2058   13.9200  -20.0748 C   0  0  0  0  0  0  0  0  0  0  0  0
  -20.4215   13.8958  -20.2185 O   0  0  0  0  0  0  0  0  0  0  0  0
  -17.6562   15.3480  -20.2046 H   0  0  0  0  0  0  0  0  0  0  0  0
  -19.0554   15.8896  -19.2006 H   0  0  0  0  0  0  0  0  0  0  0  0
  -16.9331   13.1601  -22.3023 N   0  0  0  0  0  0  0  0  0  0  0  0
  -16.4658   14.4005  -22.6772 C   0  0  0  0  0  0  0  0  0  0  0  0
  -16.3207   15.3692  -21.8953 O   0  0  0  0  0  0  0  0  0  0  0  0
  -17.0177   12.4311  -23.1192 H   0  0  0  0  0  0  0  0  0  0  0  0
  -16.0875   14.6722  -24.1032 C   0  0  0  0  0  0  0  0  0  0  0  0
  -14.8346   15.0980  -24.4536 C   0  0  0  0  0  0  0  0  0  0  0  0
  -14.5081   15.3533  -25.7906 C   0  0  0  0  0  0  0  0  0  0  0  0
  -15.4448   15.1795  -26.7777 C   0  0  0  0  0  0  0  0  0  0  0  0
  -15.1020   15.4338  -28.0631 F   0  0  0  0  0  0  0  0  0  0  0  0
  -16.6910   14.7523  -26.3994 C   0  0  0  0  0  0  0  0  0  0  0  0
  -17.0226   14.4990  -25.0913 C   0  0  0  0  0  0  0  0  0  0  0  0
  -17.6292    9.7666  -18.1712 N   0  0  0  0  0  0  0  0  0  0  0  0
  -16.8268    9.1068  -18.1302 H   0  0  0  0  0  0  0  0  0  0  0  0
  -18.7056    9.5972  -17.2817 C   0  0  0  0  0  0  0  0  0  0  0  0
  -18.9484    8.4607  -16.5670 C   0  0  0  0  0  0  0  0  0  0  0  0
  -20.0459    8.3362  -15.7213 C   0  0  0  0  0  0  0  0  0  0  0  0
  -20.9425    9.3658  -15.5675 C   0  0  0  0  0  0  0  0  0  0  0  0
  -22.0953    9.5732  -14.8396 C   0  0  0  0  0  0  0  0  0  0  0  0
  -22.5358   10.8479  -15.1286 C   0  0  0  0  0  0  0  0  0  0  0  0
  -21.6794   11.3913  -16.0005 N   0  0  0  0  0  0  0  0  0  0  0  0
  -20.6880   10.5191  -16.2973 C   0  0  0  0  0  0  0  0  0  0  0  0
  -19.6169   10.6462  -17.1258 C   0  0  0  0  0  0  0  0  0  0  0  0
  -21.7202   12.3605  -16.4312 H   0  0  0  0  0  0  0  0  0  0  0  0
  6  7  1  0  0  0
  7  8  2  0  0  0
  7  1  1  0  0  0
  1  2  1  0  0  0
  2  3  2  0  0  0
  3 22  1  0  0  0
 22 24  1  0  0  0
 24 25  2  0  0  0
 25 26  1  0  0  0
 26 27  2  0  0  0
 27 28  1  0  0  0
 28 29  2  0  0  0
 29 30  1  0  0  0
 30 31  1  0  0  0
 31 32  2  0  0  0
  3  4  1  0  0  0
  4  5  1  0  0  0
  5 11  1  0  0  0
 11 12  1  0  0  0
 12 13  2  0  0  0
 12 15  1  0  0  0
 15 16  2  0  0  0
 16 17  1  0  0  0
 17 18  2  0  0  0
 18 19  1  0  0  0
 18 20  1  0  0  0
 20 21  2  0  0  0
  5  1  2  0  0  0
 21 15  1  0  0  0
 32 24  1  0  0  0
 31 27  1  0  0  0
  6  9  1  0  0  0
  6 10  1  0  0  0
 22 23  1  0  0  0
 30 33  1  0  0  0
 11 14  1  0  0  0
M  END
> <minimizedAffinity>
-8.85775

> <CNNscore>
0.7688418031

> <CNNaffinity>
6.7565269470

> <CNN_VS>
5.1947002411

> <CNNaffinity_variance>
0.0129491119

$$$$
[H]c1c([H])c(C(=O)N([H])c2sc(N([H])c3c([H])c([H])c4c([H])c([H])n([H])c4c3[H])nc2C(=O)N([H])[H])c([H])c([H])c1F


 33 36  0  0  0  0  0  0  0  0999 V2000
  -16.7071   12.1353  -21.6618 C   0  0  0  0  0  0  0  0  0  0  0  0
  -16.6199   13.0871  -22.5515 N   0  0  0  0  0  0  0  0  0  0  0  0
  -17.3109   14.2078  -22.4391 C   0  0  0  0  0  0  0  0  0  0  0  0
  -18.1500   13.9380  -21.0003 S   0  0  0  0  0  0  0  0  0  0  0  0
  -17.5375   12.3149  -20.6094 C   0  0  0  0  0  0  0  0  0  0  0  0
  -14.6990   11.0882  -22.7409 N   0  0  0  0  0  0  0  0  0  0  0  0
  -15.7081   11.0334  -21.7466 C   0  0  0  0  0  0  0  0  0  0  0  0
  -15.7081   10.0659  -20.9962 O   0  0  0  0  0  0  0  0  0  0  0  0
  -14.3203   12.0439  -22.9754 H   0  0  0  0  0  0  0  0  0  0  0  0
  -14.3371   10.2558  -23.2237 H   0  0  0  0  0  0  0  0  0  0  0  0
  -18.0979   11.5396  -19.5702 N   0  0  0  0  0  0  0  0  0  0  0  0
  -18.4411   11.8071  -18.2632 C   0  0  0  0  0  0  0  0  0  0  0  0
  -18.2608   12.9094  -17.6946 O   0  0  0  0  0  0  0  0  0  0  0  0
  -18.3075   10.5144  -19.9031 H   0  0  0  0  0  0  0  0  0  0  0  0
  -19.0776   10.7489  -17.4116 C   0  0  0  0  0  0  0  0  0  0  0  0
  -18.5798    9.4755  -17.3427 C   0  0  0  0  0  0  0  0  0  0  0  0
  -19.1966    8.5028  -16.5474 C   0  0  0  0  0  0  0  0  0  0  0  0
  -20.3174    8.8122  -15.8192 C   0  0  0  0  0  0  0  0  0  0  0  0
  -20.8942    7.8518  -15.0580 F   0  0  0  0  0  0  0  0  0  0  0  0
  -20.7947   10.0941  -15.9062 C   0  0  0  0  0  0  0  0  0  0  0  0
  -20.1980   11.0563  -16.6830 C   0  0  0  0  0  0  0  0  0  0  0  0
  -17.3171   15.2970  -23.3568 N   0  0  0  0  0  0  0  0  0  0  0  0
  -16.7570   15.2106  -24.2285 H   0  0  0  0  0  0  0  0  0  0  0  0
  -18.0500   16.4746  -23.1237 C   0  0  0  0  0  0  0  0  0  0  0  0
  -19.2476   16.7700  -23.7068 C   0  0  0  0  0  0  0  0  0  0  0  0
  -19.9176   17.9644  -23.4622 C   0  0  0  0  0  0  0  0  0  0  0  0
  -19.3953   18.9085  -22.6116 C   0  0  0  0  0  0  0  0  0  0  0  0
  -19.7794   20.1536  -22.1601 C   0  0  0  0  0  0  0  0  0  0  0  0
  -18.7963   20.5961  -21.2998 C   0  0  0  0  0  0  0  0  0  0  0  0
  -17.8516   19.6517  -21.2340 N   0  0  0  0  0  0  0  0  0  0  0  0
  -18.1770   18.6001  -22.0216 C   0  0  0  0  0  0  0  0  0  0  0  0
  -17.5175   17.4343  -22.2574 C   0  0  0  0  0  0  0  0  0  0  0  0
  -16.9560   19.6689  -20.6647 H   0  0  0  0  0  0  0  0  0  0  0  0
  6  7  1  0  0  0
  7  8  2  0  0  0
  7  1  1  0  0  0
  1  2  1  0  0  0
  2  3  2  0  0  0
  3 22  1  0  0  0
 22 24  1  0  0  0
 24 25  2  0  0  0
 25 26  1  0  0  0
 26 27  2  0  0  0
 27 28  1  0  0  0
 28 29  2  0  0  0
 29 30  1  0  0  0
 30 31  1  0  0  0
 31 32  2  0  0  0
  3  4  1  0  0  0
  4  5  1  0  0  0
  5 11  1  0  0  0
 11 12  1  0  0  0
 12 13  2  0  0  0
 12 15  1  0  0  0
 15 16  2  0  0  0
 16 17  1  0  0  0
 17 18  2  0  0  0
 18 19  1  0  0  0
 18 20  1  0  0  0
 20 21  2  0  0  0
  5  1  2  0  0  0
 21 15  1  0  0  0
 32 24  1  0  0  0
 31 27  1  0  0  0
  6  9  1  0  0  0
  6 10  1  0  0  0
 22 23  1  0  0  0
 30 33  1  0  0  0
 11 14  1  0  0  0
M  END
> <minimizedAffinity>
-8.09884

> <CNNscore>
0.7594231963

> <CNNaffinity>
6.8960237503

> <CNN_VS>
5.2370004654

> <CNNaffinity_variance>
0.1283565909

$$$$
[H]c1c([H])c(C(=O)N([H])c2sc(N([H])c3c([H])c([H])c4c([H])c([H])n([H])c4c3[H])nc2C(=O)N([H])[H])c([H])c([H])c1F


 33 36  0  0  0  0  0  0  0  0999 V2000
  -17.6583   13.2681  -20.4080 C   0  0  0  0  0  0  0  0  0  0  0  0
  -17.7845   12.3691  -19.4694 N   0  0  0  0  0  0  0  0  0  0  0  0
  -17.2778   11.1555  -19.5980 C   0  0  0  0  0  0  0  0  0  0  0  0
  -16.5724   11.2503  -21.1279 S   0  0  0  0  0  0  0  0  0  0  0  0
  -16.9963   12.9280  -21.5374 C   0  0  0  0  0  0  0  0  0  0  0  0
  -18.4331   14.9707  -18.7365 N   0  0  0  0  0  0  0  0  0  0  0  0
  -18.0404   14.6664  -20.0643 C   0  0  0  0  0  0  0  0  0  0  0  0
  -18.0366   15.5838  -20.8752 O   0  0  0  0  0  0  0  0  0  0  0  0
  -17.9355   14.4492  -17.9669 H   0  0  0  0  0  0  0  0  0  0  0  0
  -19.1615   15.6592  -18.5074 H   0  0  0  0  0  0  0  0  0  0  0  0
  -16.7984   13.4488  -22.8354 N   0  0  0  0  0  0  0  0  0  0  0  0
  -15.7943   13.3184  -23.7694 C   0  0  0  0  0  0  0  0  0  0  0  0
  -14.7412   12.6629  -23.5909 O   0  0  0  0  0  0  0  0  0  0  0  0
  -17.6432   14.0764  -23.1487 H   0  0  0  0  0  0  0  0  0  0  0  0
  -15.9109   13.9818  -25.1098 C   0  0  0  0  0  0  0  0  0  0  0  0
  -16.8263   13.5763  -26.0434 C   0  0  0  0  0  0  0  0  0  0  0  0
  -16.9103   14.2057  -27.2908 C   0  0  0  0  0  0  0  0  0  0  0  0
  -16.0708   15.2459  -27.5998 C   0  0  0  0  0  0  0  0  0  0  0  0
  -16.1735   15.8368  -28.8141 F   0  0  0  0  0  0  0  0  0  0  0  0
  -15.1640   15.6316  -26.6471 C   0  0  0  0  0  0  0  0  0  0  0  0
  -15.0727   15.0218  -25.4203 C   0  0  0  0  0  0  0  0  0  0  0  0
  -17.3768   10.0903  -18.6578 N   0  0  0  0  0  0  0  0  0  0  0  0
  -16.6251    9.3722  -18.6452 H   0  0  0  0  0  0  0  0  0  0  0  0
  -18.4490    9.9799  -17.7542 C   0  0  0  0  0  0  0  0  0  0  0  0
  -19.2976   10.9982  -17.4309 C   0  0  0  0  0  0  0  0  0  0  0  0
  -20.3263   10.8421  -16.5075 C   0  0  0  0  0  0  0  0  0  0  0  0
  -20.5343    9.6405  -15.8748 C   0  0  0  0  0  0  0  0  0  0  0  0
  -21.4259    9.1554  -14.9412 C   0  0  0  0  0  0  0  0  0  0  0  0
  -21.0987    7.8351  -14.7129 C   0  0  0  0  0  0  0  0  0  0  0  0
  -20.0465    7.5332  -15.4814 N   0  0  0  0  0  0  0  0  0  0  0  0
  -19.6673    8.6091  -16.2097 C   0  0  0  0  0  0  0  0  0  0  0  0
  -18.6598    8.7563  -17.1114 C   0  0  0  0  0  0  0  0  0  0  0  0
  -19.5406    6.6028  -15.5517 H   0  0  0  0  0  0  0  0  0  0  0  0
  6  7  1  0  0  0
  7  8  2  0  0  0
  7  1  1  0  0  0
  1  2  1  0  0  0
  2  3  2  0  0  0
  3 22  1  0  0  0
 22 24  1  0  0  0
 24 25  2  0  0  0
 25 26  1  0  0  0
 26 27  2  0  0  0
 27 28  1  0  0  0
 28 29  2  0  0  0
 29 30  1  0  0  0
 30 31  1  0  0  0
 31 32  2  0  0  0
  3  4  1  0  0  0
  4  5  1  0  0  0
  5 11  1  0  0  0
 11 12  1  0  0  0
 12 13  2  0  0  0
 12 15  1  0  0  0
 15 16  2  0  0  0
 16 17  1  0  0  0
 17 18  2  0  0  0
 18 19  1  0  0  0
 18 20  1  0  0  0
 20 21  2  0  0  0
  5  1  2  0  0  0
 21 15  1  0  0  0
 32 24  1  0  0  0
 31 27  1  0  0  0
  6  9  1  0  0  0
  6 10  1  0  0  0
 22 23  1  0  0  0
 30 33  1  0  0  0
 11 14  1  0  0  0
M  END
> <minimizedAffinity>
-9.53085

> <CNNscore>
0.7100582719

> <CNNaffinity>
6.7724227905

> <CNN_VS>
4.8088150024

> <CNNaffinity_variance>
0.0514790528

$$$$
[H]c1c([H])c(C(=O)N([H])c2sc(N([H])c3c([H])c([H])c4c([H])c([H])n([H])c4c3[H])nc2C(=O)N([H])[H])c([H])c([H])c1F


 33 36  0  0  0  0  0  0  0  0999 V2000
  -17.1392   11.8862  -20.2808 C   0  0  0  0  0  0  0  0  0  0  0  0
  -17.7039   11.8728  -19.1035 N   0  0  0  0  0  0  0  0  0  0  0  0
  -18.6447   12.7406  -18.7749 C   0  0  0  0  0  0  0  0  0  0  0  0
  -18.7663   13.6507  -20.1906 S   0  0  0  0  0  0  0  0  0  0  0  0
  -17.5337   12.8249  -21.1710 C   0  0  0  0  0  0  0  0  0  0  0  0
  -16.2878    9.5761  -19.7993 N   0  0  0  0  0  0  0  0  0  0  0  0
  -16.2812   10.7210  -20.6353 C   0  0  0  0  0  0  0  0  0  0  0  0
  -15.5572   10.6941  -21.6223 O   0  0  0  0  0  0  0  0  0  0  0  0
  -17.2094    9.3239  -19.3533 H   0  0  0  0  0  0  0  0  0  0  0  0
  -15.4528    9.0038  -19.6200 H   0  0  0  0  0  0  0  0  0  0  0  0
  -17.0990   13.3450  -22.4102 N   0  0  0  0  0  0  0  0  0  0  0  0
  -16.4811   14.5177  -22.7851 C   0  0  0  0  0  0  0  0  0  0  0  0
  -16.1956   15.4511  -21.9990 O   0  0  0  0  0  0  0  0  0  0  0  0
  -17.2940   12.6418  -23.2308 H   0  0  0  0  0  0  0  0  0  0  0  0
  -16.0985   14.7525  -24.2166 C   0  0  0  0  0  0  0  0  0  0  0  0
  -14.8961   15.3060  -24.5654 C   0  0  0  0  0  0  0  0  0  0  0  0
  -14.5654   15.5232  -25.9080 C   0  0  0  0  0  0  0  0  0  0  0  0
  -15.4469   15.1825  -26.9024 C   0  0  0  0  0  0  0  0  0  0  0  0
  -15.1014   15.4037  -28.1932 F   0  0  0  0  0  0  0  0  0  0  0  0
  -16.6434   14.6301  -26.5255 C   0  0  0  0  0  0  0  0  0  0  0  0
  -16.9785   14.4125  -25.2119 C   0  0  0  0  0  0  0  0  0  0  0  0
  -19.3081   12.8384  -17.5184 N   0  0  0  0  0  0  0  0  0  0  0  0
  -19.3159   13.7589  -17.0352 H   0  0  0  0  0  0  0  0  0  0  0  0
  -19.9471   11.7396  -16.9162 C   0  0  0  0  0  0  0  0  0  0  0  0
  -21.1600   11.7945  -16.2937 C   0  0  0  0  0  0  0  0  0  0  0  0
  -21.7344   10.6814  -15.6884 C   0  0  0  0  0  0  0  0  0  0  0  0
  -21.0970    9.4644  -15.6926 C   0  0  0  0  0  0  0  0  0  0  0  0
  -21.3696    8.2032  -15.2059 C   0  0  0  0  0  0  0  0  0  0  0  0
  -20.3046    7.3959  -15.5470 C   0  0  0  0  0  0  0  0  0  0  0  0
  -19.4197    8.1430  -16.2161 N   0  0  0  0  0  0  0  0  0  0  0  0
  -19.8638    9.4165  -16.3287 C   0  0  0  0  0  0  0  0  0  0  0  0
  -19.2973   10.5015  -16.9218 C   0  0  0  0  0  0  0  0  0  0  0  0
  -18.4885    7.8365  -16.6229 H   0  0  0  0  0  0  0  0  0  0  0  0
  6  7  1  0  0  0
  7  8  2  0  0  0
  7  1  1  0  0  0
  1  2  1  0  0  0
  2  3  2  0  0  0
  3 22  1  0  0  0
 22 24  1  0  0  0
 24 25  2  0  0  0
 25 26  1  0  0  0
 26 27  2  0  0  0
 27 28  1  0  0  0
 28 29  2  0  0  0
 29 30  1  0  0  0
 30 31  1  0  0  0
 31 32  2  0  0  0
  3  4  1  0  0  0
  4  5  1  0  0  0
  5 11  1  0  0  0
 11 12  1  0  0  0
 12 13  2  0  0  0
 12 15  1  0  0  0
 15 16  2  0  0  0
 16 17  1  0  0  0
 17 18  2  0  0  0
 18 19  1  0  0  0
 18 20  1  0  0  0
 20 21  2  0  0  0
  5  1  2  0  0  0
 21 15  1  0  0  0
 32 24  1  0  0  0
 31 27  1  0  0  0
  6  9  1  0  0  0
  6 10  1  0  0  0
 22 23  1  0  0  0
 30 33  1  0  0  0
 11 14  1  0  0  0
M  END
> <minimizedAffinity>
-8.85562

> <CNNscore>
0.6415960789

> <CNNaffinity>
6.6757316589

> <CNN_VS>
4.2831234932

> <CNNaffinity_variance>
0.0503589697

$$$$
[H]c1c([H])c([H])c(C([H])([H])[C@@]2([H])C(=O)N([H])[C@@]([H])(C([H])(C([H])([H])[H])C([H])([H])[H])C(=O)N([H])[C@@]([H])(C([H])([H])c3c([H])n([H])c4c([H])c([H])c([H])c([H])c34)C(=O)N3C([H])([H])C([H])([H])C([H])([H])[C@@]3([H])C(=O)N([H])[C@@]([H])(C([H])([H])c3c([H])c([H])c([H])c([H])c3[H])C(=O)N([H])[C@]([H])(C([H])([H])c3c([H])n([H])c4c([H])c([H])c([H])c([H])c34)C(=O)N2[H])c([H])c1[H]


 71 78  0  0  0  0  0  0  0  0999 V2000
  -21.0068   17.1530  -19.4331 C   0  0  0  0  0  0  0  0  0  0  0  0
  -22.1954   16.5474  -18.9511 N   0  0  0  0  0  0  0  0  0  0  0  0
  -22.8653   16.4211  -17.7467 C   0  0  0  0  0  0  0  0  0  0  0  0
  -23.2256   15.1859  -17.5007 O   0  0  0  0  0  0  0  0  0  0  0  0
  -23.2799   17.3285  -16.6774 C   0  0  0  0  0  0  0  0  0  0  0  0
  -23.9188   16.6687  -15.5465 N   0  0  0  0  0  0  0  0  0  0  0  0
  -23.8634   15.3804  -15.0501 C   0  0  0  0  0  0  0  0  0  0  0  0
  -24.9462   14.6690  -15.2041 O   0  0  0  0  0  0  0  0  0  0  0  0
  -22.8044   14.6279  -14.3631 C   0  0  0  0  0  0  0  0  0  0  0  0
  -22.9153   13.2082  -14.5992 N   0  0  0  0  0  0  0  0  0  0  0  0
  -22.2169   12.3284  -15.4139 C   0  0  0  0  0  0  0  0  0  0  0  0
  -22.9218   11.3459  -15.9289 O   0  0  0  0  0  0  0  0  0  0  0  0
  -20.8017   12.2945  -15.8163 C   0  0  0  0  0  0  0  0  0  0  0  0
  -20.5592   13.1876  -16.9019 N   0  0  0  0  0  0  0  0  0  0  0  0
  -20.2670   12.8811  -18.2608 C   0  0  0  0  0  0  0  0  0  0  0  0
  -21.1194   13.1991  -19.1862 O   0  0  0  0  0  0  0  0  0  0  0  0
  -19.0928   12.2315  -18.7774 C   0  0  0  0  0  0  0  0  0  0  0  0
  -17.8716   12.1460  -17.9286 C   0  0  0  0  0  0  0  0  0  0  0  0
  -16.8572   11.5886  -18.9459 C   0  0  0  0  0  0  0  0  0  0  0  0
  -17.6348   11.5760  -20.2670 C   0  0  0  0  0  0  0  0  0  0  0  0
  -18.5012   12.7602  -19.9971 N   0  0  0  0  0  0  0  0  0  0  0  0
  -18.7096   13.9642  -20.6509 C   0  0  0  0  0  0  0  0  0  0  0  0
  -19.2533   13.8209  -21.8219 O   0  0  0  0  0  0  0  0  0  0  0  0
  -18.4326   15.3593  -20.2772 C   0  0  0  0  0  0  0  0  0  0  0  0
  -18.8369   15.8215  -19.0034 N   0  0  0  0  0  0  0  0  0  0  0  0
  -19.7318   16.9336  -18.7427 C   0  0  0  0  0  0  0  0  0  0  0  0
  -19.3741   17.7806  -17.8477 O   0  0  0  0  0  0  0  0  0  0  0  0
  -22.7382   16.0367  -19.7988 H   0  0  0  0  0  0  0  0  0  0  0  0
  -24.5831   17.3217  -14.9899 H   0  0  0  0  0  0  0  0  0  0  0  0
  -23.7079   12.7608  -14.0265 H   0  0  0  0  0  0  0  0  0  0  0  0
  -20.6162   14.2310  -16.6918 H   0  0  0  0  0  0  0  0  0  0  0  0
  -18.4630   15.3552  -18.1416 H   0  0  0  0  0  0  0  0  0  0  0  0
  -22.5411   18.5657  -20.6605 C   0  0  0  0  0  0  0  0  0  0  0  0
  -21.2220   18.5836  -19.9064 C   0  0  0  0  0  0  0  0  0  0  0  0
  -20.1555   18.9041  -20.9236 C   0  0  0  0  0  0  0  0  0  0  0  0
  -22.3212   18.3190  -16.1618 C   0  0  0  0  0  0  0  0  0  0  0  0
  -22.5051   19.6355  -16.8210 C   0  0  0  0  0  0  0  0  0  0  0  0
  -23.6486   20.0627  -17.4346 C   0  0  0  0  0  0  0  0  0  0  0  0
  -23.7242   21.3050  -18.0315 C   0  0  0  0  0  0  0  0  0  0  0  0
  -22.6637   22.1781  -18.0436 C   0  0  0  0  0  0  0  0  0  0  0  0
  -21.5001   21.7700  -17.4311 C   0  0  0  0  0  0  0  0  0  0  0  0
  -21.4329   20.5339  -16.8402 C   0  0  0  0  0  0  0  0  0  0  0  0
  -22.8146   14.8384  -12.8516 C   0  0  0  0  0  0  0  0  0  0  0  0
  -23.4809   15.9942  -12.3285 C   0  0  0  0  0  0  0  0  0  0  0  0
  -24.7578   15.9861  -11.7470 C   0  0  0  0  0  0  0  0  0  0  0  0
  -25.1222   17.2277  -11.3888 N   0  0  0  0  0  0  0  0  0  0  0  0
  -24.1145   18.0539  -11.7195 C   0  0  0  0  0  0  0  0  0  0  0  0
  -23.9722   19.4134  -11.5561 C   0  0  0  0  0  0  0  0  0  0  0  0
  -22.8264   20.0923  -11.9512 C   0  0  0  0  0  0  0  0  0  0  0  0
  -21.8073   19.3631  -12.5245 C   0  0  0  0  0  0  0  0  0  0  0  0
  -21.9664   18.0122  -12.6798 C   0  0  0  0  0  0  0  0  0  0  0  0
  -23.1125   17.3100  -12.2907 C   0  0  0  0  0  0  0  0  0  0  0  0
  -26.0190   17.5128  -10.9367 H   0  0  0  0  0  0  0  0  0  0  0  0
  -19.8497   12.3876  -14.6563 C   0  0  0  0  0  0  0  0  0  0  0  0
  -19.5801   11.0736  -14.0204 C   0  0  0  0  0  0  0  0  0  0  0  0
  -19.4819   10.9708  -12.6209 C   0  0  0  0  0  0  0  0  0  0  0  0
  -19.2526    9.8040  -11.9672 C   0  0  0  0  0  0  0  0  0  0  0  0
  -19.1027    8.6284  -12.7017 C   0  0  0  0  0  0  0  0  0  0  0  0
  -19.1905    8.6730  -14.0750 C   0  0  0  0  0  0  0  0  0  0  0  0
  -19.4249    9.8841  -14.6911 C   0  0  0  0  0  0  0  0  0  0  0  0
  -16.9067   15.6273  -20.3276 C   0  0  0  0  0  0  0  0  0  0  0  0
  -16.4364   16.0169  -21.6496 C   0  0  0  0  0  0  0  0  0  0  0  0
  -16.4781   17.3037  -22.1975 C   0  0  0  0  0  0  0  0  0  0  0  0
  -15.9500   17.2752  -23.4348 N   0  0  0  0  0  0  0  0  0  0  0  0
  -15.5772   16.0269  -23.6924 C   0  0  0  0  0  0  0  0  0  0  0  0
  -14.9922   15.4947  -24.8186 C   0  0  0  0  0  0  0  0  0  0  0  0
  -14.7086   14.1500  -24.8241 C   0  0  0  0  0  0  0  0  0  0  0  0
  -14.9903   13.3504  -23.7570 C   0  0  0  0  0  0  0  0  0  0  0  0
  -15.5711   13.8635  -22.6307 C   0  0  0  0  0  0  0  0  0  0  0  0
  -15.8685   15.2228  -22.5985 C   0  0  0  0  0  0  0  0  0  0  0  0
  -15.8714   18.1243  -24.0475 H   0  0  0  0  0  0  0  0  0  0  0  0
 33 34  1  0  0  0
 34 35  1  0  0  0
 34  1  1  0  0  0
  1  2  1  0  0  0
  2  3  1  0  0  0
  3  4  2  0  0  0
  3  5  1  0  0  0
  5 36  1  0  0  0
 36 37  1  0  0  0
 37 38  2  0  0  0
 38 39  1  0  0  0
 39 40  2  0  0  0
 40 41  1  0  0  0
 41 42  2  0  0  0
  5  6  1  0  0  0
  6  7  1  0  0  0
  7  8  2  0  0  0
  7  9  1  0  0  0
  9 43  1  0  0  0
 43 44  1  0  0  0
 44 45  2  0  0  0
 45 46  1  0  0  0
 46 47  1  0  0  0
 47 48  2  0  0  0
 48 49  1  0  0  0
 49 50  2  0  0  0
 50 51  1  0  0  0
 51 52  2  0  0  0
  9 10  1  0  0  0
 10 11  1  0  0  0
 11 12  2  0  0  0
 11 13  1  0  0  0
 13 54  1  0  0  0
 54 55  1  0  0  0
 55 56  2  0  0  0
 56 57  1  0  0  0
 57 58  2  0  0  0
 58 59  1  0  0  0
 59 60  2  0  0  0
 13 14  1  0  0  0
 14 15  1  0  0  0
 15 16  2  0  0  0
 15 17  1  0  0  0
 17 18  1  0  0  0
 18 19  1  0  0  0
 19 20  1  0  0  0
 20 21  1  0  0  0
 21 22  1  0  0  0
 22 23  2  0  0  0
 22 24  1  0  0  0
 24 61  1  0  0  0
 61 62  1  0  0  0
 62 63  2  0  0  0
 63 64  1  0  0  0
 64 65  1  0  0  0
 65 66  2  0  0  0
 66 67  1  0  0  0
 67 68  2  0  0  0
 68 69  1  0  0  0
 69 70  2  0  0  0
 24 25  1  0  0  0
 25 26  1  0  0  0
 26 27  2  0  0  0
 26  1  1  0  0  0
 42 37  1  0  0  0
 52 44  1  0  0  0
 60 55  1  0  0  0
 21 17  1  0  0  0
 70 62  1  0  0  0
 52 47  1  0  0  0
 70 65  1  0  0  0
  2 28  1  0  0  0
  6 29  1  0  0  0
 46 53  1  0  0  0
 10 30  1  0  0  0
 14 31  1  0  0  0
 64 71  1  0  0  0
 25 32  1  0  0  0
M  END
> <minimizedAffinity>
-6.34762

> <CNNscore>
0.2496436834

> <CNNaffinity>
7.5192413330

> <CNN_VS>
1.8771311045

> <CNNaffinity_variance>
0.9035538435

$$$$
[H]c1c([H])c([H])c(C([H])([H])[C@@]2([H])C(=O)N([H])[C@@]([H])(C([H])(C([H])([H])[H])C([H])([H])[H])C(=O)N([H])[C@@]([H])(C([H])([H])c3c([H])n([H])c4c([H])c([H])c([H])c([H])c34)C(=O)N3C([H])([H])C([H])([H])C([H])([H])[C@@]3([H])C(=O)N([H])[C@@]([H])(C([H])([H])c3c([H])c([H])c([H])c([H])c3[H])C(=O)N([H])[C@]([H])(C([H])([H])c3c([H])n([H])c4c([H])c([H])c([H])c([H])c34)C(=O)N2[H])c([H])c1[H]


 71 78  0  0  0  0  0  0  0  0999 V2000
  -20.4464   13.3894  -17.6063 C   0  0  0  0  0  0  0  0  0  0  0  0
  -21.5982   14.1289  -17.9785 N   0  0  0  0  0  0  0  0  0  0  0  0
  -22.0075   15.4508  -17.9900 C   0  0  0  0  0  0  0  0  0  0  0  0
  -23.1976   15.6117  -17.4667 O   0  0  0  0  0  0  0  0  0  0  0  0
  -21.4429   16.7192  -18.4496 C   0  0  0  0  0  0  0  0  0  0  0  0
  -22.2695   17.8830  -18.1582 N   0  0  0  0  0  0  0  0  0  0  0  0
  -23.2406   18.1378  -17.2089 C   0  0  0  0  0  0  0  0  0  0  0  0
  -24.4609   18.2324  -17.6608 O   0  0  0  0  0  0  0  0  0  0  0  0
  -23.1768   18.3315  -15.7535 C   0  0  0  0  0  0  0  0  0  0  0  0
  -24.4036   17.9341  -15.1049 N   0  0  0  0  0  0  0  0  0  0  0  0
  -24.7612   16.8178  -14.3622 C   0  0  0  0  0  0  0  0  0  0  0  0
  -26.0039   16.4137  -14.5020 O   0  0  0  0  0  0  0  0  0  0  0  0
  -23.9865   15.9854  -13.4281 C   0  0  0  0  0  0  0  0  0  0  0  0
  -23.2012   15.0251  -14.1325 N   0  0  0  0  0  0  0  0  0  0  0  0
  -23.3736   13.6142  -14.2075 C   0  0  0  0  0  0  0  0  0  0  0  0
  -23.6834   13.0668  -15.3426 O   0  0  0  0  0  0  0  0  0  0  0  0
  -23.2450   12.6597  -13.1398 C   0  0  0  0  0  0  0  0  0  0  0  0
  -22.5366   13.0527  -11.8896 C   0  0  0  0  0  0  0  0  0  0  0  0
  -22.4631   11.6942  -11.1659 C   0  0  0  0  0  0  0  0  0  0  0  0
  -23.0238   10.7032  -12.1924 C   0  0  0  0  0  0  0  0  0  0  0  0
  -22.5581   11.4084  -13.4219 N   0  0  0  0  0  0  0  0  0  0  0  0
  -21.7562   11.0423  -14.4911 C   0  0  0  0  0  0  0  0  0  0  0  0
  -22.2743   10.0978  -15.2171 O   0  0  0  0  0  0  0  0  0  0  0  0
  -20.4419   11.5119  -14.9546 C   0  0  0  0  0  0  0  0  0  0  0  0
  -20.2157   12.9022  -15.0813 N   0  0  0  0  0  0  0  0  0  0  0  0
  -19.8257   13.5970  -16.2940 C   0  0  0  0  0  0  0  0  0  0  0  0
  -18.8689   14.4472  -16.2043 O   0  0  0  0  0  0  0  0  0  0  0  0
  -22.3890   13.4320  -18.3821 H   0  0  0  0  0  0  0  0  0  0  0  0
  -22.0932   18.7129  -18.8346 H   0  0  0  0  0  0  0  0  0  0  0  0
  -25.1889   18.6559  -15.2416 H   0  0  0  0  0  0  0  0  0  0  0  0
  -22.3783   15.3955  -14.6996 H   0  0  0  0  0  0  0  0  0  0  0  0
  -20.3109   13.5202  -14.2394 H   0  0  0  0  0  0  0  0  0  0  0  0
  -20.2856   13.2741  -20.0182 C   0  0  0  0  0  0  0  0  0  0  0  0
  -19.4528   13.2282  -18.7481 C   0  0  0  0  0  0  0  0  0  0  0  0
  -18.8735   11.8378  -18.6699 C   0  0  0  0  0  0  0  0  0  0  0  0
  -20.0447   17.0443  -18.1253 C   0  0  0  0  0  0  0  0  0  0  0  0
  -19.9376   17.6681  -16.7833 C   0  0  0  0  0  0  0  0  0  0  0  0
  -20.1266   17.0258  -15.5925 C   0  0  0  0  0  0  0  0  0  0  0  0
  -20.0148   17.6928  -14.3892 C   0  0  0  0  0  0  0  0  0  0  0  0
  -19.7091   19.0302  -14.3181 C   0  0  0  0  0  0  0  0  0  0  0  0
  -19.5139   19.6993  -15.5055 C   0  0  0  0  0  0  0  0  0  0  0  0
  -19.6268   19.0295  -16.6971 C   0  0  0  0  0  0  0  0  0  0  0  0
  -22.9054   19.7811  -15.3610 C   0  0  0  0  0  0  0  0  0  0  0  0
  -23.6450   20.3420  -14.2693 C   0  0  0  0  0  0  0  0  0  0  0  0
  -24.9304   20.8945  -14.3747 C   0  0  0  0  0  0  0  0  0  0  0  0
  -25.3392   21.3708  -13.1879 N   0  0  0  0  0  0  0  0  0  0  0  0
  -24.3535   21.1438  -12.3022 C   0  0  0  0  0  0  0  0  0  0  0  0
  -24.2696   21.4190  -10.9559 C   0  0  0  0  0  0  0  0  0  0  0  0
  -23.1557   21.0813  -10.1976 C   0  0  0  0  0  0  0  0  0  0  0  0
  -22.1083   20.4491  -10.8320 C   0  0  0  0  0  0  0  0  0  0  0  0
  -22.2088   20.1839  -12.1713 C   0  0  0  0  0  0  0  0  0  0  0  0
  -23.3204   20.5174  -12.9532 C   0  0  0  0  0  0  0  0  0  0  0  0
  -26.2509   21.8341  -12.9777 H   0  0  0  0  0  0  0  0  0  0  0  0
  -23.2699   16.7820  -12.3732 C   0  0  0  0  0  0  0  0  0  0  0  0
  -24.1741   17.2735  -11.3035 C   0  0  0  0  0  0  0  0  0  0  0  0
  -23.7504   17.2730   -9.9621 C   0  0  0  0  0  0  0  0  0  0  0  0
  -24.5134   17.7196   -8.9327 C   0  0  0  0  0  0  0  0  0  0  0  0
  -25.7917   18.2111   -9.1940 C   0  0  0  0  0  0  0  0  0  0  0  0
  -26.2554   18.2348  -10.4901 C   0  0  0  0  0  0  0  0  0  0  0  0
  -25.4407   17.7693  -11.5004 C   0  0  0  0  0  0  0  0  0  0  0  0
  -19.3336   11.0188  -13.9895 C   0  0  0  0  0  0  0  0  0  0  0  0
  -19.3393    9.5749  -13.8001 C   0  0  0  0  0  0  0  0  0  0  0  0
  -19.1705    8.6082  -14.7974 C   0  0  0  0  0  0  0  0  0  0  0  0
  -19.2310    7.3841  -14.2419 N   0  0  0  0  0  0  0  0  0  0  0  0
  -19.4310    7.5355  -12.9378 C   0  0  0  0  0  0  0  0  0  0  0  0
  -19.5648    6.5876  -11.9491 C   0  0  0  0  0  0  0  0  0  0  0  0
  -19.7706    7.0228  -10.6620 C   0  0  0  0  0  0  0  0  0  0  0  0
  -19.8433    8.3482  -10.3528 C   0  0  0  0  0  0  0  0  0  0  0  0
  -19.7122    9.3023  -11.3232 C   0  0  0  0  0  0  0  0  0  0  0  0
  -19.5025    8.8889  -12.6356 C   0  0  0  0  0  0  0  0  0  0  0  0
  -19.1310    6.4958  -14.7927 H   0  0  0  0  0  0  0  0  0  0  0  0
 33 34  1  0  0  0
 34 35  1  0  0  0
 34  1  1  0  0  0
  1  2  1  0  0  0
  2  3  1  0  0  0
  3  4  2  0  0  0
  3  5  1  0  0  0
  5 36  1  0  0  0
 36 37  1  0  0  0
 37 38  2  0  0  0
 38 39  1  0  0  0
 39 40  2  0  0  0
 40 41  1  0  0  0
 41 42  2  0  0  0
  5  6  1  0  0  0
  6  7  1  0  0  0
  7  8  2  0  0  0
  7  9  1  0  0  0
  9 43  1  0  0  0
 43 44  1  0  0  0
 44 45  2  0  0  0
 45 46  1  0  0  0
 46 47  1  0  0  0
 47 48  2  0  0  0
 48 49  1  0  0  0
 49 50  2  0  0  0
 50 51  1  0  0  0
 51 52  2  0  0  0
  9 10  1  0  0  0
 10 11  1  0  0  0
 11 12  2  0  0  0
 11 13  1  0  0  0
 13 54  1  0  0  0
 54 55  1  0  0  0
 55 56  2  0  0  0
 56 57  1  0  0  0
 57 58  2  0  0  0
 58 59  1  0  0  0
 59 60  2  0  0  0
 13 14  1  0  0  0
 14 15  1  0  0  0
 15 16  2  0  0  0
 15 17  1  0  0  0
 17 18  1  0  0  0
 18 19  1  0  0  0
 19 20  1  0  0  0
 20 21  1  0  0  0
 21 22  1  0  0  0
 22 23  2  0  0  0
 22 24  1  0  0  0
 24 61  1  0  0  0
 61 62  1  0  0  0
 62 63  2  0  0  0
 63 64  1  0  0  0
 64 65  1  0  0  0
 65 66  2  0  0  0
 66 67  1  0  0  0
 67 68  2  0  0  0
 68 69  1  0  0  0
 69 70  2  0  0  0
 24 25  1  0  0  0
 25 26  1  0  0  0
 26 27  2  0  0  0
 26  1  1  0  0  0
 42 37  1  0  0  0
 52 44  1  0  0  0
 60 55  1  0  0  0
 21 17  1  0  0  0
 70 62  1  0  0  0
 52 47  1  0  0  0
 70 65  1  0  0  0
  2 28  1  0  0  0
  6 29  1  0  0  0
 46 53  1  0  0  0
 10 30  1  0  0  0
 14 31  1  0  0  0
 64 71  1  0  0  0
 25 32  1  0  0  0
M  END
> <minimizedAffinity>
-5.61347

> <CNNscore>
0.2064510435

> <CNNaffinity>
7.0597267151

> <CNN_VS>
1.4574879408

> <CNNaffinity_variance>
0.4293514192

$$$$
[H]c1c([H])c([H])c(C([H])([H])[C@@]2([H])C(=O)N([H])[C@@]([H])(C([H])(C([H])([H])[H])C([H])([H])[H])C(=O)N([H])[C@@]([H])(C([H])([H])c3c([H])n([H])c4c([H])c([H])c([H])c([H])c34)C(=O)N3C([H])([H])C([H])([H])C([H])([H])[C@@]3([H])C(=O)N([H])[C@@]([H])(C([H])([H])c3c([H])c([H])c([H])c([H])c3[H])C(=O)N([H])[C@]([H])(C([H])([H])c3c([H])n([H])c4c([H])c([H])c([H])c([H])c34)C(=O)N2[H])c([H])c1[H]


 71 78  0  0  0  0  0  0  0  0999 V2000
  -18.5504   18.0758  -21.5411 C   0  0  0  0  0  0  0  0  0  0  0  0
  -17.6905   17.2400  -20.7836 N   0  0  0  0  0  0  0  0  0  0  0  0
  -17.5331   15.8875  -20.5361 C   0  0  0  0  0  0  0  0  0  0  0  0
  -17.4096   15.6227  -19.2591 O   0  0  0  0  0  0  0  0  0  0  0  0
  -17.4627   14.6741  -21.3493 C   0  0  0  0  0  0  0  0  0  0  0  0
  -17.3571   13.4423  -20.5786 N   0  0  0  0  0  0  0  0  0  0  0  0
  -17.7157   13.1017  -19.2884 C   0  0  0  0  0  0  0  0  0  0  0  0
  -16.7265   12.9026  -18.4614 O   0  0  0  0  0  0  0  0  0  0  0  0
  -19.0209   12.9109  -18.6405 C   0  0  0  0  0  0  0  0  0  0  0  0
  -18.9656   13.1987  -17.2270 N   0  0  0  0  0  0  0  0  0  0  0  0
  -19.3903   14.2779  -16.4652 C   0  0  0  0  0  0  0  0  0  0  0  0
  -18.6411   14.5729  -15.4264 O   0  0  0  0  0  0  0  0  0  0  0  0
  -20.5498   15.1722  -16.6116 C   0  0  0  0  0  0  0  0  0  0  0  0
  -20.2841   16.1988  -17.5659 N   0  0  0  0  0  0  0  0  0  0  0  0
  -20.0764   17.5896  -17.3453 C   0  0  0  0  0  0  0  0  0  0  0  0
  -18.9146   18.1107  -17.5949 O   0  0  0  0  0  0  0  0  0  0  0  0
  -21.0295   18.5490  -16.8567 C   0  0  0  0  0  0  0  0  0  0  0  0
  -22.4813   18.2161  -16.8838 C   0  0  0  0  0  0  0  0  0  0  0  0
  -23.0915   19.5741  -16.4862 C   0  0  0  0  0  0  0  0  0  0  0  0
  -21.8826   20.5151  -16.4308 C   0  0  0  0  0  0  0  0  0  0  0  0
  -21.0708   19.8559  -17.4950 N   0  0  0  0  0  0  0  0  0  0  0  0
  -20.5202   20.2928  -18.6893 C   0  0  0  0  0  0  0  0  0  0  0  0
  -19.5955   21.1905  -18.5261 O   0  0  0  0  0  0  0  0  0  0  0  0
  -20.7825   19.9403  -20.0927 C   0  0  0  0  0  0  0  0  0  0  0  0
  -20.8402   18.5752  -20.4579 N   0  0  0  0  0  0  0  0  0  0  0  0
  -20.0055   17.9198  -21.4474 C   0  0  0  0  0  0  0  0  0  0  0  0
  -20.5887   17.1557  -22.2973 O   0  0  0  0  0  0  0  0  0  0  0  0
  -16.9221   17.8665  -20.2441 H   0  0  0  0  0  0  0  0  0  0  0  0
  -16.8894   12.6324  -21.1287 H   0  0  0  0  0  0  0  0  0  0  0  0
  -18.4900   12.4117  -16.6695 H   0  0  0  0  0  0  0  0  0  0  0  0
  -20.2105   15.9026  -18.5871 H   0  0  0  0  0  0  0  0  0  0  0  0
  -21.5509   17.9492  -20.0074 H   0  0  0  0  0  0  0  0  0  0  0  0
  -18.5813   19.6901  -23.3439 C   0  0  0  0  0  0  0  0  0  0  0  0
  -18.0393   18.3254  -22.9530 C   0  0  0  0  0  0  0  0  0  0  0  0
  -18.6991   17.3273  -23.8714 C   0  0  0  0  0  0  0  0  0  0  0  0
  -18.4455   14.4709  -22.4256 C   0  0  0  0  0  0  0  0  0  0  0  0
  -17.7731   14.2158  -23.7235 C   0  0  0  0  0  0  0  0  0  0  0  0
  -16.4510   14.4353  -23.9886 C   0  0  0  0  0  0  0  0  0  0  0  0
  -15.9138   14.1762  -25.2335 C   0  0  0  0  0  0  0  0  0  0  0  0
  -16.6698   13.6862  -26.2704 C   0  0  0  0  0  0  0  0  0  0  0  0
  -18.0055   13.4567  -26.0273 C   0  0  0  0  0  0  0  0  0  0  0  0
  -18.5318   13.7168  -24.7877 C   0  0  0  0  0  0  0  0  0  0  0  0
  -19.5548   11.4894  -18.7932 C   0  0  0  0  0  0  0  0  0  0  0  0
  -19.1546   10.5038  -17.8331 C   0  0  0  0  0  0  0  0  0  0  0  0
  -18.0285    9.6762  -17.9589 C   0  0  0  0  0  0  0  0  0  0  0  0
  -17.9425    8.8331  -16.9176 N   0  0  0  0  0  0  0  0  0  0  0  0
  -18.9851    9.0867  -16.1074 C   0  0  0  0  0  0  0  0  0  0  0  0
  -19.3531    8.5216  -14.9073 C   0  0  0  0  0  0  0  0  0  0  0  0
  -20.4723    8.9435  -14.2007 C   0  0  0  0  0  0  0  0  0  0  0  0
  -21.2282    9.9643  -14.7351 C   0  0  0  0  0  0  0  0  0  0  0  0
  -20.8478   10.5140  -15.9299 C   0  0  0  0  0  0  0  0  0  0  0  0
  -19.7259   10.1025  -16.6579 C   0  0  0  0  0  0  0  0  0  0  0  0
  -17.2077    8.1096  -16.7547 H   0  0  0  0  0  0  0  0  0  0  0  0
  -21.8521   14.4384  -16.7731 C   0  0  0  0  0  0  0  0  0  0  0  0
  -22.6189   14.3321  -15.5065 C   0  0  0  0  0  0  0  0  0  0  0  0
  -22.9311   15.4882  -14.7684 C   0  0  0  0  0  0  0  0  0  0  0  0
  -23.6398   15.4725  -13.6113 C   0  0  0  0  0  0  0  0  0  0  0  0
  -24.0947   14.2552  -13.1061 C   0  0  0  0  0  0  0  0  0  0  0  0
  -23.8171   13.0930  -13.7900 C   0  0  0  0  0  0  0  0  0  0  0  0
  -23.0931   13.1630  -14.9614 C   0  0  0  0  0  0  0  0  0  0  0  0
  -22.1468   20.5255  -20.5389 C   0  0  0  0  0  0  0  0  0  0  0  0
  -22.5313   20.1217  -21.8842 C   0  0  0  0  0  0  0  0  0  0  0  0
  -23.3714   19.0545  -22.2203 C   0  0  0  0  0  0  0  0  0  0  0  0
  -23.4969   18.9944  -23.5586 N   0  0  0  0  0  0  0  0  0  0  0  0
  -22.7726   19.9766  -24.0824 C   0  0  0  0  0  0  0  0  0  0  0  0
  -22.5792   20.3256  -25.3995 C   0  0  0  0  0  0  0  0  0  0  0  0
  -21.7655   21.3996  -25.6694 C   0  0  0  0  0  0  0  0  0  0  0  0
  -21.1589   22.1107  -24.6776 C   0  0  0  0  0  0  0  0  0  0  0  0
  -21.3409   21.7773  -23.3642 C   0  0  0  0  0  0  0  0  0  0  0  0
  -22.1608   20.6937  -23.0627 C   0  0  0  0  0  0  0  0  0  0  0  0
  -24.0802   18.2735  -24.0510 H   0  0  0  0  0  0  0  0  0  0  0  0
 33 34  1  0  0  0
 34 35  1  0  0  0
 34  1  1  0  0  0
  1  2  1  0  0  0
  2  3  1  0  0  0
  3  4  2  0  0  0
  3  5  1  0  0  0
  5 36  1  0  0  0
 36 37  1  0  0  0
 37 38  2  0  0  0
 38 39  1  0  0  0
 39 40  2  0  0  0
 40 41  1  0  0  0
 41 42  2  0  0  0
  5  6  1  0  0  0
  6  7  1  0  0  0
  7  8  2  0  0  0
  7  9  1  0  0  0
  9 43  1  0  0  0
 43 44  1  0  0  0
 44 45  2  0  0  0
 45 46  1  0  0  0
 46 47  1  0  0  0
 47 48  2  0  0  0
 48 49  1  0  0  0
 49 50  2  0  0  0
 50 51  1  0  0  0
 51 52  2  0  0  0
  9 10  1  0  0  0
 10 11  1  0  0  0
 11 12  2  0  0  0
 11 13  1  0  0  0
 13 54  1  0  0  0
 54 55  1  0  0  0
 55 56  2  0  0  0
 56 57  1  0  0  0
 57 58  2  0  0  0
 58 59  1  0  0  0
 59 60  2  0  0  0
 13 14  1  0  0  0
 14 15  1  0  0  0
 15 16  2  0  0  0
 15 17  1  0  0  0
 17 18  1  0  0  0
 18 19  1  0  0  0
 19 20  1  0  0  0
 20 21  1  0  0  0
 21 22  1  0  0  0
 22 23  2  0  0  0
 22 24  1  0  0  0
 24 61  1  0  0  0
 61 62  1  0  0  0
 62 63  2  0  0  0
 63 64  1  0  0  0
 64 65  1  0  0  0
 65 66  2  0  0  0
 66 67  1  0  0  0
 67 68  2  0  0  0
 68 69  1  0  0  0
 69 70  2  0  0  0
 24 25  1  0  0  0
 25 26  1  0  0  0
 26 27  2  0  0  0
 26  1  1  0  0  0
 42 37  1  0  0  0
 52 44  1  0  0  0
 60 55  1  0  0  0
 21 17  1  0  0  0
 70 62  1  0  0  0
 52 47  1  0  0  0
 70 65  1  0  0  0
  2 28  1  0  0  0
  6 29  1  0  0  0
 46 53  1  0  0  0
 10 30  1  0  0  0
 14 31  1  0  0  0
 64 71  1  0  0  0
 25 32  1  0  0  0
M  END
> <minimizedAffinity>
-7.74159

> <CNNscore>
0.1794592738

> <CNNaffinity>
7.4477562904

> <CNN_VS>
1.3365689516

> <CNNaffinity_variance>
0.6629664302

$$$$
[H]c1c([H])c([H])c(C([H])([H])[C@@]2([H])C(=O)N([H])[C@@]([H])(C([H])(C([H])([H])[H])C([H])([H])[H])C(=O)N([H])[C@@]([H])(C([H])([H])c3c([H])n([H])c4c([H])c([H])c([H])c([H])c34)C(=O)N3C([H])([H])C([H])([H])C([H])([H])[C@@]3([H])C(=O)N([H])[C@@]([H])(C([H])([H])c3c([H])c([H])c([H])c([H])c3[H])C(=O)N([H])[C@]([H])(C([H])([H])c3c([H])n([H])c4c([H])c([H])c([H])c([H])c34)C(=O)N2[H])c([H])c1[H]


 71 78  0  0  0  0  0  0  0  0999 V2000
  -19.9532   13.3574  -18.0683 C   0  0  0  0  0  0  0  0  0  0  0  0
  -20.9216   14.2579  -18.5815 N   0  0  0  0  0  0  0  0  0  0  0  0
  -21.0988   15.6272  -18.6760 C   0  0  0  0  0  0  0  0  0  0  0  0
  -22.2903   16.0066  -18.2853 O   0  0  0  0  0  0  0  0  0  0  0  0
  -20.2860   16.7619  -19.1124 C   0  0  0  0  0  0  0  0  0  0  0  0
  -20.9290   18.0585  -18.9448 N   0  0  0  0  0  0  0  0  0  0  0  0
  -21.9316   18.5147  -18.1105 C   0  0  0  0  0  0  0  0  0  0  0  0
  -23.0680   18.7874  -18.6903 O   0  0  0  0  0  0  0  0  0  0  0  0
  -21.9791   18.7641  -16.6630 C   0  0  0  0  0  0  0  0  0  0  0  0
  -23.3130   18.6056  -16.1346 N   0  0  0  0  0  0  0  0  0  0  0  0
  -23.9249   17.6000  -15.3998 C   0  0  0  0  0  0  0  0  0  0  0  0
  -25.1982   17.3999  -15.6565 O   0  0  0  0  0  0  0  0  0  0  0  0
  -23.3972   16.6967  -14.3647 C   0  0  0  0  0  0  0  0  0  0  0  0
  -22.7199   15.5878  -14.9535 N   0  0  0  0  0  0  0  0  0  0  0  0
  -23.1198   14.2226  -15.0032 C   0  0  0  0  0  0  0  0  0  0  0  0
  -23.4045   13.6804  -16.1472 O   0  0  0  0  0  0  0  0  0  0  0  0
  -23.2594   13.3119  -13.8992 C   0  0  0  0  0  0  0  0  0  0  0  0
  -22.6209   13.6418  -12.5943 C   0  0  0  0  0  0  0  0  0  0  0  0
  -22.8491   12.3257  -11.8258 C   0  0  0  0  0  0  0  0  0  0  0  0
  -23.4654   11.3929  -12.8747 C   0  0  0  0  0  0  0  0  0  0  0  0
  -22.7692   11.9525  -14.0697 N   0  0  0  0  0  0  0  0  0  0  0  0
  -21.9395   11.4089  -15.0374 C   0  0  0  0  0  0  0  0  0  0  0  0
  -22.5358   10.5293  -15.7845 O   0  0  0  0  0  0  0  0  0  0  0  0
  -20.5258   11.6330  -15.3748 C   0  0  0  0  0  0  0  0  0  0  0  0
  -20.0569   12.9594  -15.5195 N   0  0  0  0  0  0  0  0  0  0  0  0
  -19.4382   13.5221  -16.7053 C   0  0  0  0  0  0  0  0  0  0  0  0
  -18.3652   14.2063  -16.5418 O   0  0  0  0  0  0  0  0  0  0  0  0
  -21.7752   13.6825  -19.0443 H   0  0  0  0  0  0  0  0  0  0  0  0
  -20.5497   18.8150  -19.6239 H   0  0  0  0  0  0  0  0  0  0  0  0
  -23.9480   19.4395  -16.3748 H   0  0  0  0  0  0  0  0  0  0  0  0
  -21.7947   15.7902  -15.4424 H   0  0  0  0  0  0  0  0  0  0  0  0
  -20.1286   13.6240  -14.7114 H   0  0  0  0  0  0  0  0  0  0  0  0
  -19.6214   12.9325  -20.4276 C   0  0  0  0  0  0  0  0  0  0  0  0
  -18.8939   12.9807  -19.0944 C   0  0  0  0  0  0  0  0  0  0  0  0
  -18.4442   11.5704  -18.8046 C   0  0  0  0  0  0  0  0  0  0  0  0
  -18.8917   16.8673  -18.6536 C   0  0  0  0  0  0  0  0  0  0  0  0
  -17.9490   16.8586  -19.7994 C   0  0  0  0  0  0  0  0  0  0  0  0
  -18.0194   16.0236  -20.8783 C   0  0  0  0  0  0  0  0  0  0  0  0
  -17.0885   16.0822  -21.8959 C   0  0  0  0  0  0  0  0  0  0  0  0
  -16.0455   16.9761  -21.8845 C   0  0  0  0  0  0  0  0  0  0  0  0
  -15.9535   17.8286  -20.8071 C   0  0  0  0  0  0  0  0  0  0  0  0
  -16.8824   17.7640  -19.7999 C   0  0  0  0  0  0  0  0  0  0  0  0
  -21.5068   20.1663  -16.2887 C   0  0  0  0  0  0  0  0  0  0  0  0
  -21.4677   20.5251  -14.9019 C   0  0  0  0  0  0  0  0  0  0  0  0
  -20.3708   20.3153  -14.0525 C   0  0  0  0  0  0  0  0  0  0  0  0
  -20.6541   20.7225  -12.8049 N   0  0  0  0  0  0  0  0  0  0  0  0
  -21.9119   21.1973  -12.8125 C   0  0  0  0  0  0  0  0  0  0  0  0
  -22.6751   21.7457  -11.8066 C   0  0  0  0  0  0  0  0  0  0  0  0
  -23.9684   22.2048  -12.0226 C   0  0  0  0  0  0  0  0  0  0  0  0
  -24.4885   22.0996  -13.2944 C   0  0  0  0  0  0  0  0  0  0  0  0
  -23.7156   21.5510  -14.2823 C   0  0  0  0  0  0  0  0  0  0  0  0
  -22.4123   21.0811  -14.0852 C   0  0  0  0  0  0  0  0  0  0  0  0
  -20.0239   20.6834  -11.9735 H   0  0  0  0  0  0  0  0  0  0  0  0
  -22.6635   17.4136  -13.2655 C   0  0  0  0  0  0  0  0  0  0  0  0
  -23.5714   17.9898  -12.2421 C   0  0  0  0  0  0  0  0  0  0  0  0
  -23.1288   18.1597  -10.9176 C   0  0  0  0  0  0  0  0  0  0  0  0
  -23.8943   18.6921   -9.9319 C   0  0  0  0  0  0  0  0  0  0  0  0
  -25.1950   19.1010  -10.2234 C   0  0  0  0  0  0  0  0  0  0  0  0
  -25.6779   18.9576  -11.5048 C   0  0  0  0  0  0  0  0  0  0  0  0
  -24.8596   18.4107  -12.4704 C   0  0  0  0  0  0  0  0  0  0  0  0
  -19.6167   11.0105  -14.2844 C   0  0  0  0  0  0  0  0  0  0  0  0
  -19.5748    9.5558  -14.3350 C   0  0  0  0  0  0  0  0  0  0  0  0
  -19.1454    8.7766  -15.4149 C   0  0  0  0  0  0  0  0  0  0  0  0
  -19.2461    7.4749  -15.0893 N   0  0  0  0  0  0  0  0  0  0  0  0
  -19.7207    7.3980  -13.8513 C   0  0  0  0  0  0  0  0  0  0  0  0
  -19.9993    6.2931  -13.0795 C   0  0  0  0  0  0  0  0  0  0  0  0
  -20.4930    6.4985  -11.8136 C   0  0  0  0  0  0  0  0  0  0  0  0
  -20.7076    7.7500  -11.3186 C   0  0  0  0  0  0  0  0  0  0  0  0
  -20.4358    8.8579  -12.0722 C   0  0  0  0  0  0  0  0  0  0  0  0
  -19.9343    8.6783  -13.3581 C   0  0  0  0  0  0  0  0  0  0  0  0
  -18.9811    6.6957  -15.7411 H   0  0  0  0  0  0  0  0  0  0  0  0
 33 34  1  0  0  0
 34 35  1  0  0  0
 34  1  1  0  0  0
  1  2  1  0  0  0
  2  3  1  0  0  0
  3  4  2  0  0  0
  3  5  1  0  0  0
  5 36  1  0  0  0
 36 37  1  0  0  0
 37 38  2  0  0  0
 38 39  1  0  0  0
 39 40  2  0  0  0
 40 41  1  0  0  0
 41 42  2  0  0  0
  5  6  1  0  0  0
  6  7  1  0  0  0
  7  8  2  0  0  0
  7  9  1  0  0  0
  9 43  1  0  0  0
 43 44  1  0  0  0
 44 45  2  0  0  0
 45 46  1  0  0  0
 46 47  1  0  0  0
 47 48  2  0  0  0
 48 49  1  0  0  0
 49 50  2  0  0  0
 50 51  1  0  0  0
 51 52  2  0  0  0
  9 10  1  0  0  0
 10 11  1  0  0  0
 11 12  2  0  0  0
 11 13  1  0  0  0
 13 54  1  0  0  0
 54 55  1  0  0  0
 55 56  2  0  0  0
 56 57  1  0  0  0
 57 58  2  0  0  0
 58 59  1  0  0  0
 59 60  2  0  0  0
 13 14  1  0  0  0
 14 15  1  0  0  0
 15 16  2  0  0  0
 15 17  1  0  0  0
 17 18  1  0  0  0
 18 19  1  0  0  0
 19 20  1  0  0  0
 20 21  1  0  0  0
 21 22  1  0  0  0
 22 23  2  0  0  0
 22 24  1  0  0  0
 24 61  1  0  0  0
 61 62  1  0  0  0
 62 63  2  0  0  0
 63 64  1  0  0  0
 64 65  1  0  0  0
 65 66  2  0  0  0
 66 67  1  0  0  0
 67 68  2  0  0  0
 68 69  1  0  0  0
 69 70  2  0  0  0
 24 25  1  0  0  0
 25 26  1  0  0  0
 26 27  2  0  0  0
 26  1  1  0  0  0
 42 37  1  0  0  0
 52 44  1  0  0  0
 60 55  1  0  0  0
 21 17  1  0  0  0
 70 62  1  0  0  0
 52 47  1  0  0  0
 70 65  1  0  0  0
  2 28  1  0  0  0
  6 29  1  0  0  0
 46 53  1  0  0  0
 10 30  1  0  0  0
 14 31  1  0  0  0
 64 71  1  0  0  0
 25 32  1  0  0  0
M  END
> <minimizedAffinity>
-6.77766

> <CNNscore>
0.0945282653

> <CNNaffinity>
7.3525032997

> <CNN_VS>
0.6950193644

> <CNNaffinity_variance>
0.3683466315

$$$$
[H]c1c([H])c([H])c(C([H])([H])[C@@]2([H])C(=O)N([H])[C@@]([H])(C([H])(C([H])([H])[H])C([H])([H])[H])C(=O)N([H])[C@@]([H])(C([H])([H])c3c([H])n([H])c4c([H])c([H])c([H])c([H])c34)C(=O)N3C([H])([H])C([H])([H])C([H])([H])[C@@]3([H])C(=O)N([H])[C@@]([H])(C([H])([H])c3c([H])c([H])c([H])c([H])c3[H])C(=O)N([H])[C@]([H])(C([H])([H])c3c([H])n([H])c4c([H])c([H])c([H])c([H])c34)C(=O)N2[H])c([H])c1[H]


 71 78  0  0  0  0  0  0  0  0999 V2000
  -19.8140   12.9768  -17.7816 C   0  0  0  0  0  0  0  0  0  0  0  0
  -20.7687   13.7835  -18.4523 N   0  0  0  0  0  0  0  0  0  0  0  0
  -20.9567   15.1243  -18.7389 C   0  0  0  0  0  0  0  0  0  0  0  0
  -22.1683   15.5327  -18.4537 O   0  0  0  0  0  0  0  0  0  0  0  0
  -20.1380   16.2034  -19.2903 C   0  0  0  0  0  0  0  0  0  0  0  0
  -20.8020   17.4996  -19.3270 N   0  0  0  0  0  0  0  0  0  0  0  0
  -21.8453   18.0472  -18.6052 C   0  0  0  0  0  0  0  0  0  0  0  0
  -22.9581   18.2200  -19.2640 O   0  0  0  0  0  0  0  0  0  0  0  0
  -21.9593   18.4887  -17.2081 C   0  0  0  0  0  0  0  0  0  0  0  0
  -23.3134   18.3803  -16.7198 N   0  0  0  0  0  0  0  0  0  0  0  0
  -23.9459   17.4728  -15.8820 C   0  0  0  0  0  0  0  0  0  0  0  0
  -25.2044   17.2185  -16.1627 O   0  0  0  0  0  0  0  0  0  0  0  0
  -23.4543   16.7264  -14.7129 C   0  0  0  0  0  0  0  0  0  0  0  0
  -22.7396   15.5598  -15.1169 N   0  0  0  0  0  0  0  0  0  0  0  0
  -23.1218   14.1938  -14.9981 C   0  0  0  0  0  0  0  0  0  0  0  0
  -23.3499   13.4976  -16.0691 O   0  0  0  0  0  0  0  0  0  0  0  0
  -23.2998   13.4380  -13.7878 C   0  0  0  0  0  0  0  0  0  0  0  0
  -22.7232   13.9516  -12.5138 C   0  0  0  0  0  0  0  0  0  0  0  0
  -22.9704   12.7475  -11.5845 C   0  0  0  0  0  0  0  0  0  0  0  0
  -23.5296   11.6716  -12.5224 C   0  0  0  0  0  0  0  0  0  0  0  0
  -22.7876   12.0766  -13.7518 N   0  0  0  0  0  0  0  0  0  0  0  0
  -21.9102   11.4216  -14.6011 C   0  0  0  0  0  0  0  0  0  0  0  0
  -22.4633   10.4392  -15.2466 O   0  0  0  0  0  0  0  0  0  0  0  0
  -20.4856   11.6219  -14.9059 C   0  0  0  0  0  0  0  0  0  0  0  0
  -20.0255   12.9244  -15.2090 N   0  0  0  0  0  0  0  0  0  0  0  0
  -19.3614   13.3324  -16.4329 C   0  0  0  0  0  0  0  0  0  0  0  0
  -18.3042   14.0505  -16.3186 O   0  0  0  0  0  0  0  0  0  0  0  0
  -21.5947   13.1366  -18.8685 H   0  0  0  0  0  0  0  0  0  0  0  0
  -20.4016   18.1639  -20.0858 H   0  0  0  0  0  0  0  0  0  0  0  0
  -23.9463   19.1634  -17.0972 H   0  0  0  0  0  0  0  0  0  0  0  0
  -21.7960   15.7100  -15.5893 H   0  0  0  0  0  0  0  0  0  0  0  0
  -20.1400   13.6906  -14.5021 H   0  0  0  0  0  0  0  0  0  0  0  0
  -19.3295   12.4190  -20.0861 C   0  0  0  0  0  0  0  0  0  0  0  0
  -18.7065   12.4831  -18.7017 C   0  0  0  0  0  0  0  0  0  0  0  0
  -18.3791   11.0619  -18.3170 C   0  0  0  0  0  0  0  0  0  0  0  0
  -18.7665   16.3931  -18.7916 C   0  0  0  0  0  0  0  0  0  0  0  0
  -17.8097   16.5724  -19.9114 C   0  0  0  0  0  0  0  0  0  0  0  0
  -17.1047   17.7118  -20.1778 C   0  0  0  0  0  0  0  0  0  0  0  0
  -16.2410   17.7894  -21.2518 C   0  0  0  0  0  0  0  0  0  0  0  0
  -16.0405   16.7347  -22.1088 C   0  0  0  0  0  0  0  0  0  0  0  0
  -16.7401   15.5750  -21.8606 C   0  0  0  0  0  0  0  0  0  0  0  0
  -17.5965   15.5059  -20.7915 C   0  0  0  0  0  0  0  0  0  0  0  0
  -21.5195   19.9363  -17.0076 C   0  0  0  0  0  0  0  0  0  0  0  0
  -22.2205   20.7351  -16.0464 C   0  0  0  0  0  0  0  0  0  0  0  0
  -23.3658   21.4969  -16.3231 C   0  0  0  0  0  0  0  0  0  0  0  0
  -23.7664   22.1632  -15.2285 N   0  0  0  0  0  0  0  0  0  0  0  0
  -22.9124   21.8571  -14.2362 C   0  0  0  0  0  0  0  0  0  0  0  0
  -22.8809   22.2546  -12.9185 C   0  0  0  0  0  0  0  0  0  0  0  0
  -21.9127   21.8034  -12.0303 C   0  0  0  0  0  0  0  0  0  0  0  0
  -20.9590   20.9280  -12.5024 C   0  0  0  0  0  0  0  0  0  0  0  0
  -21.0052   20.5440  -13.8157 C   0  0  0  0  0  0  0  0  0  0  0  0
  -21.9702   20.9881  -14.7266 C   0  0  0  0  0  0  0  0  0  0  0  0
  -24.5869   22.8037  -15.1487 H   0  0  0  0  0  0  0  0  0  0  0  0
  -22.7777   17.5972  -13.6909 C   0  0  0  0  0  0  0  0  0  0  0  0
  -23.4841   17.6153  -12.3854 C   0  0  0  0  0  0  0  0  0  0  0  0
  -24.7605   17.0368  -12.2626 C   0  0  0  0  0  0  0  0  0  0  0  0
  -25.4610   17.0015  -11.1010 C   0  0  0  0  0  0  0  0  0  0  0  0
  -24.9057   17.5628   -9.9519 C   0  0  0  0  0  0  0  0  0  0  0  0
  -23.6582   18.1416  -10.0168 C   0  0  0  0  0  0  0  0  0  0  0  0
  -22.9875   18.1516  -11.2215 C   0  0  0  0  0  0  0  0  0  0  0  0
  -19.6186   11.1676  -13.7039 C   0  0  0  0  0  0  0  0  0  0  0  0
  -19.4759    9.7211  -13.6145 C   0  0  0  0  0  0  0  0  0  0  0  0
  -19.3949    8.8288  -14.6891 C   0  0  0  0  0  0  0  0  0  0  0  0
  -19.2639    7.5762  -14.2155 N   0  0  0  0  0  0  0  0  0  0  0  0
  -19.2592    7.6383  -12.8889 C   0  0  0  0  0  0  0  0  0  0  0  0
  -19.1517    6.6304  -11.9581 C   0  0  0  0  0  0  0  0  0  0  0  0
  -19.1785    6.9751  -10.6281 C   0  0  0  0  0  0  0  0  0  0  0  0
  -19.3070    8.2697  -10.2222 C   0  0  0  0  0  0  0  0  0  0  0  0
  -19.4145    9.2827  -11.1340 C   0  0  0  0  0  0  0  0  0  0  0  0
  -19.3898    8.9613  -12.4880 C   0  0  0  0  0  0  0  0  0  0  0  0
  -19.1837    6.7316  -14.8341 H   0  0  0  0  0  0  0  0  0  0  0  0
 33 34  1  0  0  0
 34 35  1  0  0  0
 34  1  1  0  0  0
  1  2  1  0  0  0
  2  3  1  0  0  0
  3  4  2  0  0  0
  3  5  1  0  0  0
  5 36  1  0  0  0
 36 37  1  0  0  0
 37 38  2  0  0  0
 38 39  1  0  0  0
 39 40  2  0  0  0
 40 41  1  0  0  0
 41 42  2  0  0  0
  5  6  1  0  0  0
  6  7  1  0  0  0
  7  8  2  0  0  0
  7  9  1  0  0  0
  9 43  1  0  0  0
 43 44  1  0  0  0
 44 45  2  0  0  0
 45 46  1  0  0  0
 46 47  1  0  0  0
 47 48  2  0  0  0
 48 49  1  0  0  0
 49 50  2  0  0  0
 50 51  1  0  0  0
 51 52  2  0  0  0
  9 10  1  0  0  0
 10 11  1  0  0  0
 11 12  2  0  0  0
 11 13  1  0  0  0
 13 54  1  0  0  0
 54 55  1  0  0  0
 55 56  2  0  0  0
 56 57  1  0  0  0
 57 58  2  0  0  0
 58 59  1  0  0  0
 59 60  2  0  0  0
 13 14  1  0  0  0
 14 15  1  0  0  0
 15 16  2  0  0  0
 15 17  1  0  0  0
 17 18  1  0  0  0
 18 19  1  0  0  0
 19 20  1  0  0  0
 20 21  1  0  0  0
 21 22  1  0  0  0
 22 23  2  0  0  0
 22 24  1  0  0  0
 24 61  1  0  0  0
 61 62  1  0  0  0
 62 63  2  0  0  0
 63 64  1  0  0  0
 64 65  1  0  0  0
 65 66  2  0  0  0
 66 67  1  0  0  0
 67 68  2  0  0  0
 68 69  1  0  0  0
 69 70  2  0  0  0
 24 25  1  0  0  0
 25 26  1  0  0  0
 26 27  2  0  0  0
 26  1  1  0  0  0
 42 37  1  0  0  0
 52 44  1  0  0  0
 60 55  1  0  0  0
 21 17  1  0  0  0
 70 62  1  0  0  0
 52 47  1  0  0  0
 70 65  1  0  0  0
  2 28  1  0  0  0
  6 29  1  0  0  0
 46 53  1  0  0  0
 10 30  1  0  0  0
 14 31  1  0  0  0
 64 71  1  0  0  0
 25 32  1  0  0  0
M  END
> <minimizedAffinity>
-6.75391

> <CNNscore>
0.0938384235

> <CNNaffinity>
7.3199682236

> <CNN_VS>
0.6868942976

> <CNNaffinity_variance>
0.4050726295

$$$$
[H]c1c([H])c([H])c(C([H])([H])[C@@]2([H])C(=O)N([H])[C@@]([H])(C([H])(C([H])([H])[H])C([H])([H])[H])C(=O)N([H])[C@@]([H])(C([H])([H])c3c([H])n([H])c4c([H])c([H])c([H])c([H])c34)C(=O)N3C([H])([H])C([H])([H])C([H])([H])[C@@]3([H])C(=O)N([H])[C@@]([H])(C([H])([H])c3c([H])c([H])c([H])c([H])c3[H])C(=O)N([H])[C@]([H])(C([H])([H])c3c([H])n([H])c4c([H])c([H])c([H])c([H])c34)C(=O)N2[H])c([H])c1[H]


 71 78  0  0  0  0  0  0  0  0999 V2000
  -22.1551   11.3663  -14.1049 C   0  0  0  0  0  0  0  0  0  0  0  0
  -22.5545   12.1985  -15.1819 N   0  0  0  0  0  0  0  0  0  0  0  0
  -21.9693   13.1070  -16.0464 C   0  0  0  0  0  0  0  0  0  0  0  0
  -22.6476   14.2243  -16.1339 O   0  0  0  0  0  0  0  0  0  0  0  0
  -20.7798   13.1286  -16.8968 C   0  0  0  0  0  0  0  0  0  0  0  0
  -20.5579   14.3941  -17.5837 N   0  0  0  0  0  0  0  0  0  0  0  0
  -20.9492   15.6929  -17.3205 C   0  0  0  0  0  0  0  0  0  0  0  0
  -21.8421   16.1889  -18.1321 O   0  0  0  0  0  0  0  0  0  0  0  0
  -20.5518   16.6568  -16.2849 C   0  0  0  0  0  0  0  0  0  0  0  0
  -21.6113   17.5903  -15.9856 N   0  0  0  0  0  0  0  0  0  0  0  0
  -22.5055   17.6981  -14.9299 C   0  0  0  0  0  0  0  0  0  0  0  0
  -23.7010   18.1482  -15.2386 O   0  0  0  0  0  0  0  0  0  0  0  0
  -22.3569   17.3929  -13.4979 C   0  0  0  0  0  0  0  0  0  0  0  0
  -22.5356   15.9989  -13.2530 N   0  0  0  0  0  0  0  0  0  0  0  0
  -23.6166   15.3389  -12.6037 C   0  0  0  0  0  0  0  0  0  0  0  0
  -24.3809   14.5410  -13.2843 O   0  0  0  0  0  0  0  0  0  0  0  0
  -23.9993   15.4404  -11.2213 C   0  0  0  0  0  0  0  0  0  0  0  0
  -23.0309   15.9932  -10.2335 C   0  0  0  0  0  0  0  0  0  0  0  0
  -23.7765   15.7089   -8.9152 C   0  0  0  0  0  0  0  0  0  0  0  0
  -25.0036   14.9030   -9.3567 C   0  0  0  0  0  0  0  0  0  0  0  0
  -24.3801   14.2196  -10.5271 N   0  0  0  0  0  0  0  0  0  0  0  0
  -24.2045   12.8909  -10.8794 C   0  0  0  0  0  0  0  0  0  0  0  0
  -25.3239   12.2699  -11.1005 O   0  0  0  0  0  0  0  0  0  0  0  0
  -23.0048   12.0568  -11.0459 C   0  0  0  0  0  0  0  0  0  0  0  0
  -21.9292   12.5490  -11.8210 N   0  0  0  0  0  0  0  0  0  0  0  0
  -21.3650   11.9160  -12.9985 C   0  0  0  0  0  0  0  0  0  0  0  0
  -20.0865   11.8321  -13.0670 O   0  0  0  0  0  0  0  0  0  0  0  0
  -23.6575   12.0662  -15.3818 H   0  0  0  0  0  0  0  0  0  0  0  0
  -19.9771   14.2903  -18.4944 H   0  0  0  0  0  0  0  0  0  0  0  0
  -21.7203   18.3409  -16.7480 H   0  0  0  0  0  0  0  0  0  0  0  0
  -21.7754   15.3435  -13.6116 H   0  0  0  0  0  0  0  0  0  0  0  0
  -21.4567   13.4425  -11.5411 H   0  0  0  0  0  0  0  0  0  0  0  0
  -22.7464    9.5454  -15.5851 C   0  0  0  0  0  0  0  0  0  0  0  0
  -21.7139    9.9822  -14.5593 C   0  0  0  0  0  0  0  0  0  0  0  0
  -21.8528    9.0406  -13.3893 C   0  0  0  0  0  0  0  0  0  0  0  0
  -19.4960   12.6602  -16.3508 C   0  0  0  0  0  0  0  0  0  0  0  0
  -18.8053   11.7585  -17.3055 C   0  0  0  0  0  0  0  0  0  0  0  0
  -18.9392   10.3997  -17.3520 C   0  0  0  0  0  0  0  0  0  0  0  0
  -18.2467    9.6392  -18.2726 C   0  0  0  0  0  0  0  0  0  0  0  0
  -17.3896   10.1985  -19.1889 C   0  0  0  0  0  0  0  0  0  0  0  0
  -17.2381   11.5668  -19.1616 C   0  0  0  0  0  0  0  0  0  0  0  0
  -17.9297   12.3154  -18.2437 C   0  0  0  0  0  0  0  0  0  0  0  0
  -19.3245   17.4746  -16.6777 C   0  0  0  0  0  0  0  0  0  0  0  0
  -19.4461   18.4125  -17.7542 C   0  0  0  0  0  0  0  0  0  0  0  0
  -19.0510   18.1659  -19.0778 C   0  0  0  0  0  0  0  0  0  0  0  0
  -19.2572   19.2499  -19.8427 N   0  0  0  0  0  0  0  0  0  0  0  0
  -19.7805   20.2050  -19.0542 C   0  0  0  0  0  0  0  0  0  0  0  0
  -20.1866   21.4887  -19.3408 C   0  0  0  0  0  0  0  0  0  0  0  0
  -20.7305   22.3276  -18.3763 C   0  0  0  0  0  0  0  0  0  0  0  0
  -20.8605   21.8406  -17.0938 C   0  0  0  0  0  0  0  0  0  0  0  0
  -20.4507   20.5619  -16.8267 C   0  0  0  0  0  0  0  0  0  0  0  0
  -19.8989   19.7019  -17.7828 C   0  0  0  0  0  0  0  0  0  0  0  0
  -19.0534   19.3469  -20.8619 H   0  0  0  0  0  0  0  0  0  0  0  0
  -21.1422   18.0245  -12.8766 C   0  0  0  0  0  0  0  0  0  0  0  0
  -21.3999   19.3919  -12.3594 C   0  0  0  0  0  0  0  0  0  0  0  0
  -21.2073   20.5111  -13.1895 C   0  0  0  0  0  0  0  0  0  0  0  0
  -21.4357   21.7887  -12.7934 C   0  0  0  0  0  0  0  0  0  0  0  0
  -21.8867   22.0309  -11.4966 C   0  0  0  0  0  0  0  0  0  0  0  0
  -22.0923   20.9704  -10.6429 C   0  0  0  0  0  0  0  0  0  0  0  0
  -21.8454   19.6911  -11.0942 C   0  0  0  0  0  0  0  0  0  0  0  0
  -22.3819   11.7439   -9.6614 C   0  0  0  0  0  0  0  0  0  0  0  0
  -21.7325   10.4416   -9.6061 C   0  0  0  0  0  0  0  0  0  0  0  0
  -22.3726    9.1984   -9.5576 C   0  0  0  0  0  0  0  0  0  0  0  0
  -21.4451    8.2243   -9.5197 N   0  0  0  0  0  0  0  0  0  0  0  0
  -20.2476    8.7979   -9.5416 C   0  0  0  0  0  0  0  0  0  0  0  0
  -18.9950    8.2282   -9.5168 C   0  0  0  0  0  0  0  0  0  0  0  0
  -17.9052    9.0648   -9.5460 C   0  0  0  0  0  0  0  0  0  0  0  0
  -18.0390   10.4201   -9.5979 C   0  0  0  0  0  0  0  0  0  0  0  0
  -19.2760   11.0018   -9.6235 C   0  0  0  0  0  0  0  0  0  0  0  0
  -20.3971   10.1773   -9.5952 C   0  0  0  0  0  0  0  0  0  0  0  0
  -21.6838    7.2026   -9.4799 H   0  0  0  0  0  0  0  0  0  0  0  0
 33 34  1  0  0  0
 34 35  1  0  0  0
 34  1  1  0  0  0
  1  2  1  0  0  0
  2  3  1  0  0  0
  3  4  2  0  0  0
  3  5  1  0  0  0
  5 36  1  0  0  0
 36 37  1  0  0  0
 37 38  2  0  0  0
 38 39  1  0  0  0
 39 40  2  0  0  0
 40 41  1  0  0  0
 41 42  2  0  0  0
  5  6  1  0  0  0
  6  7  1  0  0  0
  7  8  2  0  0  0
  7  9  1  0  0  0
  9 43  1  0  0  0
 43 44  1  0  0  0
 44 45  2  0  0  0
 45 46  1  0  0  0
 46 47  1  0  0  0
 47 48  2  0  0  0
 48 49  1  0  0  0
 49 50  2  0  0  0
 50 51  1  0  0  0
 51 52  2  0  0  0
  9 10  1  0  0  0
 10 11  1  0  0  0
 11 12  2  0  0  0
 11 13  1  0  0  0
 13 54  1  0  0  0
 54 55  1  0  0  0
 55 56  2  0  0  0
 56 57  1  0  0  0
 57 58  2  0  0  0
 58 59  1  0  0  0
 59 60  2  0  0  0
 13 14  1  0  0  0
 14 15  1  0  0  0
 15 16  2  0  0  0
 15 17  1  0  0  0
 17 18  1  0  0  0
 18 19  1  0  0  0
 19 20  1  0  0  0
 20 21  1  0  0  0
 21 22  1  0  0  0
 22 23  2  0  0  0
 22 24  1  0  0  0
 24 61  1  0  0  0
 61 62  1  0  0  0
 62 63  2  0  0  0
 63 64  1  0  0  0
 64 65  1  0  0  0
 65 66  2  0  0  0
 66 67  1  0  0  0
 67 68  2  0  0  0
 68 69  1  0  0  0
 69 70  2  0  0  0
 24 25  1  0  0  0
 25 26  1  0  0  0
 26 27  2  0  0  0
 26  1  1  0  0  0
 42 37  1  0  0  0
 52 44  1  0  0  0
 60 55  1  0  0  0
 21 17  1  0  0  0
 70 62  1  0  0  0
 52 47  1  0  0  0
 70 65  1  0  0  0
  2 28  1  0  0  0
  6 29  1  0  0  0
 46 53  1  0  0  0
 10 30  1  0  0  0
 14 31  1  0  0  0
 64 71  1  0  0  0
 25 32  1  0  0  0
M  END
> <minimizedAffinity>
-8.05132

> <CNNscore>
0.0719388425

> <CNNaffinity>
7.2992806435

> <CNN_VS>
0.5251017809

> <CNNaffinity_variance>
0.3478860855

$$$$
[H]c1c([H])c([H])c(C([H])([H])[C@@]2([H])C(=O)N([H])[C@@]([H])(C([H])(C([H])([H])[H])C([H])([H])[H])C(=O)N([H])[C@@]([H])(C([H])([H])c3c([H])n([H])c4c([H])c([H])c([H])c([H])c34)C(=O)N3C([H])([H])C([H])([H])C([H])([H])[C@@]3([H])C(=O)N([H])[C@@]([H])(C([H])([H])c3c([H])c([H])c([H])c([H])c3[H])C(=O)N([H])[C@]([H])(C([H])([H])c3c([H])n([H])c4c([H])c([H])c([H])c([H])c34)C(=O)N2[H])c([H])c1[H]


 71 78  0  0  0  0  0  0  0  0999 V2000
  -19.9217   12.8575  -17.7179 C   0  0  0  0  0  0  0  0  0  0  0  0
  -20.8389   13.6826  -18.4179 N   0  0  0  0  0  0  0  0  0  0  0  0
  -20.9560   15.0163  -18.7685 C   0  0  0  0  0  0  0  0  0  0  0  0
  -22.1393   15.5053  -18.4915 O   0  0  0  0  0  0  0  0  0  0  0  0
  -20.0861   16.0196  -19.3810 C   0  0  0  0  0  0  0  0  0  0  0  0
  -20.6777   17.3477  -19.4750 N   0  0  0  0  0  0  0  0  0  0  0  0
  -21.6796   17.9873  -18.7706 C   0  0  0  0  0  0  0  0  0  0  0  0
  -22.7895   18.1898  -19.4257 O   0  0  0  0  0  0  0  0  0  0  0  0
  -21.7508   18.5022  -17.3959 C   0  0  0  0  0  0  0  0  0  0  0  0
  -23.1023   18.4938  -16.8890 N   0  0  0  0  0  0  0  0  0  0  0  0
  -23.7732   17.6651  -16.0009 C   0  0  0  0  0  0  0  0  0  0  0  0
  -25.0474   17.4681  -16.2558 O   0  0  0  0  0  0  0  0  0  0  0  0
  -23.3087   16.9503  -14.8013 C   0  0  0  0  0  0  0  0  0  0  0  0
  -22.6649   15.7271  -15.1545 N   0  0  0  0  0  0  0  0  0  0  0  0
  -23.1206   14.3922  -14.9643 C   0  0  0  0  0  0  0  0  0  0  0  0
  -23.4008   13.6583  -15.9972 O   0  0  0  0  0  0  0  0  0  0  0  0
  -23.3245   13.7075  -13.7164 C   0  0  0  0  0  0  0  0  0  0  0  0
  -22.7038   14.2496  -12.4753 C   0  0  0  0  0  0  0  0  0  0  0  0
  -23.0052   13.1080  -11.4851 C   0  0  0  0  0  0  0  0  0  0  0  0
  -23.6353   12.0206  -12.3629 C   0  0  0  0  0  0  0  0  0  0  0  0
  -22.8880   12.3229  -13.6183 N   0  0  0  0  0  0  0  0  0  0  0  0
  -22.0593   11.5791  -14.4431 C   0  0  0  0  0  0  0  0  0  0  0  0
  -22.6743   10.5990  -15.0335 O   0  0  0  0  0  0  0  0  0  0  0  0
  -20.6299   11.6844  -14.7720 C   0  0  0  0  0  0  0  0  0  0  0  0
  -20.1023   12.9427  -15.1438 N   0  0  0  0  0  0  0  0  0  0  0  0
  -19.4325   13.2527  -16.3932 C   0  0  0  0  0  0  0  0  0  0  0  0
  -18.3359   13.9152  -16.3253 O   0  0  0  0  0  0  0  0  0  0  0  0
  -21.7047   13.0634  -18.7931 H   0  0  0  0  0  0  0  0  0  0  0  0
  -20.2509   17.9507  -20.2698 H   0  0  0  0  0  0  0  0  0  0  0  0
  -23.6958   19.2917  -17.2982 H   0  0  0  0  0  0  0  0  0  0  0  0
  -21.7207   15.8011  -15.6433 H   0  0  0  0  0  0  0  0  0  0  0  0
  -20.1650   13.7477  -14.4746 H   0  0  0  0  0  0  0  0  0  0  0  0
  -19.4180   12.3579  -20.0316 C   0  0  0  0  0  0  0  0  0  0  0  0
  -18.8552   12.2583  -18.6237 C   0  0  0  0  0  0  0  0  0  0  0  0
  -18.7507   10.7865  -18.3111 C   0  0  0  0  0  0  0  0  0  0  0  0
  -18.6998   16.1565  -18.9064 C   0  0  0  0  0  0  0  0  0  0  0  0
  -17.7690   16.4011  -20.0357 C   0  0  0  0  0  0  0  0  0  0  0  0
  -17.0783   17.5586  -20.2581 C   0  0  0  0  0  0  0  0  0  0  0  0
  -16.2388   17.6985  -21.3448 C   0  0  0  0  0  0  0  0  0  0  0  0
  -16.0493   16.6909  -22.2591 C   0  0  0  0  0  0  0  0  0  0  0  0
  -16.7348   15.5141  -22.0561 C   0  0  0  0  0  0  0  0  0  0  0  0
  -17.5672   15.3830  -20.9738 C   0  0  0  0  0  0  0  0  0  0  0  0
  -21.2289   19.9310  -17.2717 C   0  0  0  0  0  0  0  0  0  0  0  0
  -21.3745   20.8101  -18.3940 C   0  0  0  0  0  0  0  0  0  0  0  0
  -22.4707   21.6595  -18.6071 C   0  0  0  0  0  0  0  0  0  0  0  0
  -22.3331   22.3281  -19.7633 N   0  0  0  0  0  0  0  0  0  0  0  0
  -21.1707   21.9402  -20.3165 C   0  0  0  0  0  0  0  0  0  0  0  0
  -20.5537   22.3284  -21.4842 C   0  0  0  0  0  0  0  0  0  0  0  0
  -19.3231   21.8182  -21.8783 C   0  0  0  0  0  0  0  0  0  0  0  0
  -18.7140   20.8925  -21.0592 C   0  0  0  0  0  0  0  0  0  0  0  0
  -19.3424   20.5175  -19.9021 C   0  0  0  0  0  0  0  0  0  0  0  0
  -20.5821   21.0176  -19.4883 C   0  0  0  0  0  0  0  0  0  0  0  0
  -22.9978   23.0232  -20.1694 H   0  0  0  0  0  0  0  0  0  0  0  0
  -22.5716   17.8308  -13.8307 C   0  0  0  0  0  0  0  0  0  0  0  0
  -23.3486   18.1119  -12.5974 C   0  0  0  0  0  0  0  0  0  0  0  0
  -24.5071   17.3693  -12.3054 C   0  0  0  0  0  0  0  0  0  0  0  0
  -25.2600   17.5579  -11.1924 C   0  0  0  0  0  0  0  0  0  0  0  0
  -24.8848   18.5359  -10.2723 C   0  0  0  0  0  0  0  0  0  0  0  0
  -23.7582   19.2910  -10.5095 C   0  0  0  0  0  0  0  0  0  0  0  0
  -23.0275   19.0600  -11.6558 C   0  0  0  0  0  0  0  0  0  0  0  0
  -19.7738   11.2415  -13.5580 C   0  0  0  0  0  0  0  0  0  0  0  0
  -20.2159    9.9830  -12.9735 C   0  0  0  0  0  0  0  0  0  0  0  0
  -20.7576    9.8085  -11.6954 C   0  0  0  0  0  0  0  0  0  0  0  0
  -21.0507    8.5080  -11.5126 N   0  0  0  0  0  0  0  0  0  0  0  0
  -20.7174    7.8537  -12.6191 C   0  0  0  0  0  0  0  0  0  0  0  0
  -20.8211    6.5143  -12.9181 C   0  0  0  0  0  0  0  0  0  0  0  0
  -20.3929    6.0944  -14.1545 C   0  0  0  0  0  0  0  0  0  0  0  0
  -19.8779    6.9616  -15.0711 C   0  0  0  0  0  0  0  0  0  0  0  0
  -19.7684    8.2951  -14.7899 C   0  0  0  0  0  0  0  0  0  0  0  0
  -20.1952    8.7474  -13.5447 C   0  0  0  0  0  0  0  0  0  0  0  0
  -21.4695    8.1306  -10.6269 H   0  0  0  0  0  0  0  0  0  0  0  0
 33 34  1  0  0  0
 34 35  1  0  0  0
 34  1  1  0  0  0
  1  2  1  0  0  0
  2  3  1  0  0  0
  3  4  2  0  0  0
  3  5  1  0  0  0
  5 36  1  0  0  0
 36 37  1  0  0  0
 37 38  2  0  0  0
 38 39  1  0  0  0
 39 40  2  0  0  0
 40 41  1  0  0  0
 41 42  2  0  0  0
  5  6  1  0  0  0
  6  7  1  0  0  0
  7  8  2  0  0  0
  7  9  1  0  0  0
  9 43  1  0  0  0
 43 44  1  0  0  0
 44 45  2  0  0  0
 45 46  1  0  0  0
 46 47  1  0  0  0
 47 48  2  0  0  0
 48 49  1  0  0  0
 49 50  2  0  0  0
 50 51  1  0  0  0
 51 52  2  0  0  0
  9 10  1  0  0  0
 10 11  1  0  0  0
 11 12  2  0  0  0
 11 13  1  0  0  0
 13 54  1  0  0  0
 54 55  1  0  0  0
 55 56  2  0  0  0
 56 57  1  0  0  0
 57 58  2  0  0  0
 58 59  1  0  0  0
 59 60  2  0  0  0
 13 14  1  0  0  0
 14 15  1  0  0  0
 15 16  2  0  0  0
 15 17  1  0  0  0
 17 18  1  0  0  0
 18 19  1  0  0  0
 19 20  1  0  0  0
 20 21  1  0  0  0
 21 22  1  0  0  0
 22 23  2  0  0  0
 22 24  1  0  0  0
 24 61  1  0  0  0
 61 62  1  0  0  0
 62 63  2  0  0  0
 63 64  1  0  0  0
 64 65  1  0  0  0
 65 66  2  0  0  0
 66 67  1  0  0  0
 67 68  2  0  0  0
 68 69  1  0  0  0
 69 70  2  0  0  0
 24 25  1  0  0  0
 25 26  1  0  0  0
 26 27  2  0  0  0
 26  1  1  0  0  0
 42 37  1  0  0  0
 52 44  1  0  0  0
 60 55  1  0  0  0
 21 17  1  0  0  0
 70 62  1  0  0  0
 52 47  1  0  0  0
 70 65  1  0  0  0
  2 28  1  0  0  0
  6 29  1  0  0  0
 46 53  1  0  0  0
 10 30  1  0  0  0
 14 31  1  0  0  0
 64 71  1  0  0  0
 25 32  1  0  0  0
M  END
> <minimizedAffinity>
-6.63933

> <CNNscore>
0.0699122250

> <CNNaffinity>
7.2069139481

> <CNN_VS>
0.5038514137

> <CNNaffinity_variance>
0.3888851106

$$$$
[H]c1c([H])c([H])c(C([H])([H])[C@@]2([H])C(=O)N([H])[C@@]([H])(C([H])(C([H])([H])[H])C([H])([H])[H])C(=O)N([H])[C@@]([H])(C([H])([H])c3c([H])n([H])c4c([H])c([H])c([H])c([H])c34)C(=O)N3C([H])([H])C([H])([H])C([H])([H])[C@@]3([H])C(=O)N([H])[C@@]([H])(C([H])([H])c3c([H])c([H])c([H])c([H])c3[H])C(=O)N([H])[C@]([H])(C([H])([H])c3c([H])n([H])c4c([H])c([H])c([H])c([H])c34)C(=O)N2[H])c([H])c1[H]


 71 78  0  0  0  0  0  0  0  0999 V2000
  -19.8705   12.8122  -17.6885 C   0  0  0  0  0  0  0  0  0  0  0  0
  -20.8431   13.5068  -18.4524 N   0  0  0  0  0  0  0  0  0  0  0  0
  -21.0900   14.8065  -18.8588 C   0  0  0  0  0  0  0  0  0  0  0  0
  -22.3293   15.1722  -18.6435 O   0  0  0  0  0  0  0  0  0  0  0  0
  -20.3101   15.8772  -19.4786 C   0  0  0  0  0  0  0  0  0  0  0  0
  -21.0378   17.1283  -19.6454 N   0  0  0  0  0  0  0  0  0  0  0  0
  -22.1303   17.6784  -19.0027 C   0  0  0  0  0  0  0  0  0  0  0  0
  -23.2288   17.7349  -19.7043 O   0  0  0  0  0  0  0  0  0  0  0  0
  -22.3114   18.2301  -17.6526 C   0  0  0  0  0  0  0  0  0  0  0  0
  -23.6731   18.0912  -17.1942 N   0  0  0  0  0  0  0  0  0  0  0  0
  -24.2850   17.2254  -16.2989 C   0  0  0  0  0  0  0  0  0  0  0  0
  -25.5192   16.8812  -16.5912 O   0  0  0  0  0  0  0  0  0  0  0  0
  -23.7938   16.6083  -15.0566 C   0  0  0  0  0  0  0  0  0  0  0  0
  -23.0079   15.4515  -15.3385 N   0  0  0  0  0  0  0  0  0  0  0  0
  -23.3235   14.0821  -15.1127 C   0  0  0  0  0  0  0  0  0  0  0  0
  -23.4814   13.2863  -16.1254 O   0  0  0  0  0  0  0  0  0  0  0  0
  -23.5015   13.4232  -13.8470 C   0  0  0  0  0  0  0  0  0  0  0  0
  -22.9928   14.0731  -12.6068 C   0  0  0  0  0  0  0  0  0  0  0  0
  -23.2080   12.9407  -11.5841 C   0  0  0  0  0  0  0  0  0  0  0  0
  -23.6813   11.7607  -12.4406 C   0  0  0  0  0  0  0  0  0  0  0  0
  -22.9219   12.0992  -13.6794 N   0  0  0  0  0  0  0  0  0  0  0  0
  -21.9855   11.4224  -14.4445 C   0  0  0  0  0  0  0  0  0  0  0  0
  -22.4668   10.3606  -15.0178 O   0  0  0  0  0  0  0  0  0  0  0  0
  -20.5639   11.6722  -14.7261 C   0  0  0  0  0  0  0  0  0  0  0  0
  -20.1613   12.9670  -15.1278 N   0  0  0  0  0  0  0  0  0  0  0  0
  -19.4800   13.3047  -16.3636 C   0  0  0  0  0  0  0  0  0  0  0  0
  -18.4651   14.0855  -16.2826 O   0  0  0  0  0  0  0  0  0  0  0  0
  -21.6213   12.7837  -18.8337 H   0  0  0  0  0  0  0  0  0  0  0  0
  -20.6477   17.7463  -20.4474 H   0  0  0  0  0  0  0  0  0  0  0  0
  -24.3327   18.8044  -17.6552 H   0  0  0  0  0  0  0  0  0  0  0  0
  -22.0585   15.6115  -15.7959 H   0  0  0  0  0  0  0  0  0  0  0  0
  -20.3373   13.7832  -14.4931 H   0  0  0  0  0  0  0  0  0  0  0  0
  -19.2036   12.3482  -19.9681 C   0  0  0  0  0  0  0  0  0  0  0  0
  -18.7103   12.3023  -18.5316 C   0  0  0  0  0  0  0  0  0  0  0  0
  -18.4983   10.8459  -18.2015 C   0  0  0  0  0  0  0  0  0  0  0  0
  -18.9668   16.1818  -18.9606 C   0  0  0  0  0  0  0  0  0  0  0  0
  -17.9958   16.3678  -20.0670 C   0  0  0  0  0  0  0  0  0  0  0  0
  -17.7026   15.4432  -21.0291 C   0  0  0  0  0  0  0  0  0  0  0  0
  -16.7748   15.7025  -22.0177 C   0  0  0  0  0  0  0  0  0  0  0  0
  -16.0974   16.8952  -22.0925 C   0  0  0  0  0  0  0  0  0  0  0  0
  -16.3761   17.8432  -21.1337 C   0  0  0  0  0  0  0  0  0  0  0  0
  -17.2993   17.5780  -20.1545 C   0  0  0  0  0  0  0  0  0  0  0  0
  -21.9526   19.7109  -17.5658 C   0  0  0  0  0  0  0  0  0  0  0  0
  -20.8319   20.1865  -18.3217 C   0  0  0  0  0  0  0  0  0  0  0  0
  -19.4926   20.0841  -17.9161 C   0  0  0  0  0  0  0  0  0  0  0  0
  -18.6799   20.6547  -18.8196 N   0  0  0  0  0  0  0  0  0  0  0  0
  -19.4523   21.1298  -19.8122 C   0  0  0  0  0  0  0  0  0  0  0  0
  -19.1222   21.7827  -20.9783 C   0  0  0  0  0  0  0  0  0  0  0  0
  -20.0799   22.1813  -21.9022 C   0  0  0  0  0  0  0  0  0  0  0  0
  -21.4012   21.9048  -21.6250 C   0  0  0  0  0  0  0  0  0  0  0  0
  -21.7112   21.2555  -20.4603 C   0  0  0  0  0  0  0  0  0  0  0  0
  -20.7624   20.8475  -19.5161 C   0  0  0  0  0  0  0  0  0  0  0  0
  -17.6392   20.7240  -18.7725 H   0  0  0  0  0  0  0  0  0  0  0  0
  -23.1955   17.5977  -14.0954 C   0  0  0  0  0  0  0  0  0  0  0  0
  -21.7689   17.8932  -14.3803 C   0  0  0  0  0  0  0  0  0  0  0  0
  -21.2037   19.1152  -13.9731 C   0  0  0  0  0  0  0  0  0  0  0  0
  -19.9058   19.4503  -14.1842 C   0  0  0  0  0  0  0  0  0  0  0  0
  -19.0663   18.5500  -14.8386 C   0  0  0  0  0  0  0  0  0  0  0  0
  -19.5689   17.3386  -15.2577 C   0  0  0  0  0  0  0  0  0  0  0  0
  -20.8950   17.0462  -15.0189 C   0  0  0  0  0  0  0  0  0  0  0  0
  -19.7138   11.3685  -13.4660 C   0  0  0  0  0  0  0  0  0  0  0  0
  -19.3578    9.9621  -13.3400 C   0  0  0  0  0  0  0  0  0  0  0  0
  -19.2180    9.0460  -14.3883 C   0  0  0  0  0  0  0  0  0  0  0  0
  -18.8768    7.8458  -13.8848 N   0  0  0  0  0  0  0  0  0  0  0  0
  -18.7955    7.9636  -12.5645 C   0  0  0  0  0  0  0  0  0  0  0  0
  -18.4835    7.0212  -11.6114 C   0  0  0  0  0  0  0  0  0  0  0  0
  -18.4740    7.4141  -10.2946 C   0  0  0  0  0  0  0  0  0  0  0  0
  -18.7620    8.6933   -9.9227 C   0  0  0  0  0  0  0  0  0  0  0  0
  -19.0737    9.6414  -10.8571 C   0  0  0  0  0  0  0  0  0  0  0  0
  -19.0902    9.2703  -12.1984 C   0  0  0  0  0  0  0  0  0  0  0  0
  -18.7154    6.9960  -14.4799 H   0  0  0  0  0  0  0  0  0  0  0  0
 33 34  1  0  0  0
 34 35  1  0  0  0
 34  1  1  0  0  0
  1  2  1  0  0  0
  2  3  1  0  0  0
  3  4  2  0  0  0
  3  5  1  0  0  0
  5 36  1  0  0  0
 36 37  1  0  0  0
 37 38  2  0  0  0
 38 39  1  0  0  0
 39 40  2  0  0  0
 40 41  1  0  0  0
 41 42  2  0  0  0
  5  6  1  0  0  0
  6  7  1  0  0  0
  7  8  2  0  0  0
  7  9  1  0  0  0
  9 43  1  0  0  0
 43 44  1  0  0  0
 44 45  2  0  0  0
 45 46  1  0  0  0
 46 47  1  0  0  0
 47 48  2  0  0  0
 48 49  1  0  0  0
 49 50  2  0  0  0
 50 51  1  0  0  0
 51 52  2  0  0  0
  9 10  1  0  0  0
 10 11  1  0  0  0
 11 12  2  0  0  0
 11 13  1  0  0  0
 13 54  1  0  0  0
 54 55  1  0  0  0
 55 56  2  0  0  0
 56 57  1  0  0  0
 57 58  2  0  0  0
 58 59  1  0  0  0
 59 60  2  0  0  0
 13 14  1  0  0  0
 14 15  1  0  0  0
 15 16  2  0  0  0
 15 17  1  0  0  0
 17 18  1  0  0  0
 18 19  1  0  0  0
 19 20  1  0  0  0
 20 21  1  0  0  0
 21 22  1  0  0  0
 22 23  2  0  0  0
 22 24  1  0  0  0
 24 61  1  0  0  0
 61 62  1  0  0  0
 62 63  2  0  0  0
 63 64  1  0  0  0
 64 65  1  0  0  0
 65 66  2  0  0  0
 66 67  1  0  0  0
 67 68  2  0  0  0
 68 69  1  0  0  0
 69 70  2  0  0  0
 24 25  1  0  0  0
 25 26  1  0  0  0
 26 27  2  0  0  0
 26  1  1  0  0  0
 42 37  1  0  0  0
 52 44  1  0  0  0
 60 55  1  0  0  0
 21 17  1  0  0  0
 70 62  1  0  0  0
 52 47  1  0  0  0
 70 65  1  0  0  0
  2 28  1  0  0  0
  6 29  1  0  0  0
 46 53  1  0  0  0
 10 30  1  0  0  0
 14 31  1  0  0  0
 64 71  1  0  0  0
 25 32  1  0  0  0
M  END
> <minimizedAffinity>
-7.59599

> <CNNscore>
0.0657138973

> <CNNaffinity>
7.2181968689

> <CNN_VS>
0.4743358493

> <CNNaffinity_variance>
0.5183503628

$$$$
[H]c1c([H])c([H])c(C([H])([H])[C@@]2([H])C(=O)N([H])[C@@]([H])(C([H])(C([H])([H])[H])C([H])([H])[H])C(=O)N([H])[C@@]([H])(C([H])([H])c3c([H])n([H])c4c([H])c([H])c([H])c([H])c34)C(=O)N3C([H])([H])C([H])([H])C([H])([H])[C@@]3([H])C(=O)N([H])[C@@]([H])(C([H])([H])c3c([H])c([H])c([H])c([H])c3[H])C(=O)N([H])[C@]([H])(C([H])([H])c3c([H])n([H])c4c([H])c([H])c([H])c([H])c34)C(=O)N2[H])c([H])c1[H]


 71 78  0  0  0  0  0  0  0  0999 V2000
  -21.3623   11.2655  -15.2955 C   0  0  0  0  0  0  0  0  0  0  0  0
  -21.8501   12.1575  -16.2847 N   0  0  0  0  0  0  0  0  0  0  0  0
  -21.3660   13.2062  -17.0469 C   0  0  0  0  0  0  0  0  0  0  0  0
  -22.1580   14.2494  -17.0248 O   0  0  0  0  0  0  0  0  0  0  0  0
  -20.1879   13.4393  -17.8815 C   0  0  0  0  0  0  0  0  0  0  0  0
  -20.1020   14.7848  -18.4334 N   0  0  0  0  0  0  0  0  0  0  0  0
  -20.6265   16.0016  -18.0416 C   0  0  0  0  0  0  0  0  0  0  0  0
  -21.5690   16.4823  -18.8050 O   0  0  0  0  0  0  0  0  0  0  0  0
  -20.3292   16.8904  -16.9096 C   0  0  0  0  0  0  0  0  0  0  0  0
  -21.4798   17.6723  -16.5245 N   0  0  0  0  0  0  0  0  0  0  0  0
  -22.3771   17.5770  -15.4703 C   0  0  0  0  0  0  0  0  0  0  0  0
  -23.6142   17.9288  -15.7405 O   0  0  0  0  0  0  0  0  0  0  0  0
  -22.1931   17.1436  -14.0760 C   0  0  0  0  0  0  0  0  0  0  0  0
  -22.2239   15.7208  -13.9765 N   0  0  0  0  0  0  0  0  0  0  0  0
  -23.2278   14.8881  -13.4066 C   0  0  0  0  0  0  0  0  0  0  0  0
  -23.9063   14.0889  -14.1713 O   0  0  0  0  0  0  0  0  0  0  0  0
  -23.6148   14.8066  -12.0242 C   0  0  0  0  0  0  0  0  0  0  0  0
  -22.7067   15.3533  -10.9774 C   0  0  0  0  0  0  0  0  0  0  0  0
  -23.4143   14.8587   -9.7010 C   0  0  0  0  0  0  0  0  0  0  0  0
  -24.5515   13.9785  -10.2322 C   0  0  0  0  0  0  0  0  0  0  0  0
  -23.8634   13.4879  -11.4616 N   0  0  0  0  0  0  0  0  0  0  0  0
  -23.5505   12.2281  -11.9468 C   0  0  0  0  0  0  0  0  0  0  0  0
  -24.5993   11.5194  -12.2390 O   0  0  0  0  0  0  0  0  0  0  0  0
  -22.2705   11.5456  -12.1885 C   0  0  0  0  0  0  0  0  0  0  0  0
  -21.2548   12.2245  -12.9008 N   0  0  0  0  0  0  0  0  0  0  0  0
  -20.6309   11.7783  -14.1325 C   0  0  0  0  0  0  0  0  0  0  0  0
  -19.3509   11.8361  -14.1993 O   0  0  0  0  0  0  0  0  0  0  0  0
  -22.9337   11.9318  -16.5056 H   0  0  0  0  0  0  0  0  0  0  0  0
  -19.5163   14.8364  -19.3454 H   0  0  0  0  0  0  0  0  0  0  0  0
  -21.6692   18.4816  -17.2068 H   0  0  0  0  0  0  0  0  0  0  0  0
  -21.4003   15.1888  -14.3945 H   0  0  0  0  0  0  0  0  0  0  0  0
  -20.8777   13.1291  -12.5272 H   0  0  0  0  0  0  0  0  0  0  0  0
  -21.9114    8.9754  -15.8528 C   0  0  0  0  0  0  0  0  0  0  0  0
  -20.7799    9.9891  -15.8859 C   0  0  0  0  0  0  0  0  0  0  0  0
  -19.7230    9.4771  -14.9394 C   0  0  0  0  0  0  0  0  0  0  0  0
  -18.8604   13.0541  -17.3764 C   0  0  0  0  0  0  0  0  0  0  0  0
  -18.1820   12.1219  -18.3104 C   0  0  0  0  0  0  0  0  0  0  0  0
  -17.9866   10.7868  -18.0963 C   0  0  0  0  0  0  0  0  0  0  0  0
  -17.3340    9.9974  -19.0216 C   0  0  0  0  0  0  0  0  0  0  0  0
  -16.8469   10.5026  -20.2024 C   0  0  0  0  0  0  0  0  0  0  0  0
  -17.0319   11.8460  -20.4409 C   0  0  0  0  0  0  0  0  0  0  0  0
  -17.6813   12.6238  -19.5165 C   0  0  0  0  0  0  0  0  0  0  0  0
  -19.1956   17.8681  -17.2070 C   0  0  0  0  0  0  0  0  0  0  0  0
  -18.9757   18.2639  -18.5665 C   0  0  0  0  0  0  0  0  0  0  0  0
  -19.6099   19.3451  -19.1969 C   0  0  0  0  0  0  0  0  0  0  0  0
  -19.2242   19.4373  -20.4796 N   0  0  0  0  0  0  0  0  0  0  0  0
  -18.3491   18.4426  -20.7090 C   0  0  0  0  0  0  0  0  0  0  0  0
  -17.6493   18.1009  -21.8442 C   0  0  0  0  0  0  0  0  0  0  0  0
  -16.7615   17.0329  -21.8752 C   0  0  0  0  0  0  0  0  0  0  0  0
  -16.5880   16.3018  -20.7200 C   0  0  0  0  0  0  0  0  0  0  0  0
  -17.2927   16.6554  -19.6008 C   0  0  0  0  0  0  0  0  0  0  0  0
  -18.1927   17.7257  -19.5493 C   0  0  0  0  0  0  0  0  0  0  0  0
  -19.5377   20.1450  -21.1801 H   0  0  0  0  0  0  0  0  0  0  0  0
  -21.0493   17.8316  -13.3838 C   0  0  0  0  0  0  0  0  0  0  0  0
  -21.2254   19.3030  -13.2957 C   0  0  0  0  0  0  0  0  0  0  0  0
  -20.3942   20.1615  -14.0381 C   0  0  0  0  0  0  0  0  0  0  0  0
  -20.5039   21.5139  -14.0209 C   0  0  0  0  0  0  0  0  0  0  0  0
  -21.4872   22.1089  -13.2317 C   0  0  0  0  0  0  0  0  0  0  0  0
  -22.3282   21.3142  -12.4856 C   0  0  0  0  0  0  0  0  0  0  0  0
  -22.1754   19.9448  -12.5379 C   0  0  0  0  0  0  0  0  0  0  0  0
  -21.6140   11.1590  -10.8385 C   0  0  0  0  0  0  0  0  0  0  0  0
  -20.7577    9.9850  -10.9330 C   0  0  0  0  0  0  0  0  0  0  0  0
  -21.0864    8.7665  -11.5372 C   0  0  0  0  0  0  0  0  0  0  0  0
  -20.0423    7.9243  -11.4318 N   0  0  0  0  0  0  0  0  0  0  0  0
  -19.0690    8.5573  -10.7872 C   0  0  0  0  0  0  0  0  0  0  0  0
  -17.8124    8.1197  -10.4357 C   0  0  0  0  0  0  0  0  0  0  0  0
  -16.9920    8.9902   -9.7592 C   0  0  0  0  0  0  0  0  0  0  0  0
  -17.3914   10.2527   -9.4365 C   0  0  0  0  0  0  0  0  0  0  0  0
  -18.6362   10.7029   -9.7787 C   0  0  0  0  0  0  0  0  0  0  0  0
  -19.4874    9.8415  -10.4648 C   0  0  0  0  0  0  0  0  0  0  0  0
  -20.0507    6.9457  -11.8120 H   0  0  0  0  0  0  0  0  0  0  0  0
 33 34  1  0  0  0
 34 35  1  0  0  0
 34  1  1  0  0  0
  1  2  1  0  0  0
  2  3  1  0  0  0
  3  4  2  0  0  0
  3  5  1  0  0  0
  5 36  1  0  0  0
 36 37  1  0  0  0
 37 38  2  0  0  0
 38 39  1  0  0  0
 39 40  2  0  0  0
 40 41  1  0  0  0
 41 42  2  0  0  0
  5  6  1  0  0  0
  6  7  1  0  0  0
  7  8  2  0  0  0
  7  9  1  0  0  0
  9 43  1  0  0  0
 43 44  1  0  0  0
 44 45  2  0  0  0
 45 46  1  0  0  0
 46 47  1  0  0  0
 47 48  2  0  0  0
 48 49  1  0  0  0
 49 50  2  0  0  0
 50 51  1  0  0  0
 51 52  2  0  0  0
  9 10  1  0  0  0
 10 11  1  0  0  0
 11 12  2  0  0  0
 11 13  1  0  0  0
 13 54  1  0  0  0
 54 55  1  0  0  0
 55 56  2  0  0  0
 56 57  1  0  0  0
 57 58  2  0  0  0
 58 59  1  0  0  0
 59 60  2  0  0  0
 13 14  1  0  0  0
 14 15  1  0  0  0
 15 16  2  0  0  0
 15 17  1  0  0  0
 17 18  1  0  0  0
 18 19  1  0  0  0
 19 20  1  0  0  0
 20 21  1  0  0  0
 21 22  1  0  0  0
 22 23  2  0  0  0
 22 24  1  0  0  0
 24 61  1  0  0  0
 61 62  1  0  0  0
 62 63  2  0  0  0
 63 64  1  0  0  0
 64 65  1  0  0  0
 65 66  2  0  0  0
 66 67  1  0  0  0
 67 68  2  0  0  0
 68 69  1  0  0  0
 69 70  2  0  0  0
 24 25  1  0  0  0
 25 26  1  0  0  0
 26 27  2  0  0  0
 26  1  1  0  0  0
 42 37  1  0  0  0
 52 44  1  0  0  0
 60 55  1  0  0  0
 21 17  1  0  0  0
 70 62  1  0  0  0
 52 47  1  0  0  0
 70 65  1  0  0  0
  2 28  1  0  0  0
  6 29  1  0  0  0
 46 53  1  0  0  0
 10 30  1  0  0  0
 14 31  1  0  0  0
 64 71  1  0  0  0
 25 32  1  0  0  0
M  END
> <minimizedAffinity>
-9.48244

> <CNNscore>
0.0625417978

> <CNNaffinity>
7.3754248619

> <CNN_VS>
0.4612723291

> <CNNaffinity_variance>
0.4509733617

$$$$
[H]OP(=O)(O[H])C(F)(F)c1c([H])c(-c2c([H])c([H])c(-c3c(C([H])([H])c4c([H])c([H])c([H])c([H])c4[H])oc4c([H])c([H])c([H])c([H])c34)c([H])c2[H])c([H])c([H])c1F


 38 42  0  0  0  0  0  0  0  0999 V2000
  -19.2523   17.0181  -18.7767 C   0  0  0  0  0  0  0  0  0  0  0  0
  -17.9686   17.0045  -19.2392 C   0  0  0  0  0  0  0  0  0  0  0  0
  -17.4708   15.9307  -19.9961 C   0  0  0  0  0  0  0  0  0  0  0  0
  -18.2556   14.8545  -20.2978 C   0  0  0  0  0  0  0  0  0  0  0  0
  -19.5735   14.8681  -19.8254 C   0  0  0  0  0  0  0  0  0  0  0  0
  -20.0511   15.9093  -19.0941 C   0  0  0  0  0  0  0  0  0  0  0  0
  -17.8159   13.6822  -21.0782 C   0  0  0  0  0  0  0  0  0  0  0  0
  -17.5622   13.5234  -22.3994 C   0  0  0  0  0  0  0  0  0  0  0  0
  -17.1012   12.2810  -22.5495 O   0  0  0  0  0  0  0  0  0  0  0  0
  -17.0463   11.6455  -21.4267 C   0  0  0  0  0  0  0  0  0  0  0  0
  -16.6557   10.3659  -21.0195 C   0  0  0  0  0  0  0  0  0  0  0  0
  -16.7061    9.9567  -19.7183 C   0  0  0  0  0  0  0  0  0  0  0  0
  -17.1592   10.8175  -18.7239 C   0  0  0  0  0  0  0  0  0  0  0  0
  -17.5529   12.0871  -19.0914 C   0  0  0  0  0  0  0  0  0  0  0  0
  -17.4959   12.4833  -20.4084 C   0  0  0  0  0  0  0  0  0  0  0  0
  -17.7522   14.5008  -23.4900 C   0  0  0  0  0  0  0  0  0  0  0  0
  -16.5765   14.7528  -24.3311 C   0  0  0  0  0  0  0  0  0  0  0  0
  -15.3337   14.6803  -23.7053 C   0  0  0  0  0  0  0  0  0  0  0  0
  -14.2037   14.9506  -24.4511 C   0  0  0  0  0  0  0  0  0  0  0  0
  -14.3230   15.2805  -25.7790 C   0  0  0  0  0  0  0  0  0  0  0  0
  -15.5684   15.3504  -26.3973 C   0  0  0  0  0  0  0  0  0  0  0  0
  -16.7001   15.0813  -25.6511 C   0  0  0  0  0  0  0  0  0  0  0  0
  -20.1487   19.1573  -15.8135 C   0  0  0  0  0  0  0  0  0  0  0  0
  -19.5902   18.1696  -16.5822 C   0  0  0  0  0  0  0  0  0  0  0  0
  -19.8091   18.0589  -17.9373 C   0  0  0  0  0  0  0  0  0  0  0  0
  -20.6432   19.0181  -18.5245 C   0  0  0  0  0  0  0  0  0  0  0  0
  -21.2249   20.0350  -17.7710 C   0  0  0  0  0  0  0  0  0  0  0  0
  -20.9773   20.1055  -16.4101 C   0  0  0  0  0  0  0  0  0  0  0  0
  -21.5670   21.1018  -15.7133 F   0  0  0  0  0  0  0  0  0  0  0  0
  -19.9586   19.2968  -14.3585 C   0  0  0  0  0  0  0  0  0  0  0  0
  -19.9591   20.6767  -14.0746 F   0  0  0  0  0  0  0  0  0  0  0  0
  -18.7396   18.8251  -13.9108 F   0  0  0  0  0  0  0  0  0  0  0  0
  -21.6114   17.0335  -14.0049 O   0  0  0  0  0  0  0  0  0  0  0  0
  -21.2743   18.5658  -13.3700 P   0  0  0  0  0  0  0  0  0  0  0  0
  -20.7319   18.2934  -11.7750 O   0  0  0  0  0  0  0  0  0  0  0  0
  -22.5343   19.3616  -13.3399 O   0  0  0  0  0  0  0  0  0  0  0  0
  -20.8500   16.7272  -14.5538 H   0  0  0  0  0  0  0  0  0  0  0  0
  -19.8059   17.9827  -11.7285 H   0  0  0  0  0  0  0  0  0  0  0  0
 33 34  1  0  0  0
 34 35  1  0  0  0
 34 36  2  0  0  0
 34 30  1  0  0  0
 30 31  1  0  0  0
 30 32  1  0  0  0
 30 23  1  0  0  0
 23 24  2  0  0  0
 24 25  1  0  0  0
 25 26  2  0  0  0
 26 27  1  0  0  0
 27 28  2  0  0  0
 28 29  1  0  0  0
 25  1  1  0  0  0
  1  2  2  0  0  0
  2  3  1  0  0  0
  3  4  2  0  0  0
  4  5  1  0  0  0
  5  6  2  0  0  0
  4  7  1  0  0  0
  7  8  2  0  0  0
  8 16  1  0  0  0
 16 17  1  0  0  0
 17 18  2  0  0  0
 18 19  1  0  0  0
 19 20  2  0  0  0
 20 21  1  0  0  0
 21 22  2  0  0  0
  8  9  1  0  0  0
  9 10  1  0  0  0
 10 11  2  0  0  0
 11 12  1  0  0  0
 12 13  2  0  0  0
 13 14  1  0  0  0
 14 15  2  0  0  0
 28 23  1  0  0  0
  6  1  1  0  0  0
 15  7  1  0  0  0
 22 17  1  0  0  0
 15 10  1  0  0  0
 33 37  1  0  0  0
 35 38  1  0  0  0
M  END
> <minimizedAffinity>
-10.26026

> <CNNscore>
0.2744213045

> <CNNaffinity>
6.3599901199

> <CNN_VS>
1.7453167439

> <CNNaffinity_variance>
0.1871503890

$$$$
[H]OP(=O)(O[H])C(F)(F)c1c([H])c(-c2c([H])c([H])c(-c3c(C([H])([H])c4c([H])c([H])c([H])c([H])c4[H])oc4c([H])c([H])c([H])c([H])c34)c([H])c2[H])c([H])c([H])c1F


 38 42  0  0  0  0  0  0  0  0999 V2000
  -18.7202   10.4544  -17.7009 C   0  0  0  0  0  0  0  0  0  0  0  0
  -19.7907   10.9795  -17.0374 C   0  0  0  0  0  0  0  0  0  0  0  0
  -20.3757   10.3177  -15.9449 C   0  0  0  0  0  0  0  0  0  0  0  0
  -19.8942    9.1180  -15.5045 C   0  0  0  0  0  0  0  0  0  0  0  0
  -18.7946    8.5791  -16.1834 C   0  0  0  0  0  0  0  0  0  0  0  0
  -18.2314    9.2230  -17.2393 C   0  0  0  0  0  0  0  0  0  0  0  0
  -20.4488    8.3504  -14.3733 C   0  0  0  0  0  0  0  0  0  0  0  0
  -20.5259    8.6262  -13.0493 C   0  0  0  0  0  0  0  0  0  0  0  0
  -21.2123    7.6267  -12.4939 O   0  0  0  0  0  0  0  0  0  0  0  0
  -21.5717    6.7432  -13.3644 C   0  0  0  0  0  0  0  0  0  0  0  0
  -22.2830    5.5396  -13.3329 C   0  0  0  0  0  0  0  0  0  0  0  0
  -22.5200    4.7915  -14.4499 C   0  0  0  0  0  0  0  0  0  0  0  0
  -22.0512    5.2080  -15.6916 C   0  0  0  0  0  0  0  0  0  0  0  0
  -21.3451    6.3906  -15.7580 C   0  0  0  0  0  0  0  0  0  0  0  0
  -21.1149    7.1325  -14.6216 C   0  0  0  0  0  0  0  0  0  0  0  0
  -19.9682    9.7852  -12.3237 C   0  0  0  0  0  0  0  0  0  0  0  0
  -18.9299    9.4771  -11.3336 C   0  0  0  0  0  0  0  0  0  0  0  0
  -18.6070   10.4886  -10.4314 C   0  0  0  0  0  0  0  0  0  0  0  0
  -17.6068   10.2544   -9.5092 C   0  0  0  0  0  0  0  0  0  0  0  0
  -16.9573    9.0443   -9.4966 C   0  0  0  0  0  0  0  0  0  0  0  0
  -17.2859    8.0382  -10.4010 C   0  0  0  0  0  0  0  0  0  0  0  0
  -18.2862    8.2724  -11.3254 C   0  0  0  0  0  0  0  0  0  0  0  0
  -17.8039   12.8421  -20.4613 C   0  0  0  0  0  0  0  0  0  0  0  0
  -18.3848   12.3166  -19.3367 C   0  0  0  0  0  0  0  0  0  0  0  0
  -18.1112   11.0491  -18.8728 C   0  0  0  0  0  0  0  0  0  0  0  0
  -17.1903   10.2914  -19.6065 C   0  0  0  0  0  0  0  0  0  0  0  0
  -16.5818   10.7971  -20.7528 C   0  0  0  0  0  0  0  0  0  0  0  0
  -16.8894   12.0773  -21.1827 C   0  0  0  0  0  0  0  0  0  0  0  0
  -16.2841   12.5278  -22.3037 F   0  0  0  0  0  0  0  0  0  0  0  0
  -18.0867   14.1832  -21.0035 C   0  0  0  0  0  0  0  0  0  0  0  0
  -18.3795   14.0198  -22.3718 F   0  0  0  0  0  0  0  0  0  0  0  0
  -17.0045   15.0408  -20.9542 F   0  0  0  0  0  0  0  0  0  0  0  0
  -19.0955   15.4482  -18.6879 O   0  0  0  0  0  0  0  0  0  0  0  0
  -19.5152   14.9913  -20.2627 P   0  0  0  0  0  0  0  0  0  0  0  0
  -19.8632   16.4452  -21.0858 O   0  0  0  0  0  0  0  0  0  0  0  0
  -20.7400   14.1436  -20.2070 O   0  0  0  0  0  0  0  0  0  0  0  0
  -18.1123   15.4721  -18.6006 H   0  0  0  0  0  0  0  0  0  0  0  0
  -19.0632   16.9380  -21.3566 H   0  0  0  0  0  0  0  0  0  0  0  0
 33 34  1  0  0  0
 34 35  1  0  0  0
 34 36  2  0  0  0
 34 30  1  0  0  0
 30 31  1  0  0  0
 30 32  1  0  0  0
 30 23  1  0  0  0
 23 24  2  0  0  0
 24 25  1  0  0  0
 25 26  2  0  0  0
 26 27  1  0  0  0
 27 28  2  0  0  0
 28 29  1  0  0  0
 25  1  1  0  0  0
  1  2  2  0  0  0
  2  3  1  0  0  0
  3  4  2  0  0  0
  4  5  1  0  0  0
  5  6  2  0  0  0
  4  7  1  0  0  0
  7  8  2  0  0  0
  8 16  1  0  0  0
 16 17  1  0  0  0
 17 18  2  0  0  0
 18 19  1  0  0  0
 19 20  2  0  0  0
 20 21  1  0  0  0
 21 22  2  0  0  0
  8  9  1  0  0  0
  9 10  1  0  0  0
 10 11  2  0  0  0
 11 12  1  0  0  0
 12 13  2  0  0  0
 13 14  1  0  0  0
 14 15  2  0  0  0
 28 23  1  0  0  0
  6  1  1  0  0  0
 15  7  1  0  0  0
 22 17  1  0  0  0
 15 10  1  0  0  0
 33 37  1  0  0  0
 35 38  1  0  0  0
M  END
> <minimizedAffinity>
-9.93902

> <CNNscore>
0.2685837448

> <CNNaffinity>
5.8206744194

> <CNN_VS>
1.5633385181

> <CNNaffinity_variance>
0.4204369187

$$$$
[H]OP(=O)(O[H])C(F)(F)c1c([H])c(-c2c([H])c([H])c(-c3c(C([H])([H])c4c([H])c([H])c([H])c([H])c4[H])oc4c([H])c([H])c([H])c([H])c34)c([H])c2[H])c([H])c([H])c1F


 38 42  0  0  0  0  0  0  0  0999 V2000
  -17.8217   12.3280  -20.3072 C   0  0  0  0  0  0  0  0  0  0  0  0
  -16.8245   11.8818  -21.1249 C   0  0  0  0  0  0  0  0  0  0  0  0
  -16.4301   12.6026  -22.2645 C   0  0  0  0  0  0  0  0  0  0  0  0
  -17.0331   13.7812  -22.5995 C   0  0  0  0  0  0  0  0  0  0  0  0
  -18.0551   14.2410  -21.7602 C   0  0  0  0  0  0  0  0  0  0  0  0
  -18.4330   13.5409  -20.6584 C   0  0  0  0  0  0  0  0  0  0  0  0
  -16.6901   14.5990  -23.7785 C   0  0  0  0  0  0  0  0  0  0  0  0
  -16.1309   15.8278  -23.8905 C   0  0  0  0  0  0  0  0  0  0  0  0
  -15.9567   16.0469  -25.1944 O   0  0  0  0  0  0  0  0  0  0  0  0
  -16.3637   15.0530  -25.9114 C   0  0  0  0  0  0  0  0  0  0  0  0
  -16.4161   14.7606  -27.2779 C   0  0  0  0  0  0  0  0  0  0  0  0
  -16.9159   13.5871  -27.7642 C   0  0  0  0  0  0  0  0  0  0  0  0
  -17.4042   12.6143  -26.8979 C   0  0  0  0  0  0  0  0  0  0  0  0
  -17.3679   12.8709  -25.5435 C   0  0  0  0  0  0  0  0  0  0  0  0
  -16.8608   14.0599  -25.0702 C   0  0  0  0  0  0  0  0  0  0  0  0
  -15.7771   16.7722  -22.8116 C   0  0  0  0  0  0  0  0  0  0  0  0
  -16.9061   17.4430  -22.1569 C   0  0  0  0  0  0  0  0  0  0  0  0
  -16.8331   17.5812  -20.7724 C   0  0  0  0  0  0  0  0  0  0  0  0
  -17.8929   18.1702  -20.1122 C   0  0  0  0  0  0  0  0  0  0  0  0
  -18.9852   18.6047  -20.8225 C   0  0  0  0  0  0  0  0  0  0  0  0
  -19.0506   18.4635  -22.2059 C   0  0  0  0  0  0  0  0  0  0  0  0
  -17.9907   17.8728  -22.8673 C   0  0  0  0  0  0  0  0  0  0  0  0
  -19.6543   11.4091  -17.1516 C   0  0  0  0  0  0  0  0  0  0  0  0
  -19.2152   12.1153  -18.2411 C   0  0  0  0  0  0  0  0  0  0  0  0
  -18.3222   11.6045  -19.1566 C   0  0  0  0  0  0  0  0  0  0  0  0
  -17.8648   10.2998  -18.9350 C   0  0  0  0  0  0  0  0  0  0  0  0
  -18.2929    9.5556  -17.8382 C   0  0  0  0  0  0  0  0  0  0  0  0
  -19.1910   10.1117  -16.9424 C   0  0  0  0  0  0  0  0  0  0  0  0
  -19.5751    9.3604  -15.8870 F   0  0  0  0  0  0  0  0  0  0  0  0
  -20.5899   11.9270  -16.1373 C   0  0  0  0  0  0  0  0  0  0  0  0
  -19.9937   11.7099  -14.8795 F   0  0  0  0  0  0  0  0  0  0  0  0
  -21.7953   11.2527  -16.0991 F   0  0  0  0  0  0  0  0  0  0  0  0
  -21.7827   14.1638  -14.8908 O   0  0  0  0  0  0  0  0  0  0  0  0
  -20.9058   13.6955  -16.2607 P   0  0  0  0  0  0  0  0  0  0  0  0
  -19.4383   14.5634  -16.1860 O   0  0  0  0  0  0  0  0  0  0  0  0
  -21.6640   14.1003  -17.4785 O   0  0  0  0  0  0  0  0  0  0  0  0
  -21.6761   13.4856  -14.1812 H   0  0  0  0  0  0  0  0  0  0  0  0
  -18.7981   14.1877  -15.5496 H   0  0  0  0  0  0  0  0  0  0  0  0
 33 34  1  0  0  0
 34 35  1  0  0  0
 34 36  2  0  0  0
 34 30  1  0  0  0
 30 31  1  0  0  0
 30 32  1  0  0  0
 30 23  1  0  0  0
 23 24  2  0  0  0
 24 25  1  0  0  0
 25 26  2  0  0  0
 26 27  1  0  0  0
 27 28  2  0  0  0
 28 29  1  0  0  0
 25  1  1  0  0  0
  1  2  2  0  0  0
  2  3  1  0  0  0
  3  4  2  0  0  0
  4  5  1  0  0  0
  5  6  2  0  0  0
  4  7  1  0  0  0
  7  8  2  0  0  0
  8 16  1  0  0  0
 16 17  1  0  0  0
 17 18  2  0  0  0
 18 19  1  0  0  0
 19 20  2  0  0  0
 20 21  1  0  0  0
 21 22  2  0  0  0
  8  9  1  0  0  0
  9 10  1  0  0  0
 10 11  2  0  0  0
 11 12  1  0  0  0
 12 13  2  0  0  0
 13 14  1  0  0  0
 14 15  2  0  0  0
 28 23  1  0  0  0
  6  1  1  0  0  0
 15  7  1  0  0  0
 22 17  1  0  0  0
 15 10  1  0  0  0
 33 37  1  0  0  0
 35 38  1  0  0  0
M  END
> <minimizedAffinity>
-10.56102

> <CNNscore>
0.1857051998

> <CNNaffinity>
6.6029763222

> <CNN_VS>
1.2262070179

> <CNNaffinity_variance>
0.1567254514

$$$$
[H]OP(=O)(O[H])C(F)(F)c1c([H])c(-c2c([H])c([H])c(-c3c(C([H])([H])c4c([H])c([H])c([H])c([H])c4[H])oc4c([H])c([H])c([H])c([H])c34)c([H])c2[H])c([H])c([H])c1F


 38 42  0  0  0  0  0  0  0  0999 V2000
  -20.4217   15.7464  -18.6611 C   0  0  0  0  0  0  0  0  0  0  0  0
  -19.1371   16.1305  -18.9143 C   0  0  0  0  0  0  0  0  0  0  0  0
  -18.3051   15.3939  -19.7739 C   0  0  0  0  0  0  0  0  0  0  0  0
  -18.7518   14.2599  -20.3903 C   0  0  0  0  0  0  0  0  0  0  0  0
  -20.0704   13.8659  -20.1326 C   0  0  0  0  0  0  0  0  0  0  0  0
  -20.8719   14.5819  -19.3009 C   0  0  0  0  0  0  0  0  0  0  0  0
  -17.9479   13.4219  -21.3001 C   0  0  0  0  0  0  0  0  0  0  0  0
  -17.6083   13.5760  -22.6025 C   0  0  0  0  0  0  0  0  0  0  0  0
  -16.7866   12.5690  -22.9010 O   0  0  0  0  0  0  0  0  0  0  0  0
  -16.5839   11.7927  -21.8891 C   0  0  0  0  0  0  0  0  0  0  0  0
  -15.8389   10.6333  -21.6513 C   0  0  0  0  0  0  0  0  0  0  0  0
  -15.8118   10.0079  -20.4382 C   0  0  0  0  0  0  0  0  0  0  0  0
  -16.5421   10.5121  -19.3669 C   0  0  0  0  0  0  0  0  0  0  0  0
  -17.2884   11.6543  -19.5676 C   0  0  0  0  0  0  0  0  0  0  0  0
  -17.3047   12.2720  -20.7976 C   0  0  0  0  0  0  0  0  0  0  0  0
  -18.0447   14.6286  -23.5419 C   0  0  0  0  0  0  0  0  0  0  0  0
  -17.0741   14.9995  -24.5781 C   0  0  0  0  0  0  0  0  0  0  0  0
  -17.2633   14.4402  -25.8401 C   0  0  0  0  0  0  0  0  0  0  0  0
  -16.3494   14.7308  -26.8333 C   0  0  0  0  0  0  0  0  0  0  0  0
  -15.2851   15.5560  -26.5637 C   0  0  0  0  0  0  0  0  0  0  0  0
  -15.1031   16.1115  -25.3002 C   0  0  0  0  0  0  0  0  0  0  0  0
  -16.0168   15.8199  -24.3051 C   0  0  0  0  0  0  0  0  0  0  0  0
  -21.8095   18.0834  -16.0585 C   0  0  0  0  0  0  0  0  0  0  0  0
  -20.9473   17.4806  -16.9371 C   0  0  0  0  0  0  0  0  0  0  0  0
  -21.3105   16.4199  -17.7367 C   0  0  0  0  0  0  0  0  0  0  0  0
  -22.6296   15.9641  -17.6235 C   0  0  0  0  0  0  0  0  0  0  0  0
  -23.5303   16.5559  -16.7412 C   0  0  0  0  0  0  0  0  0  0  0  0
  -23.1194   17.6197  -15.9551 C   0  0  0  0  0  0  0  0  0  0  0  0
  -24.0207   18.1606  -15.1061 F   0  0  0  0  0  0  0  0  0  0  0  0
  -21.4541   19.2040  -15.1695 C   0  0  0  0  0  0  0  0  0  0  0  0
  -22.6081   20.0000  -15.0305 F   0  0  0  0  0  0  0  0  0  0  0  0
  -20.4858   20.0402  -15.6912 F   0  0  0  0  0  0  0  0  0  0  0  0
  -21.8364   17.3032  -13.1152 O   0  0  0  0  0  0  0  0  0  0  0  0
  -20.9697   18.7026  -13.5092 P   0  0  0  0  0  0  0  0  0  0  0  0
  -19.3253   18.2465  -13.4869 O   0  0  0  0  0  0  0  0  0  0  0  0
  -21.2166   19.7324  -12.4602 O   0  0  0  0  0  0  0  0  0  0  0  0
  -22.1736   16.8787  -13.9404 H   0  0  0  0  0  0  0  0  0  0  0  0
  -19.0490   17.7545  -14.2854 H   0  0  0  0  0  0  0  0  0  0  0  0
 33 34  1  0  0  0
 34 35  1  0  0  0
 34 36  2  0  0  0
 34 30  1  0  0  0
 30 31  1  0  0  0
 30 32  1  0  0  0
 30 23  1  0  0  0
 23 24  2  0  0  0
 24 25  1  0  0  0
 25 26  2  0  0  0
 26 27  1  0  0  0
 27 28  2  0  0  0
 28 29  1  0  0  0
 25  1  1  0  0  0
  1  2  2  0  0  0
  2  3  1  0  0  0
  3  4  2  0  0  0
  4  5  1  0  0  0
  5  6  2  0  0  0
  4  7  1  0  0  0
  7  8  2  0  0  0
  8 16  1  0  0  0
 16 17  1  0  0  0
 17 18  2  0  0  0
 18 19  1  0  0  0
 19 20  2  0  0  0
 20 21  1  0  0  0
 21 22  2  0  0  0
  8  9  1  0  0  0
  9 10  1  0  0  0
 10 11  2  0  0  0
 11 12  1  0  0  0
 12 13  2  0  0  0
 13 14  1  0  0  0
 14 15  2  0  0  0
 28 23  1  0  0  0
  6  1  1  0  0  0
 15  7  1  0  0  0
 22 17  1  0  0  0
 15 10  1  0  0  0
 33 37  1  0  0  0
 35 38  1  0  0  0
M  END
> <minimizedAffinity>
-9.48401

> <CNNscore>
0.1729689986

> <CNNaffinity>
6.1382665634

> <CNN_VS>
1.0617297888

> <CNNaffinity_variance>
0.1526737809

$$$$
[H]OP(=O)(O[H])C(F)(F)c1c([H])c(-c2c([H])c([H])c(-c3c(C([H])([H])c4c([H])c([H])c([H])c([H])c4[H])oc4c([H])c([H])c([H])c([H])c34)c([H])c2[H])c([H])c([H])c1F


 38 42  0  0  0  0  0  0  0  0999 V2000
  -18.8801   16.3693  -19.5254 C   0  0  0  0  0  0  0  0  0  0  0  0
  -19.6733   15.8730  -20.5187 C   0  0  0  0  0  0  0  0  0  0  0  0
  -19.1335   15.1710  -21.6094 C   0  0  0  0  0  0  0  0  0  0  0  0
  -17.7887   14.9590  -21.7183 C   0  0  0  0  0  0  0  0  0  0  0  0
  -16.9741   15.4661  -20.6988 C   0  0  0  0  0  0  0  0  0  0  0  0
  -17.5005   16.1439  -19.6451 C   0  0  0  0  0  0  0  0  0  0  0  0
  -17.1351   14.2414  -22.8293 C   0  0  0  0  0  0  0  0  0  0  0  0
  -17.1610   12.9383  -23.1988 C   0  0  0  0  0  0  0  0  0  0  0  0
  -16.4684   12.8536  -24.3353 O   0  0  0  0  0  0  0  0  0  0  0  0
  -16.0077   14.0007  -24.7089 C   0  0  0  0  0  0  0  0  0  0  0  0
  -15.2448   14.4708  -25.7825 C   0  0  0  0  0  0  0  0  0  0  0  0
  -14.8979   15.7834  -25.9241 C   0  0  0  0  0  0  0  0  0  0  0  0
  -15.2993   16.7258  -24.9828 C   0  0  0  0  0  0  0  0  0  0  0  0
  -16.0525   16.2955  -23.9108 C   0  0  0  0  0  0  0  0  0  0  0  0
  -16.3932   14.9679  -23.7833 C   0  0  0  0  0  0  0  0  0  0  0  0
  -17.8071   11.8051  -22.5065 C   0  0  0  0  0  0  0  0  0  0  0  0
  -17.3689   11.5688  -21.1262 C   0  0  0  0  0  0  0  0  0  0  0  0
  -16.2346   10.7773  -20.9577 C   0  0  0  0  0  0  0  0  0  0  0  0
  -15.8118   10.4966  -19.6738 C   0  0  0  0  0  0  0  0  0  0  0  0
  -16.5067   10.9968  -18.5998 C   0  0  0  0  0  0  0  0  0  0  0  0
  -17.6390   11.7873  -18.7763 C   0  0  0  0  0  0  0  0  0  0  0  0
  -18.0636   12.0677  -20.0612 C   0  0  0  0  0  0  0  0  0  0  0  0
  -20.6523   18.9567  -17.4458 C   0  0  0  0  0  0  0  0  0  0  0  0
  -20.2308   18.2197  -18.5217 C   0  0  0  0  0  0  0  0  0  0  0  0
  -19.3618   17.1572  -18.4097 C   0  0  0  0  0  0  0  0  0  0  0  0
  -18.9106   16.8412  -17.1224 C   0  0  0  0  0  0  0  0  0  0  0  0
  -19.3213   17.5699  -16.0086 C   0  0  0  0  0  0  0  0  0  0  0  0
  -20.1954   18.6320  -16.1701 C   0  0  0  0  0  0  0  0  0  0  0  0
  -20.5630   19.3188  -15.0660 F   0  0  0  0  0  0  0  0  0  0  0  0
  -21.5617   20.1139  -17.5258 C   0  0  0  0  0  0  0  0  0  0  0  0
  -21.5619   20.5442  -18.8673 F   0  0  0  0  0  0  0  0  0  0  0  0
  -21.1407   21.2021  -16.7858 F   0  0  0  0  0  0  0  0  0  0  0  0
  -24.2696   20.5740  -18.1856 O   0  0  0  0  0  0  0  0  0  0  0  0
  -23.2715   19.7381  -17.1039 P   0  0  0  0  0  0  0  0  0  0  0  0
  -23.5937   18.0829  -17.3662 O   0  0  0  0  0  0  0  0  0  0  0  0
  -23.6557   20.1073  -15.7118 O   0  0  0  0  0  0  0  0  0  0  0  0
  -23.7508   20.8289  -18.9860 H   0  0  0  0  0  0  0  0  0  0  0  0
  -23.1600   17.7260  -18.1665 H   0  0  0  0  0  0  0  0  0  0  0  0
 33 34  1  0  0  0
 34 35  1  0  0  0
 34 36  2  0  0  0
 34 30  1  0  0  0
 30 31  1  0  0  0
 30 32  1  0  0  0
 30 23  1  0  0  0
 23 24  2  0  0  0
 24 25  1  0  0  0
 25 26  2  0  0  0
 26 27  1  0  0  0
 27 28  2  0  0  0
 28 29  1  0  0  0
 25  1  1  0  0  0
  1  2  2  0  0  0
  2  3  1  0  0  0
  3  4  2  0  0  0
  4  5  1  0  0  0
  5  6  2  0  0  0
  4  7  1  0  0  0
  7  8  2  0  0  0
  8 16  1  0  0  0
 16 17  1  0  0  0
 17 18  2  0  0  0
 18 19  1  0  0  0
 19 20  2  0  0  0
 20 21  1  0  0  0
 21 22  2  0  0  0
  8  9  1  0  0  0
  9 10  1  0  0  0
 10 11  2  0  0  0
 11 12  1  0  0  0
 12 13  2  0  0  0
 13 14  1  0  0  0
 14 15  2  0  0  0
 28 23  1  0  0  0
  6  1  1  0  0  0
 15  7  1  0  0  0
 22 17  1  0  0  0
 15 10  1  0  0  0
 33 37  1  0  0  0
 35 38  1  0  0  0
M  END
> <minimizedAffinity>
-8.75661

> <CNNscore>
0.1527531892

> <CNNaffinity>
6.3172073364

> <CNN_VS>
0.9649735689

> <CNNaffinity_variance>
0.3347241879

$$$$
[H]OP(=O)(O[H])C(F)(F)c1c([H])c(-c2c([H])c([H])c(-c3c(C([H])([H])c4c([H])c([H])c([H])c([H])c4[H])oc4c([H])c([H])c([H])c([H])c34)c([H])c2[H])c([H])c([H])c1F


 38 42  0  0  0  0  0  0  0  0999 V2000
  -19.7036   16.7490  -18.4840 C   0  0  0  0  0  0  0  0  0  0  0  0
  -18.3489   16.6284  -18.5953 C   0  0  0  0  0  0  0  0  0  0  0  0
  -17.7624   15.6367  -19.3993 C   0  0  0  0  0  0  0  0  0  0  0  0
  -18.5289   14.7512  -20.1019 C   0  0  0  0  0  0  0  0  0  0  0  0
  -19.9190   14.8752  -19.9900 C   0  0  0  0  0  0  0  0  0  0  0  0
  -20.4821   15.8364  -19.2116 C   0  0  0  0  0  0  0  0  0  0  0  0
  -18.0006   13.6759  -20.9627 C   0  0  0  0  0  0  0  0  0  0  0  0
  -17.7851   13.6157  -22.2988 C   0  0  0  0  0  0  0  0  0  0  0  0
  -17.2027   12.4395  -22.5355 O   0  0  0  0  0  0  0  0  0  0  0  0
  -17.0365   11.7546  -21.4535 C   0  0  0  0  0  0  0  0  0  0  0  0
  -16.4978   10.5042  -21.1339 C   0  0  0  0  0  0  0  0  0  0  0  0
  -16.4526   10.0232  -19.8573 C   0  0  0  0  0  0  0  0  0  0  0  0
  -16.9531   10.7765  -18.8003 C   0  0  0  0  0  0  0  0  0  0  0  0
  -17.4922   12.0144  -19.0807 C   0  0  0  0  0  0  0  0  0  0  0  0
  -17.5300   12.4841  -20.3741 C   0  0  0  0  0  0  0  0  0  0  0  0
  -18.1202   14.6239  -23.3245 C   0  0  0  0  0  0  0  0  0  0  0  0
  -18.0345   16.0239  -22.8932 C   0  0  0  0  0  0  0  0  0  0  0  0
  -19.2313   16.7355  -22.8399 C   0  0  0  0  0  0  0  0  0  0  0  0
  -19.1905   18.0672  -22.4782 C   0  0  0  0  0  0  0  0  0  0  0  0
  -17.9873   18.6586  -22.1799 C   0  0  0  0  0  0  0  0  0  0  0  0
  -16.7957   17.9408  -22.2349 C   0  0  0  0  0  0  0  0  0  0  0  0
  -16.8356   16.6080  -22.5982 C   0  0  0  0  0  0  0  0  0  0  0  0
  -20.6102   18.9478  -15.5679 C   0  0  0  0  0  0  0  0  0  0  0  0
  -19.9418   18.0544  -16.3639 C   0  0  0  0  0  0  0  0  0  0  0  0
  -20.3726   17.7031  -17.6238 C   0  0  0  0  0  0  0  0  0  0  0  0
  -21.5493   18.3080  -18.0823 C   0  0  0  0  0  0  0  0  0  0  0  0
  -22.2509   19.2207  -17.2982 C   0  0  0  0  0  0  0  0  0  0  0  0
  -21.7803   19.5423  -16.0359 C   0  0  0  0  0  0  0  0  0  0  0  0
  -22.4941   20.4255  -15.3036 F   0  0  0  0  0  0  0  0  0  0  0  0
  -20.1959   19.3323  -14.2067 C   0  0  0  0  0  0  0  0  0  0  0  0
  -20.3125   20.7338  -14.1223 F   0  0  0  0  0  0  0  0  0  0  0  0
  -18.8716   19.0517  -13.9300 F   0  0  0  0  0  0  0  0  0  0  0  0
  -21.8838   17.1925  -13.4641 O   0  0  0  0  0  0  0  0  0  0  0  0
  -21.2301   18.6486  -12.9008 P   0  0  0  0  0  0  0  0  0  0  0  0
  -20.2750   18.2314  -11.5494 O   0  0  0  0  0  0  0  0  0  0  0  0
  -22.3437   19.5404  -12.4691 O   0  0  0  0  0  0  0  0  0  0  0  0
  -21.3488   16.8613  -14.2250 H   0  0  0  0  0  0  0  0  0  0  0  0
  -19.4102   17.8443  -11.7910 H   0  0  0  0  0  0  0  0  0  0  0  0
 33 34  1  0  0  0
 34 35  1  0  0  0
 34 36  2  0  0  0
 34 30  1  0  0  0
 30 31  1  0  0  0
 30 32  1  0  0  0
 30 23  1  0  0  0
 23 24  2  0  0  0
 24 25  1  0  0  0
 25 26  2  0  0  0
 26 27  1  0  0  0
 27 28  2  0  0  0
 28 29  1  0  0  0
 25  1  1  0  0  0
  1  2  2  0  0  0
  2  3  1  0  0  0
  3  4  2  0  0  0
  4  5  1  0  0  0
  5  6  2  0  0  0
  4  7  1  0  0  0
  7  8  2  0  0  0
  8 16  1  0  0  0
 16 17  1  0  0  0
 17 18  2  0  0  0
 18 19  1  0  0  0
 19 20  2  0  0  0
 20 21  1  0  0  0
 21 22  2  0  0  0
  8  9  1  0  0  0
  9 10  1  0  0  0
 10 11  2  0  0  0
 11 12  1  0  0  0
 12 13  2  0  0  0
 13 14  1  0  0  0
 14 15  2  0  0  0
 28 23  1  0  0  0
  6  1  1  0  0  0
 15  7  1  0  0  0
 22 17  1  0  0  0
 15 10  1  0  0  0
 33 37  1  0  0  0
 35 38  1  0  0  0
M  END
> <minimizedAffinity>
-8.68526

> <CNNscore>
0.1417992860

> <CNNaffinity>
6.0363821983

> <CNN_VS>
0.8559547067

> <CNNaffinity_variance>
0.2214980870

$$$$
[H]OP(=O)(O[H])C(F)(F)c1c([H])c(-c2c([H])c([H])c(-c3c(C([H])([H])c4c([H])c([H])c([H])c([H])c4[H])oc4c([H])c([H])c([H])c([H])c34)c([H])c2[H])c([H])c([H])c1F


 38 42  0  0  0  0  0  0  0  0999 V2000
  -18.5938   12.0578  -19.3107 C   0  0  0  0  0  0  0  0  0  0  0  0
  -19.4281   12.9917  -19.8527 C   0  0  0  0  0  0  0  0  0  0  0  0
  -19.0263   13.8008  -20.9287 C   0  0  0  0  0  0  0  0  0  0  0  0
  -17.7798   13.6839  -21.4744 C   0  0  0  0  0  0  0  0  0  0  0  0
  -16.9236   12.7247  -20.9204 C   0  0  0  0  0  0  0  0  0  0  0  0
  -17.3166   11.9437  -19.8800 C   0  0  0  0  0  0  0  0  0  0  0  0
  -17.2713   14.4943  -22.5974 C   0  0  0  0  0  0  0  0  0  0  0  0
  -16.6568   15.7011  -22.6315 C   0  0  0  0  0  0  0  0  0  0  0  0
  -16.3240   15.9204  -23.9041 O   0  0  0  0  0  0  0  0  0  0  0  0
  -16.6822   14.9471  -24.6734 C   0  0  0  0  0  0  0  0  0  0  0  0
  -16.5864   14.6645  -26.0397 C   0  0  0  0  0  0  0  0  0  0  0  0
  -17.0703   13.5140  -26.5924 C   0  0  0  0  0  0  0  0  0  0  0  0
  -17.6926   12.5561  -25.7984 C   0  0  0  0  0  0  0  0  0  0  0  0
  -17.8043   12.8036  -24.4463 C   0  0  0  0  0  0  0  0  0  0  0  0
  -17.3110   13.9694  -23.9056 C   0  0  0  0  0  0  0  0  0  0  0  0
  -16.3953   16.6251  -21.5095 C   0  0  0  0  0  0  0  0  0  0  0  0
  -17.5601   16.9758  -20.6888 C   0  0  0  0  0  0  0  0  0  0  0  0
  -17.4983   16.6361  -19.3389 C   0  0  0  0  0  0  0  0  0  0  0  0
  -18.5896   16.9116  -18.5395 C   0  0  0  0  0  0  0  0  0  0  0  0
  -19.7015   17.5087  -19.0815 C   0  0  0  0  0  0  0  0  0  0  0  0
  -19.7555   17.8456  -20.4312 C   0  0  0  0  0  0  0  0  0  0  0  0
  -18.6639   17.5689  -21.2323 C   0  0  0  0  0  0  0  0  0  0  0  0
  -19.9799   10.8514  -16.0269 C   0  0  0  0  0  0  0  0  0  0  0  0
  -19.7075   11.6468  -17.1092 C   0  0  0  0  0  0  0  0  0  0  0  0
  -18.9187   11.2383  -18.1615 C   0  0  0  0  0  0  0  0  0  0  0  0
  -18.3895    9.9438  -18.0909 C   0  0  0  0  0  0  0  0  0  0  0  0
  -18.6486    9.1105  -17.0053 C   0  0  0  0  0  0  0  0  0  0  0  0
  -19.4466    9.5653  -15.9687 C   0  0  0  0  0  0  0  0  0  0  0  0
  -19.6671    8.7296  -14.9301 F   0  0  0  0  0  0  0  0  0  0  0  0
  -20.7988   11.2586  -14.8710 C   0  0  0  0  0  0  0  0  0  0  0  0
  -20.9764   12.6531  -14.9643 F   0  0  0  0  0  0  0  0  0  0  0  0
  -20.1845   11.0424  -13.6524 F   0  0  0  0  0  0  0  0  0  0  0  0
  -22.6170    9.6953  -13.3778 O   0  0  0  0  0  0  0  0  0  0  0  0
  -22.4449   10.5294  -14.8405 P   0  0  0  0  0  0  0  0  0  0  0  0
  -23.6326   11.7546  -14.8135 O   0  0  0  0  0  0  0  0  0  0  0  0
  -22.7215    9.5904  -15.9647 O   0  0  0  0  0  0  0  0  0  0  0  0
  -21.9471   10.0210  -12.7297 H   0  0  0  0  0  0  0  0  0  0  0  0
  -23.3870   12.5198  -14.2565 H   0  0  0  0  0  0  0  0  0  0  0  0
 33 34  1  0  0  0
 34 35  1  0  0  0
 34 36  2  0  0  0
 34 30  1  0  0  0
 30 31  1  0  0  0
 30 32  1  0  0  0
 30 23  1  0  0  0
 23 24  2  0  0  0
 24 25  1  0  0  0
 25 26  2  0  0  0
 26 27  1  0  0  0
 27 28  2  0  0  0
 28 29  1  0  0  0
 25  1  1  0  0  0
  1  2  2  0  0  0
  2  3  1  0  0  0
  3  4  2  0  0  0
  4  5  1  0  0  0
  5  6  2  0  0  0
  4  7  1  0  0  0
  7  8  2  0  0  0
  8 16  1  0  0  0
 16 17  1  0  0  0
 17 18  2  0  0  0
 18 19  1  0  0  0
 19 20  2  0  0  0
 20 21  1  0  0  0
 21 22  2  0  0  0
  8  9  1  0  0  0
  9 10  1  0  0  0
 10 11  2  0  0  0
 11 12  1  0  0  0
 12 13  2  0  0  0
 13 14  1  0  0  0
 14 15  2  0  0  0
 28 23  1  0  0  0
  6  1  1  0  0  0
 15  7  1  0  0  0
 22 17  1  0  0  0
 15 10  1  0  0  0
 33 37  1  0  0  0
 35 38  1  0  0  0
M  END
> <minimizedAffinity>
-10.01869

> <CNNscore>
0.1411163509

> <CNNaffinity>
6.3826799393

> <CNN_VS>
0.9007005095

> <CNNaffinity_variance>
0.2244530022

$$$$
[H]OP(=O)(O[H])C(F)(F)c1c([H])c(-c2c([H])c([H])c(-c3c(C([H])([H])c4c([H])c([H])c([H])c([H])c4[H])oc4c([H])c([H])c([H])c([H])c34)c([H])c2[H])c([H])c([H])c1F


 38 42  0  0  0  0  0  0  0  0999 V2000
  -19.6324   13.7172  -18.2691 C   0  0  0  0  0  0  0  0  0  0  0  0
  -20.8665   14.2021  -18.5916 C   0  0  0  0  0  0  0  0  0  0  0  0
  -21.0774   15.5681  -18.8430 C   0  0  0  0  0  0  0  0  0  0  0  0
  -20.0513   16.4667  -18.7725 C   0  0  0  0  0  0  0  0  0  0  0  0
  -18.7843   15.9702  -18.4435 C   0  0  0  0  0  0  0  0  0  0  0  0
  -18.5847   14.6478  -18.2018 C   0  0  0  0  0  0  0  0  0  0  0  0
  -20.1817   17.9165  -19.0126 C   0  0  0  0  0  0  0  0  0  0  0  0
  -20.2692   18.6356  -20.1573 C   0  0  0  0  0  0  0  0  0  0  0  0
  -20.4694   19.9029  -19.7936 O   0  0  0  0  0  0  0  0  0  0  0  0
  -20.5132   20.0377  -18.5101 C   0  0  0  0  0  0  0  0  0  0  0  0
  -20.6925   21.1027  -17.6216 C   0  0  0  0  0  0  0  0  0  0  0  0
  -20.6941   20.9422  -16.2661 C   0  0  0  0  0  0  0  0  0  0  0  0
  -20.5125   19.6829  -15.7035 C   0  0  0  0  0  0  0  0  0  0  0  0
  -20.3323   18.6106  -16.5516 C   0  0  0  0  0  0  0  0  0  0  0  0
  -20.3332   18.7904  -17.9163 C   0  0  0  0  0  0  0  0  0  0  0  0
  -20.1612   18.1539  -21.5492 C   0  0  0  0  0  0  0  0  0  0  0  0
  -21.4330   17.9369  -22.2482 C   0  0  0  0  0  0  0  0  0  0  0  0
  -21.4492   18.2094  -23.6146 C   0  0  0  0  0  0  0  0  0  0  0  0
  -22.6364   18.0575  -24.3027 C   0  0  0  0  0  0  0  0  0  0  0  0
  -23.7649   17.6448  -23.6375 C   0  0  0  0  0  0  0  0  0  0  0  0
  -23.7407   17.3739  -22.2721 C   0  0  0  0  0  0  0  0  0  0  0  0
  -22.5529   17.5271  -21.5823 C   0  0  0  0  0  0  0  0  0  0  0  0
  -19.7750   10.2953  -16.7102 C   0  0  0  0  0  0  0  0  0  0  0  0
  -20.0740   11.5969  -17.0181 C   0  0  0  0  0  0  0  0  0  0  0  0
  -19.3577   12.3353  -17.9337 C   0  0  0  0  0  0  0  0  0  0  0  0
  -18.2832   11.6944  -18.5623 C   0  0  0  0  0  0  0  0  0  0  0  0
  -17.9544   10.3723  -18.2723 C   0  0  0  0  0  0  0  0  0  0  0  0
  -18.7026    9.6693  -17.3426 C   0  0  0  0  0  0  0  0  0  0  0  0
  -18.3464    8.3920  -17.0832 F   0  0  0  0  0  0  0  0  0  0  0  0
  -20.5009    9.4790  -15.7207 C   0  0  0  0  0  0  0  0  0  0  0  0
  -20.3963    8.1377  -16.1386 F   0  0  0  0  0  0  0  0  0  0  0  0
  -21.8552    9.7475  -15.6668 F   0  0  0  0  0  0  0  0  0  0  0  0
  -20.9860    8.9649  -12.9857 O   0  0  0  0  0  0  0  0  0  0  0  0
  -19.8165    9.5563  -14.0569 P   0  0  0  0  0  0  0  0  0  0  0  0
  -18.4864    8.4964  -13.9163 O   0  0  0  0  0  0  0  0  0  0  0  0
  -19.4136   10.9238  -13.6217 O   0  0  0  0  0  0  0  0  0  0  0  0
  -21.6480    8.4261  -13.4820 H   0  0  0  0  0  0  0  0  0  0  0  0
  -18.6117    7.6523  -14.3937 H   0  0  0  0  0  0  0  0  0  0  0  0
 33 34  1  0  0  0
 34 35  1  0  0  0
 34 36  2  0  0  0
 34 30  1  0  0  0
 30 31  1  0  0  0
 30 32  1  0  0  0
 30 23  1  0  0  0
 23 24  2  0  0  0
 24 25  1  0  0  0
 25 26  2  0  0  0
 26 27  1  0  0  0
 27 28  2  0  0  0
 28 29  1  0  0  0
 25  1  1  0  0  0
  1  2  2  0  0  0
  2  3  1  0  0  0
  3  4  2  0  0  0
  4  5  1  0  0  0
  5  6  2  0  0  0
  4  7  1  0  0  0
  7  8  2  0  0  0
  8 16  1  0  0  0
 16 17  1  0  0  0
 17 18  2  0  0  0
 18 19  1  0  0  0
 19 20  2  0  0  0
 20 21  1  0  0  0
 21 22  2  0  0  0
  8  9  1  0  0  0
  9 10  1  0  0  0
 10 11  2  0  0  0
 11 12  1  0  0  0
 12 13  2  0  0  0
 13 14  1  0  0  0
 14 15  2  0  0  0
 28 23  1  0  0  0
  6  1  1  0  0  0
 15  7  1  0  0  0
 22 17  1  0  0  0
 15 10  1  0  0  0
 33 37  1  0  0  0
 35 38  1  0  0  0
M  END
> <minimizedAffinity>
-8.58074

> <CNNscore>
0.1379954219

> <CNNaffinity>
5.9545297623

> <CNN_VS>
0.8216978312

> <CNNaffinity_variance>
0.0767650828

$$$$
[H]OP(=O)(O[H])C(F)(F)c1c([H])c(-c2c([H])c([H])c(-c3c(C([H])([H])c4c([H])c([H])c([H])c([H])c4[H])oc4c([H])c([H])c([H])c([H])c34)c([H])c2[H])c([H])c([H])c1F


 38 42  0  0  0  0  0  0  0  0999 V2000
  -18.9154   13.0863  -19.4881 C   0  0  0  0  0  0  0  0  0  0  0  0
  -20.0753   13.6883  -19.8809 C   0  0  0  0  0  0  0  0  0  0  0  0
  -20.0713   14.9069  -20.5801 C   0  0  0  0  0  0  0  0  0  0  0  0
  -18.9016   15.5385  -20.8933 C   0  0  0  0  0  0  0  0  0  0  0  0
  -17.7108   14.9208  -20.4925 C   0  0  0  0  0  0  0  0  0  0  0  0
  -17.7193   13.7417  -19.8169 C   0  0  0  0  0  0  0  0  0  0  0  0
  -18.8028   16.8207  -21.6164 C   0  0  0  0  0  0  0  0  0  0  0  0
  -18.6789   17.1037  -22.9353 C   0  0  0  0  0  0  0  0  0  0  0  0
  -18.7318   18.4318  -23.0439 O   0  0  0  0  0  0  0  0  0  0  0  0
  -18.8777   19.0065  -21.8967 C   0  0  0  0  0  0  0  0  0  0  0  0
  -18.9884   20.3255  -21.4455 C   0  0  0  0  0  0  0  0  0  0  0  0
  -19.1411   20.6455  -20.1273 C   0  0  0  0  0  0  0  0  0  0  0  0
  -19.1933   19.6476  -19.1595 C   0  0  0  0  0  0  0  0  0  0  0  0
  -19.0865   18.3356  -19.5705 C   0  0  0  0  0  0  0  0  0  0  0  0
  -18.9326   18.0307  -20.9039 C   0  0  0  0  0  0  0  0  0  0  0  0
  -18.5085   16.1616  -24.0597 C   0  0  0  0  0  0  0  0  0  0  0  0
  -17.3700   15.2421  -23.9530 C   0  0  0  0  0  0  0  0  0  0  0  0
  -16.1046   15.8206  -23.8785 C   0  0  0  0  0  0  0  0  0  0  0  0
  -15.0031   14.9906  -23.8180 C   0  0  0  0  0  0  0  0  0  0  0  0
  -15.1719   13.6276  -23.8308 C   0  0  0  0  0  0  0  0  0  0  0  0
  -16.4396   13.0569  -23.9048 C   0  0  0  0  0  0  0  0  0  0  0  0
  -17.5426   13.8872  -23.9668 C   0  0  0  0  0  0  0  0  0  0  0  0
  -19.6638   10.3496  -17.0161 C   0  0  0  0  0  0  0  0  0  0  0  0
  -19.7672   11.5028  -17.7494 C   0  0  0  0  0  0  0  0  0  0  0  0
  -18.8489   11.8672  -18.7088 C   0  0  0  0  0  0  0  0  0  0  0  0
  -17.7745   10.9946  -18.9208 C   0  0  0  0  0  0  0  0  0  0  0  0
  -17.6416    9.8145  -18.1929 C   0  0  0  0  0  0  0  0  0  0  0  0
  -18.5894    9.4901  -17.2365 C   0  0  0  0  0  0  0  0  0  0  0  0
  -18.4200    8.3409  -16.5462 F   0  0  0  0  0  0  0  0  0  0  0  0
  -20.6110    9.9354  -15.9655 C   0  0  0  0  0  0  0  0  0  0  0  0
  -20.7150    8.5322  -16.0361 F   0  0  0  0  0  0  0  0  0  0  0  0
  -21.8933   10.4137  -16.1551 F   0  0  0  0  0  0  0  0  0  0  0  0
  -19.6563   11.9695  -14.2536 O   0  0  0  0  0  0  0  0  0  0  0  0
  -20.0747   10.3299  -14.2924 P   0  0  0  0  0  0  0  0  0  0  0  0
  -21.3756   10.1614  -13.2007 O   0  0  0  0  0  0  0  0  0  0  0  0
  -18.9140    9.5261  -13.8141 O   0  0  0  0  0  0  0  0  0  0  0  0
  -20.0687   12.4351  -15.0204 H   0  0  0  0  0  0  0  0  0  0  0  0
  -22.2291   10.4698  -13.5648 H   0  0  0  0  0  0  0  0  0  0  0  0
 33 34  1  0  0  0
 34 35  1  0  0  0
 34 36  2  0  0  0
 34 30  1  0  0  0
 30 31  1  0  0  0
 30 32  1  0  0  0
 30 23  1  0  0  0
 23 24  2  0  0  0
 24 25  1  0  0  0
 25 26  2  0  0  0
 26 27  1  0  0  0
 27 28  2  0  0  0
 28 29  1  0  0  0
 25  1  1  0  0  0
  1  2  2  0  0  0
  2  3  1  0  0  0
  3  4  2  0  0  0
  4  5  1  0  0  0
  5  6  2  0  0  0
  4  7  1  0  0  0
  7  8  2  0  0  0
  8 16  1  0  0  0
 16 17  1  0  0  0
 17 18  2  0  0  0
 18 19  1  0  0  0
 19 20  2  0  0  0
 20 21  1  0  0  0
 21 22  2  0  0  0
  8  9  1  0  0  0
  9 10  1  0  0  0
 10 11  2  0  0  0
 11 12  1  0  0  0
 12 13  2  0  0  0
 13 14  1  0  0  0
 14 15  2  0  0  0
 28 23  1  0  0  0
  6  1  1  0  0  0
 15  7  1  0  0  0
 22 17  1  0  0  0
 15 10  1  0  0  0
 33 37  1  0  0  0
 35 38  1  0  0  0
M  END
> <minimizedAffinity>
-10.09764

> <CNNscore>
0.1292561889

> <CNNaffinity>
6.2056198120

> <CNN_VS>
0.8021147847

> <CNNaffinity_variance>
0.2482883483

$$$$
[H]c1nc(N([H])c2c([H])c(N3C([H])([H])C([H])([H])OC([H])([H])C3([H])[H])c([H])c(N3C([H])([H])C([H])([H])OC([H])([H])C3([H])[H])c2[H])nc(N(c2c([H])c(C(=O)N([H])[H])c([H])c(C(F)(F)F)c2[H])C([H])([H])[H])c1[H]


 43 47  0  0  0  0  0  0  0  0999 V2000
  -17.1863   14.9969  -24.2843 C   0  0  0  0  0  0  0  0  0  0  0  0
  -16.5038   15.3734  -25.4176 C   0  0  0  0  0  0  0  0  0  0  0  0
  -16.3344   16.7193  -25.6456 C   0  0  0  0  0  0  0  0  0  0  0  0
  -16.8315   17.6175  -24.7761 N   0  0  0  0  0  0  0  0  0  0  0  0
  -17.5003   17.2660  -23.6722 C   0  0  0  0  0  0  0  0  0  0  0  0
  -17.6624   15.9261  -23.4506 N   0  0  0  0  0  0  0  0  0  0  0  0
  -17.4110   12.7096  -25.1514 C   0  0  0  0  0  0  0  0  0  0  0  0
  -17.4183   13.5985  -24.0124 N   0  0  0  0  0  0  0  0  0  0  0  0
  -17.6052   13.1943  -22.6634 C   0  0  0  0  0  0  0  0  0  0  0  0
  -16.9120   12.1213  -22.1347 C   0  0  0  0  0  0  0  0  0  0  0  0
  -17.0332   11.6447  -20.8372 C   0  0  0  0  0  0  0  0  0  0  0  0
  -17.9263   12.3081  -20.0125 C   0  0  0  0  0  0  0  0  0  0  0  0
  -18.6518   13.3995  -20.5051 C   0  0  0  0  0  0  0  0  0  0  0  0
  -18.4970   13.8386  -21.8120 C   0  0  0  0  0  0  0  0  0  0  0  0
  -16.2510   10.5128  -20.3895 C   0  0  0  0  0  0  0  0  0  0  0  0
  -16.4968    9.9361  -19.1288 N   0  0  0  0  0  0  0  0  0  0  0  0
  -15.3617   10.0579  -21.1344 O   0  0  0  0  0  0  0  0  0  0  0  0
  -16.4936    8.8993  -19.0680 H   0  0  0  0  0  0  0  0  0  0  0  0
  -16.6747   10.5036  -18.2783 H   0  0  0  0  0  0  0  0  0  0  0  0
  -19.5938   14.0964  -19.6014 C   0  0  0  0  0  0  0  0  0  0  0  0
  -20.0455   13.2236  -18.6025 F   0  0  0  0  0  0  0  0  0  0  0  0
  -20.7169   14.5187  -20.2900 F   0  0  0  0  0  0  0  0  0  0  0  0
  -18.9596   15.1738  -18.9773 F   0  0  0  0  0  0  0  0  0  0  0  0
  -18.0909   18.1878  -22.7687 N   0  0  0  0  0  0  0  0  0  0  0  0
  -17.4935   18.9404  -22.3418 H   0  0  0  0  0  0  0  0  0  0  0  0
  -19.4478   18.1379  -22.4156 C   0  0  0  0  0  0  0  0  0  0  0  0
  -20.4873   18.2573  -23.3073 C   0  0  0  0  0  0  0  0  0  0  0  0
  -21.7876   18.1832  -22.8498 C   0  0  0  0  0  0  0  0  0  0  0  0
  -22.0218   17.9876  -21.4970 C   0  0  0  0  0  0  0  0  0  0  0  0
  -21.0137   17.8612  -20.5688 C   0  0  0  0  0  0  0  0  0  0  0  0
  -19.7223   17.9382  -21.0375 C   0  0  0  0  0  0  0  0  0  0  0  0
  -21.2366   17.6375  -19.1752 N   0  0  0  0  0  0  0  0  0  0  0  0
  -22.4459   17.0264  -18.6993 C   0  0  0  0  0  0  0  0  0  0  0  0
  -22.1180   15.9778  -17.6405 C   0  0  0  0  0  0  0  0  0  0  0  0
  -21.0120   16.2740  -16.8785 O   0  0  0  0  0  0  0  0  0  0  0  0
  -20.6973   17.6329  -16.8185 C   0  0  0  0  0  0  0  0  0  0  0  0
  -20.2319   18.0314  -18.2092 C   0  0  0  0  0  0  0  0  0  0  0  0
  -22.8663   18.3401  -23.7580 N   0  0  0  0  0  0  0  0  0  0  0  0
  -23.6369   17.2711  -24.3392 C   0  0  0  0  0  0  0  0  0  0  0  0
  -23.4686   17.3843  -25.8377 C   0  0  0  0  0  0  0  0  0  0  0  0
  -23.7425   18.6632  -26.2984 O   0  0  0  0  0  0  0  0  0  0  0  0
  -24.2381   19.4979  -25.3109 C   0  0  0  0  0  0  0  0  0  0  0  0
  -23.2682   19.6894  -24.1530 C   0  0  0  0  0  0  0  0  0  0  0  0
  7  8  1  0  0  0
  8  1  1  0  0  0
  1  2  2  0  0  0
  2  3  1  0  0  0
  3  4  2  0  0  0
  4  5  1  0  0  0
  5 24  1  0  0  0
 24 26  1  0  0  0
 26 27  2  0  0  0
 27 28  1  0  0  0
 28 29  2  0  0  0
 29 30  1  0  0  0
 30 31  2  0  0  0
 30 32  1  0  0  0
 32 33  1  0  0  0
 33 34  1  0  0  0
 34 35  1  0  0  0
 35 36  1  0  0  0
 36 37  1  0  0  0
 28 38  1  0  0  0
 38 39  1  0  0  0
 39 40  1  0  0  0
 40 41  1  0  0  0
 41 42  1  0  0  0
 42 43  1  0  0  0
  5  6  2  0  0  0
  8  9  1  0  0  0
  9 10  2  0  0  0
 10 11  1  0  0  0
 11 12  2  0  0  0
 12 13  1  0  0  0
 13 14  2  0  0  0
 13 20  1  0  0  0
 20 21  1  0  0  0
 20 22  1  0  0  0
 20 23  1  0  0  0
 11 15  1  0  0  0
 15 16  1  0  0  0
 15 17  2  0  0  0
  6  1  1  0  0  0
 14  9  1  0  0  0
 31 26  1  0  0  0
 37 32  1  0  0  0
 43 38  1  0  0  0
 24 25  1  0  0  0
 16 18  1  0  0  0
 16 19  1  0  0  0
M  END
> <minimizedAffinity>
-9.63902

> <CNNscore>
0.2259979248

> <CNNaffinity>
7.1962232590

> <CNN_VS>
1.6263315678

> <CNNaffinity_variance>
0.0536202267

$$$$
[H]c1nc(N([H])c2c([H])c(N3C([H])([H])C([H])([H])OC([H])([H])C3([H])[H])c([H])c(N3C([H])([H])C([H])([H])OC([H])([H])C3([H])[H])c2[H])nc(N(c2c([H])c(C(=O)N([H])[H])c([H])c(C(F)(F)F)c2[H])C([H])([H])[H])c1[H]


 43 47  0  0  0  0  0  0  0  0999 V2000
  -17.2713   14.7896  -22.2040 C   0  0  0  0  0  0  0  0  0  0  0  0
  -17.2429   14.1886  -23.4407 C   0  0  0  0  0  0  0  0  0  0  0  0
  -17.2180   12.8139  -23.4842 C   0  0  0  0  0  0  0  0  0  0  0  0
  -17.2189   12.1038  -22.3416 N   0  0  0  0  0  0  0  0  0  0  0  0
  -17.2426   12.6749  -21.1321 C   0  0  0  0  0  0  0  0  0  0  0  0
  -17.2702   14.0418  -21.0967 N   0  0  0  0  0  0  0  0  0  0  0  0
  -15.9743   16.8726  -22.0898 C   0  0  0  0  0  0  0  0  0  0  0  0
  -17.2680   16.2293  -22.1006 N   0  0  0  0  0  0  0  0  0  0  0  0
  -18.5159   16.9060  -22.0476 C   0  0  0  0  0  0  0  0  0  0  0  0
  -18.7164   18.0931  -22.7273 C   0  0  0  0  0  0  0  0  0  0  0  0
  -19.8909   18.8319  -22.7286 C   0  0  0  0  0  0  0  0  0  0  0  0
  -20.9432   18.3272  -21.9830 C   0  0  0  0  0  0  0  0  0  0  0  0
  -20.7856   17.1286  -21.2767 C   0  0  0  0  0  0  0  0  0  0  0  0
  -19.5899   16.4257  -21.3051 C   0  0  0  0  0  0  0  0  0  0  0  0
  -19.9892   20.0624  -23.4832 C   0  0  0  0  0  0  0  0  0  0  0  0
  -19.2709   21.2026  -23.0756 N   0  0  0  0  0  0  0  0  0  0  0  0
  -20.7150   20.0963  -24.4955 O   0  0  0  0  0  0  0  0  0  0  0  0
  -18.8052   21.7645  -23.8146 H   0  0  0  0  0  0  0  0  0  0  0  0
  -19.1970   21.4924  -22.0818 H   0  0  0  0  0  0  0  0  0  0  0  0
  -21.9278   16.6064  -20.4941 C   0  0  0  0  0  0  0  0  0  0  0  0
  -21.6970   15.2742  -20.1260 F   0  0  0  0  0  0  0  0  0  0  0  0
  -23.0861   16.6088  -21.2506 F   0  0  0  0  0  0  0  0  0  0  0  0
  -22.0966   17.3531  -19.3252 F   0  0  0  0  0  0  0  0  0  0  0  0
  -17.1810   11.9573  -19.9089 N   0  0  0  0  0  0  0  0  0  0  0  0
  -16.3943   11.2773  -19.7534 H   0  0  0  0  0  0  0  0  0  0  0  0
  -18.1325   12.1152  -18.8900 C   0  0  0  0  0  0  0  0  0  0  0  0
  -18.6749   11.0796  -18.1667 C   0  0  0  0  0  0  0  0  0  0  0  0
  -19.5987   11.3516  -17.1775 C   0  0  0  0  0  0  0  0  0  0  0  0
  -19.9619   12.6670  -16.9302 C   0  0  0  0  0  0  0  0  0  0  0  0
  -19.4447   13.7348  -17.6273 C   0  0  0  0  0  0  0  0  0  0  0  0
  -18.5260   13.4501  -18.6113 C   0  0  0  0  0  0  0  0  0  0  0  0
  -19.7911   15.0972  -17.3711 N   0  0  0  0  0  0  0  0  0  0  0  0
  -21.0773   15.4557  -16.8426 C   0  0  0  0  0  0  0  0  0  0  0  0
  -20.9146   16.4900  -15.7326 C   0  0  0  0  0  0  0  0  0  0  0  0
  -19.8510   17.3437  -15.9102 O   0  0  0  0  0  0  0  0  0  0  0  0
  -19.4371   17.4850  -17.2360 C   0  0  0  0  0  0  0  0  0  0  0  0
  -18.8363   16.1509  -17.6467 C   0  0  0  0  0  0  0  0  0  0  0  0
  -20.1892   10.2863  -16.4499 N   0  0  0  0  0  0  0  0  0  0  0  0
  -21.5070   10.2955  -15.8687 C   0  0  0  0  0  0  0  0  0  0  0  0
  -21.3235   10.0853  -14.3825 C   0  0  0  0  0  0  0  0  0  0  0  0
  -20.5349    8.9788  -14.1054 O   0  0  0  0  0  0  0  0  0  0  0  0
  -20.2161    8.2465  -15.2366 C   0  0  0  0  0  0  0  0  0  0  0  0
  -19.4299    9.0507  -16.2629 C   0  0  0  0  0  0  0  0  0  0  0  0
  7  8  1  0  0  0
  8  1  1  0  0  0
  1  2  2  0  0  0
  2  3  1  0  0  0
  3  4  2  0  0  0
  4  5  1  0  0  0
  5 24  1  0  0  0
 24 26  1  0  0  0
 26 27  2  0  0  0
 27 28  1  0  0  0
 28 29  2  0  0  0
 29 30  1  0  0  0
 30 31  2  0  0  0
 30 32  1  0  0  0
 32 33  1  0  0  0
 33 34  1  0  0  0
 34 35  1  0  0  0
 35 36  1  0  0  0
 36 37  1  0  0  0
 28 38  1  0  0  0
 38 39  1  0  0  0
 39 40  1  0  0  0
 40 41  1  0  0  0
 41 42  1  0  0  0
 42 43  1  0  0  0
  5  6  2  0  0  0
  8  9  1  0  0  0
  9 10  2  0  0  0
 10 11  1  0  0  0
 11 12  2  0  0  0
 12 13  1  0  0  0
 13 14  2  0  0  0
 13 20  1  0  0  0
 20 21  1  0  0  0
 20 22  1  0  0  0
 20 23  1  0  0  0
 11 15  1  0  0  0
 15 16  1  0  0  0
 15 17  2  0  0  0
  6  1  1  0  0  0
 14  9  1  0  0  0
 31 26  1  0  0  0
 37 32  1  0  0  0
 43 38  1  0  0  0
 24 25  1  0  0  0
 16 18  1  0  0  0
 16 19  1  0  0  0
M  END
> <minimizedAffinity>
-8.14660

> <CNNscore>
0.2193031013

> <CNNaffinity>
7.1842041016

> <CNN_VS>
1.5755182505

> <CNNaffinity_variance>
0.0568913594

$$$$
[H]c1nc(N([H])c2c([H])c(N3C([H])([H])C([H])([H])OC([H])([H])C3([H])[H])c([H])c(N3C([H])([H])C([H])([H])OC([H])([H])C3([H])[H])c2[H])nc(N(c2c([H])c(C(=O)N([H])[H])c([H])c(C(F)(F)F)c2[H])C([H])([H])[H])c1[H]


 43 47  0  0  0  0  0  0  0  0999 V2000
  -17.0795   14.8776  -24.2933 C   0  0  0  0  0  0  0  0  0  0  0  0
  -16.4407   15.1961  -25.4690 C   0  0  0  0  0  0  0  0  0  0  0  0
  -16.2198   16.5271  -25.7374 C   0  0  0  0  0  0  0  0  0  0  0  0
  -16.6269   17.4667  -24.8650 N   0  0  0  0  0  0  0  0  0  0  0  0
  -17.2524   17.1718  -23.7199 C   0  0  0  0  0  0  0  0  0  0  0  0
  -17.4662   15.8464  -23.4584 N   0  0  0  0  0  0  0  0  0  0  0  0
  -17.3714   12.5702  -25.0838 C   0  0  0  0  0  0  0  0  0  0  0  0
  -17.3632   13.4983  -23.9765 N   0  0  0  0  0  0  0  0  0  0  0  0
  -17.5818   13.1482  -22.6172 C   0  0  0  0  0  0  0  0  0  0  0  0
  -16.8781   12.1184  -22.0208 C   0  0  0  0  0  0  0  0  0  0  0  0
  -17.0276   11.6956  -20.7077 C   0  0  0  0  0  0  0  0  0  0  0  0
  -17.9629   12.3698  -19.9405 C   0  0  0  0  0  0  0  0  0  0  0  0
  -18.7006   13.4186  -20.5028 C   0  0  0  0  0  0  0  0  0  0  0  0
  -18.5163   13.8045  -21.8226 C   0  0  0  0  0  0  0  0  0  0  0  0
  -16.2309   10.6060  -20.1868 C   0  0  0  0  0  0  0  0  0  0  0  0
  -16.2581   10.3026  -18.8122 N   0  0  0  0  0  0  0  0  0  0  0  0
  -15.5250    9.9426  -20.9706 O   0  0  0  0  0  0  0  0  0  0  0  0
  -16.2945    9.3000  -18.5439 H   0  0  0  0  0  0  0  0  0  0  0  0
  -16.2408   11.0346  -18.0766 H   0  0  0  0  0  0  0  0  0  0  0  0
  -19.6881   14.1284  -19.6596 C   0  0  0  0  0  0  0  0  0  0  0  0
  -19.0897   15.2282  -19.0305 F   0  0  0  0  0  0  0  0  0  0  0  0
  -20.1560   13.3062  -18.6501 F   0  0  0  0  0  0  0  0  0  0  0  0
  -20.7433   14.6022  -20.4434 F   0  0  0  0  0  0  0  0  0  0  0  0
  -17.7499   18.1404  -22.8093 N   0  0  0  0  0  0  0  0  0  0  0  0
  -17.0969   18.8752  -22.4362 H   0  0  0  0  0  0  0  0  0  0  0  0
  -19.0854   18.1599  -22.3799 C   0  0  0  0  0  0  0  0  0  0  0  0
  -19.4891   17.9231  -21.0872 C   0  0  0  0  0  0  0  0  0  0  0  0
  -20.8323   17.9777  -20.7734 C   0  0  0  0  0  0  0  0  0  0  0  0
  -21.7512   18.2727  -21.7694 C   0  0  0  0  0  0  0  0  0  0  0  0
  -21.3935   18.5180  -23.0753 C   0  0  0  0  0  0  0  0  0  0  0  0
  -20.0519   18.4593  -23.3752 C   0  0  0  0  0  0  0  0  0  0  0  0
  -22.3244   18.8448  -24.1090 N   0  0  0  0  0  0  0  0  0  0  0  0
  -22.6811   20.2067  -24.3918 C   0  0  0  0  0  0  0  0  0  0  0  0
  -22.6831   20.4425  -25.8994 C   0  0  0  0  0  0  0  0  0  0  0  0
  -23.0506   19.3437  -26.6405 O   0  0  0  0  0  0  0  0  0  0  0  0
  -23.8311   18.4144  -25.9501 C   0  0  0  0  0  0  0  0  0  0  0  0
  -22.9313   17.7911  -24.8960 C   0  0  0  0  0  0  0  0  0  0  0  0
  -21.2605   17.7005  -19.4496 N   0  0  0  0  0  0  0  0  0  0  0  0
  -22.4780   17.0224  -19.0855 C   0  0  0  0  0  0  0  0  0  0  0  0
  -23.2716   17.9891  -18.2356 C   0  0  0  0  0  0  0  0  0  0  0  0
  -22.5185   18.5068  -17.1927 O   0  0  0  0  0  0  0  0  0  0  0  0
  -21.2688   17.9197  -17.0862 C   0  0  0  0  0  0  0  0  0  0  0  0
  -20.4137   18.1126  -18.3310 C   0  0  0  0  0  0  0  0  0  0  0  0
  7  8  1  0  0  0
  8  1  1  0  0  0
  1  2  2  0  0  0
  2  3  1  0  0  0
  3  4  2  0  0  0
  4  5  1  0  0  0
  5 24  1  0  0  0
 24 26  1  0  0  0
 26 27  2  0  0  0
 27 28  1  0  0  0
 28 29  2  0  0  0
 29 30  1  0  0  0
 30 31  2  0  0  0
 30 32  1  0  0  0
 32 33  1  0  0  0
 33 34  1  0  0  0
 34 35  1  0  0  0
 35 36  1  0  0  0
 36 37  1  0  0  0
 28 38  1  0  0  0
 38 39  1  0  0  0
 39 40  1  0  0  0
 40 41  1  0  0  0
 41 42  1  0  0  0
 42 43  1  0  0  0
  5  6  2  0  0  0
  8  9  1  0  0  0
  9 10  2  0  0  0
 10 11  1  0  0  0
 11 12  2  0  0  0
 12 13  1  0  0  0
 13 14  2  0  0  0
 13 20  1  0  0  0
 20 21  1  0  0  0
 20 22  1  0  0  0
 20 23  1  0  0  0
 11 15  1  0  0  0
 15 16  1  0  0  0
 15 17  2  0  0  0
  6  1  1  0  0  0
 14  9  1  0  0  0
 31 26  1  0  0  0
 37 32  1  0  0  0
 43 38  1  0  0  0
 24 25  1  0  0  0
 16 18  1  0  0  0
 16 19  1  0  0  0
M  END
> <minimizedAffinity>
-9.19791

> <CNNscore>
0.1831422150

> <CNNaffinity>
7.1155462265

> <CNN_VS>
1.3031568527

> <CNNaffinity_variance>
0.0566625372

$$$$
[H]c1nc(N([H])c2c([H])c(N3C([H])([H])C([H])([H])OC([H])([H])C3([H])[H])c([H])c(N3C([H])([H])C([H])([H])OC([H])([H])C3([H])[H])c2[H])nc(N(c2c([H])c(C(=O)N([H])[H])c([H])c(C(F)(F)F)c2[H])C([H])([H])[H])c1[H]


 43 47  0  0  0  0  0  0  0  0999 V2000
  -17.3190   14.6547  -22.0564 C   0  0  0  0  0  0  0  0  0  0  0  0
  -17.3252   13.9621  -23.2447 C   0  0  0  0  0  0  0  0  0  0  0  0
  -17.3676   12.5885  -23.1850 C   0  0  0  0  0  0  0  0  0  0  0  0
  -17.3986   11.9668  -21.9924 N   0  0  0  0  0  0  0  0  0  0  0  0
  -17.3894   12.6273  -20.8291 C   0  0  0  0  0  0  0  0  0  0  0  0
  -17.3499   13.9927  -20.8962 N   0  0  0  0  0  0  0  0  0  0  0  0
  -16.0598   16.6795  -22.6470 C   0  0  0  0  0  0  0  0  0  0  0  0
  -17.2448   16.0962  -22.0612 N   0  0  0  0  0  0  0  0  0  0  0  0
  -18.3365   16.8309  -21.5260 C   0  0  0  0  0  0  0  0  0  0  0  0
  -18.2289   18.1840  -21.2630 C   0  0  0  0  0  0  0  0  0  0  0  0
  -19.2311   18.9833  -20.7320 C   0  0  0  0  0  0  0  0  0  0  0  0
  -20.4353   18.3621  -20.4461 C   0  0  0  0  0  0  0  0  0  0  0  0
  -20.5898   16.9928  -20.6944 C   0  0  0  0  0  0  0  0  0  0  0  0
  -19.5568   16.2343  -21.2256 C   0  0  0  0  0  0  0  0  0  0  0  0
  -19.0074   20.3941  -20.5022 C   0  0  0  0  0  0  0  0  0  0  0  0
  -18.4787   21.2034  -21.5259 N   0  0  0  0  0  0  0  0  0  0  0  0
  -19.2900   20.8795  -19.3899 O   0  0  0  0  0  0  0  0  0  0  0  0
  -18.8985   22.1442  -21.6572 H   0  0  0  0  0  0  0  0  0  0  0  0
  -17.6986   20.8952  -22.1370 H   0  0  0  0  0  0  0  0  0  0  0  0
  -21.8891   16.3545  -20.3877 C   0  0  0  0  0  0  0  0  0  0  0  0
  -22.4359   16.9007  -19.2189 F   0  0  0  0  0  0  0  0  0  0  0  0
  -21.7298   15.0009  -20.1505 F   0  0  0  0  0  0  0  0  0  0  0  0
  -22.7945   16.5728  -21.4294 F   0  0  0  0  0  0  0  0  0  0  0  0
  -17.3579   12.0011  -19.5556 N   0  0  0  0  0  0  0  0  0  0  0  0
  -16.5838   11.3239  -19.3371 H   0  0  0  0  0  0  0  0  0  0  0  0
  -18.3232   12.2465  -18.5674 C   0  0  0  0  0  0  0  0  0  0  0  0
  -18.8906   13.4748  -18.3241 C   0  0  0  0  0  0  0  0  0  0  0  0
  -19.8407   13.6001  -17.3305 C   0  0  0  0  0  0  0  0  0  0  0  0
  -20.2072   12.4823  -16.5960 C   0  0  0  0  0  0  0  0  0  0  0  0
  -19.6677   11.2338  -16.8051 C   0  0  0  0  0  0  0  0  0  0  0  0
  -18.7209   11.1226  -17.7973 C   0  0  0  0  0  0  0  0  0  0  0  0
  -20.0493   10.0676  -16.0728 N   0  0  0  0  0  0  0  0  0  0  0  0
  -21.1265   10.0990  -15.1237 C   0  0  0  0  0  0  0  0  0  0  0  0
  -22.0162    8.8726  -15.3047 C   0  0  0  0  0  0  0  0  0  0  0  0
  -21.3454    7.7475  -15.7240 O   0  0  0  0  0  0  0  0  0  0  0  0
  -19.9823    7.7401  -15.4223 C   0  0  0  0  0  0  0  0  0  0  0  0
  -19.3432    8.8200  -16.2795 C   0  0  0  0  0  0  0  0  0  0  0  0
  -20.4060   14.8707  -17.0496 N   0  0  0  0  0  0  0  0  0  0  0  0
  -19.7770   16.1428  -17.2961 C   0  0  0  0  0  0  0  0  0  0  0  0
  -19.6695   16.8366  -15.9568 C   0  0  0  0  0  0  0  0  0  0  0  0
  -20.8829   16.8683  -15.2866 O   0  0  0  0  0  0  0  0  0  0  0  0
  -21.9336   16.3875  -16.0498 C   0  0  0  0  0  0  0  0  0  0  0  0
  -21.7471   14.9361  -16.4703 C   0  0  0  0  0  0  0  0  0  0  0  0
  7  8  1  0  0  0
  8  1  1  0  0  0
  1  2  2  0  0  0
  2  3  1  0  0  0
  3  4  2  0  0  0
  4  5  1  0  0  0
  5 24  1  0  0  0
 24 26  1  0  0  0
 26 27  2  0  0  0
 27 28  1  0  0  0
 28 29  2  0  0  0
 29 30  1  0  0  0
 30 31  2  0  0  0
 30 32  1  0  0  0
 32 33  1  0  0  0
 33 34  1  0  0  0
 34 35  1  0  0  0
 35 36  1  0  0  0
 36 37  1  0  0  0
 28 38  1  0  0  0
 38 39  1  0  0  0
 39 40  1  0  0  0
 40 41  1  0  0  0
 41 42  1  0  0  0
 42 43  1  0  0  0
  5  6  2  0  0  0
  8  9  1  0  0  0
  9 10  2  0  0  0
 10 11  1  0  0  0
 11 12  2  0  0  0
 12 13  1  0  0  0
 13 14  2  0  0  0
 13 20  1  0  0  0
 20 21  1  0  0  0
 20 22  1  0  0  0
 20 23  1  0  0  0
 11 15  1  0  0  0
 15 16  1  0  0  0
 15 17  2  0  0  0
  6  1  1  0  0  0
 14  9  1  0  0  0
 31 26  1  0  0  0
 37 32  1  0  0  0
 43 38  1  0  0  0
 24 25  1  0  0  0
 16 18  1  0  0  0
 16 19  1  0  0  0
M  END
> <minimizedAffinity>
-7.95377

> <CNNscore>
0.1745161563

> <CNNaffinity>
7.1828613281

> <CNN_VS>
1.2535253763

> <CNNaffinity_variance>
0.0499209128

$$$$
[H]c1nc(N([H])c2c([H])c(N3C([H])([H])C([H])([H])OC([H])([H])C3([H])[H])c([H])c(N3C([H])([H])C([H])([H])OC([H])([H])C3([H])[H])c2[H])nc(N(c2c([H])c(C(=O)N([H])[H])c([H])c(C(F)(F)F)c2[H])C([H])([H])[H])c1[H]


 43 47  0  0  0  0  0  0  0  0999 V2000
  -18.7552   12.4325  -18.7180 C   0  0  0  0  0  0  0  0  0  0  0  0
  -17.5418   11.8699  -19.0383 C   0  0  0  0  0  0  0  0  0  0  0  0
  -17.2487   10.6349  -18.5080 C   0  0  0  0  0  0  0  0  0  0  0  0
  -18.1344   10.0200  -17.7036 N   0  0  0  0  0  0  0  0  0  0  0  0
  -19.3165   10.5568  -17.3807 C   0  0  0  0  0  0  0  0  0  0  0  0
  -19.6021   11.7835  -17.9138 N   0  0  0  0  0  0  0  0  0  0  0  0
  -20.3295   14.3182  -18.7300 C   0  0  0  0  0  0  0  0  0  0  0  0
  -19.1007   13.7399  -19.2230 N   0  0  0  0  0  0  0  0  0  0  0  0
  -18.2093   14.3705  -20.1317 C   0  0  0  0  0  0  0  0  0  0  0  0
  -17.7420   15.6517  -19.9039 C   0  0  0  0  0  0  0  0  0  0  0  0
  -16.8809   16.3544  -20.7345 C   0  0  0  0  0  0  0  0  0  0  0  0
  -16.4613   15.7074  -21.8848 C   0  0  0  0  0  0  0  0  0  0  0  0
  -16.9100   14.4095  -22.1580 C   0  0  0  0  0  0  0  0  0  0  0  0
  -17.7729   13.7476  -21.2966 C   0  0  0  0  0  0  0  0  0  0  0  0
  -16.4524   17.6932  -20.3922 C   0  0  0  0  0  0  0  0  0  0  0  0
  -17.3148   18.5546  -19.6877 N   0  0  0  0  0  0  0  0  0  0  0  0
  -15.3128   18.0694  -20.7279 O   0  0  0  0  0  0  0  0  0  0  0  0
  -16.9022   19.1263  -18.9250 H   0  0  0  0  0  0  0  0  0  0  0  0
  -18.3265   18.6347  -19.9047 H   0  0  0  0  0  0  0  0  0  0  0  0
  -16.4405   13.7370  -23.3896 C   0  0  0  0  0  0  0  0  0  0  0  0
  -17.5306   13.3765  -24.1930 F   0  0  0  0  0  0  0  0  0  0  0  0
  -15.7721   12.5641  -23.0869 F   0  0  0  0  0  0  0  0  0  0  0  0
  -15.6250   14.5963  -24.1306 F   0  0  0  0  0  0  0  0  0  0  0  0
  -20.2453    9.9636  -16.4861 N   0  0  0  0  0  0  0  0  0  0  0  0
  -20.8488    9.1722  -16.8252 H   0  0  0  0  0  0  0  0  0  0  0  0
  -20.3964   10.3913  -15.1584 C   0  0  0  0  0  0  0  0  0  0  0  0
  -19.7883    9.7982  -14.0775 C   0  0  0  0  0  0  0  0  0  0  0  0
  -20.0002   10.3096  -12.8129 C   0  0  0  0  0  0  0  0  0  0  0  0
  -20.8227   11.4151  -12.6561 C   0  0  0  0  0  0  0  0  0  0  0  0
  -21.4506   12.0419  -13.7081 C   0  0  0  0  0  0  0  0  0  0  0  0
  -21.2322   11.5216  -14.9631 C   0  0  0  0  0  0  0  0  0  0  0  0
  -22.2833   13.1944  -13.5672 N   0  0  0  0  0  0  0  0  0  0  0  0
  -22.3874   14.1747  -14.6115 C   0  0  0  0  0  0  0  0  0  0  0  0
  -23.8484   14.5645  -14.8164 C   0  0  0  0  0  0  0  0  0  0  0  0
  -24.6073   14.5260  -13.6700 O   0  0  0  0  0  0  0  0  0  0  0  0
  -23.8769   14.6572  -12.4874 C   0  0  0  0  0  0  0  0  0  0  0  0
  -23.0437   13.3937  -12.3507 C   0  0  0  0  0  0  0  0  0  0  0  0
  -19.4044    9.6827  -11.6882 N   0  0  0  0  0  0  0  0  0  0  0  0
  -19.5206   10.1233  -10.3218 C   0  0  0  0  0  0  0  0  0  0  0  0
  -18.1159   10.4108   -9.8413 C   0  0  0  0  0  0  0  0  0  0  0  0
  -17.2564    9.3482  -10.0757 O   0  0  0  0  0  0  0  0  0  0  0  0
  -17.9057    8.2263  -10.5628 C   0  0  0  0  0  0  0  0  0  0  0  0
  -18.6055    8.4750  -11.8919 C   0  0  0  0  0  0  0  0  0  0  0  0
  7  8  1  0  0  0
  8  1  1  0  0  0
  1  2  2  0  0  0
  2  3  1  0  0  0
  3  4  2  0  0  0
  4  5  1  0  0  0
  5 24  1  0  0  0
 24 26  1  0  0  0
 26 27  2  0  0  0
 27 28  1  0  0  0
 28 29  2  0  0  0
 29 30  1  0  0  0
 30 31  2  0  0  0
 30 32  1  0  0  0
 32 33  1  0  0  0
 33 34  1  0  0  0
 34 35  1  0  0  0
 35 36  1  0  0  0
 36 37  1  0  0  0
 28 38  1  0  0  0
 38 39  1  0  0  0
 39 40  1  0  0  0
 40 41  1  0  0  0
 41 42  1  0  0  0
 42 43  1  0  0  0
  5  6  2  0  0  0
  8  9  1  0  0  0
  9 10  2  0  0  0
 10 11  1  0  0  0
 11 12  2  0  0  0
 12 13  1  0  0  0
 13 14  2  0  0  0
 13 20  1  0  0  0
 20 21  1  0  0  0
 20 22  1  0  0  0
 20 23  1  0  0  0
 11 15  1  0  0  0
 15 16  1  0  0  0
 15 17  2  0  0  0
  6  1  1  0  0  0
 14  9  1  0  0  0
 31 26  1  0  0  0
 37 32  1  0  0  0
 43 38  1  0  0  0
 24 25  1  0  0  0
 16 18  1  0  0  0
 16 19  1  0  0  0
M  END
> <minimizedAffinity>
-8.91315

> <CNNscore>
0.1472076476

> <CNNaffinity>
6.4305472374

> <CNN_VS>
0.9466257095

> <CNNaffinity_variance>
0.1912191808

$$$$
[H]c1nc(N([H])c2c([H])c(N3C([H])([H])C([H])([H])OC([H])([H])C3([H])[H])c([H])c(N3C([H])([H])C([H])([H])OC([H])([H])C3([H])[H])c2[H])nc(N(c2c([H])c(C(=O)N([H])[H])c([H])c(C(F)(F)F)c2[H])C([H])([H])[H])c1[H]


 43 47  0  0  0  0  0  0  0  0999 V2000
  -18.8354   12.0727  -18.7564 C   0  0  0  0  0  0  0  0  0  0  0  0
  -17.6244   11.5138  -19.0920 C   0  0  0  0  0  0  0  0  0  0  0  0
  -17.2817   10.3224  -18.4958 C   0  0  0  0  0  0  0  0  0  0  0  0
  -18.1187    9.7449  -17.6151 N   0  0  0  0  0  0  0  0  0  0  0  0
  -19.2976   10.2788  -17.2765 C   0  0  0  0  0  0  0  0  0  0  0  0
  -19.6328   11.4618  -17.8754 N   0  0  0  0  0  0  0  0  0  0  0  0
  -20.5073   13.8660  -18.9075 C   0  0  0  0  0  0  0  0  0  0  0  0
  -19.2309   13.3369  -19.3298 N   0  0  0  0  0  0  0  0  0  0  0  0
  -18.3402   13.9780  -20.2319 C   0  0  0  0  0  0  0  0  0  0  0  0
  -17.9241   13.3532  -21.3930 C   0  0  0  0  0  0  0  0  0  0  0  0
  -17.0509   13.8903  -22.3279 C   0  0  0  0  0  0  0  0  0  0  0  0
  -16.5624   15.1591  -22.0649 C   0  0  0  0  0  0  0  0  0  0  0  0
  -16.9549   15.8299  -20.9003 C   0  0  0  0  0  0  0  0  0  0  0  0
  -17.8304   15.2502  -19.9935 C   0  0  0  0  0  0  0  0  0  0  0  0
  -16.6876   13.1450  -23.5137 C   0  0  0  0  0  0  0  0  0  0  0  0
  -17.4794   13.2310  -24.6747 N   0  0  0  0  0  0  0  0  0  0  0  0
  -15.6670   12.4304  -23.4915 O   0  0  0  0  0  0  0  0  0  0  0  0
  -16.9865   13.3061  -25.5857 H   0  0  0  0  0  0  0  0  0  0  0  0
  -18.5168   13.2194  -24.6473 H   0  0  0  0  0  0  0  0  0  0  0  0
  -16.4251   17.1881  -20.6464 C   0  0  0  0  0  0  0  0  0  0  0  0
  -15.8706   17.7210  -21.8178 F   0  0  0  0  0  0  0  0  0  0  0  0
  -15.4062   17.1531  -19.7112 F   0  0  0  0  0  0  0  0  0  0  0  0
  -17.4522   18.0392  -20.2303 F   0  0  0  0  0  0  0  0  0  0  0  0
  -20.1743    9.7280  -16.3054 N   0  0  0  0  0  0  0  0  0  0  0  0
  -20.6896    8.8386  -16.5268 H   0  0  0  0  0  0  0  0  0  0  0  0
  -20.3870   10.3238  -15.0531 C   0  0  0  0  0  0  0  0  0  0  0  0
  -21.2603   11.3607  -14.8247 C   0  0  0  0  0  0  0  0  0  0  0  0
  -21.3979   11.8649  -13.5471 C   0  0  0  0  0  0  0  0  0  0  0  0
  -20.6526   11.3142  -12.5153 C   0  0  0  0  0  0  0  0  0  0  0  0
  -19.7681   10.2756  -12.6965 C   0  0  0  0  0  0  0  0  0  0  0  0
  -19.6393    9.7830  -13.9748 C   0  0  0  0  0  0  0  0  0  0  0  0
  -19.0088    9.6819  -11.6416 N   0  0  0  0  0  0  0  0  0  0  0  0
  -18.6945   10.4099  -10.4444 C   0  0  0  0  0  0  0  0  0  0  0  0
  -18.9272    9.5272   -9.2216 C   0  0  0  0  0  0  0  0  0  0  0  0
  -18.6851    8.1907   -9.4380 O   0  0  0  0  0  0  0  0  0  0  0  0
  -17.8105    7.9242  -10.4930 C   0  0  0  0  0  0  0  0  0  0  0  0
  -18.5372    8.3183  -11.7681 C   0  0  0  0  0  0  0  0  0  0  0  0
  -22.2710   12.9576  -13.3088 N   0  0  0  0  0  0  0  0  0  0  0  0
  -22.9527   13.2332  -12.0703 C   0  0  0  0  0  0  0  0  0  0  0  0
  -24.4327   13.2136  -12.3799 C   0  0  0  0  0  0  0  0  0  0  0  0
  -24.7519   14.0299  -13.4544 O   0  0  0  0  0  0  0  0  0  0  0  0
  -23.6754   14.7763  -13.9035 C   0  0  0  0  0  0  0  0  0  0  0  0
  -22.5158   13.9157  -14.3859 C   0  0  0  0  0  0  0  0  0  0  0  0
  7  8  1  0  0  0
  8  1  1  0  0  0
  1  2  2  0  0  0
  2  3  1  0  0  0
  3  4  2  0  0  0
  4  5  1  0  0  0
  5 24  1  0  0  0
 24 26  1  0  0  0
 26 27  2  0  0  0
 27 28  1  0  0  0
 28 29  2  0  0  0
 29 30  1  0  0  0
 30 31  2  0  0  0
 30 32  1  0  0  0
 32 33  1  0  0  0
 33 34  1  0  0  0
 34 35  1  0  0  0
 35 36  1  0  0  0
 36 37  1  0  0  0
 28 38  1  0  0  0
 38 39  1  0  0  0
 39 40  1  0  0  0
 40 41  1  0  0  0
 41 42  1  0  0  0
 42 43  1  0  0  0
  5  6  2  0  0  0
  8  9  1  0  0  0
  9 10  2  0  0  0
 10 11  1  0  0  0
 11 12  2  0  0  0
 12 13  1  0  0  0
 13 14  2  0  0  0
 13 20  1  0  0  0
 20 21  1  0  0  0
 20 22  1  0  0  0
 20 23  1  0  0  0
 11 15  1  0  0  0
 15 16  1  0  0  0
 15 17  2  0  0  0
  6  1  1  0  0  0
 14  9  1  0  0  0
 31 26  1  0  0  0
 37 32  1  0  0  0
 43 38  1  0  0  0
 24 25  1  0  0  0
 16 18  1  0  0  0
 16 19  1  0  0  0
M  END
> <minimizedAffinity>
-8.81474

> <CNNscore>
0.1329256743

> <CNNaffinity>
6.5357947350

> <CNN_VS>
0.8687749505

> <CNNaffinity_variance>
0.0898140818

$$$$
[H]c1nc(N([H])c2c([H])c(N3C([H])([H])C([H])([H])OC([H])([H])C3([H])[H])c([H])c(N3C([H])([H])C([H])([H])OC([H])([H])C3([H])[H])c2[H])nc(N(c2c([H])c(C(=O)N([H])[H])c([H])c(C(F)(F)F)c2[H])C([H])([H])[H])c1[H]


 43 47  0  0  0  0  0  0  0  0999 V2000
  -16.9528   14.8765  -23.9033 C   0  0  0  0  0  0  0  0  0  0  0  0
  -16.7189   15.3297  -25.1806 C   0  0  0  0  0  0  0  0  0  0  0  0
  -16.4348   16.6656  -25.3441 C   0  0  0  0  0  0  0  0  0  0  0  0
  -16.3958   17.4816  -24.2753 N   0  0  0  0  0  0  0  0  0  0  0  0
  -16.6247   17.0555  -23.0280 C   0  0  0  0  0  0  0  0  0  0  0  0
  -16.9038   15.7256  -22.8728 N   0  0  0  0  0  0  0  0  0  0  0  0
  -17.1922   12.6107  -24.8213 C   0  0  0  0  0  0  0  0  0  0  0  0
  -17.2850   13.4899  -23.6786 N   0  0  0  0  0  0  0  0  0  0  0  0
  -17.6453   13.0855  -22.3654 C   0  0  0  0  0  0  0  0  0  0  0  0
  -17.0221   12.0164  -21.7488 C   0  0  0  0  0  0  0  0  0  0  0  0
  -17.3103   11.5400  -20.4779 C   0  0  0  0  0  0  0  0  0  0  0  0
  -18.3074   12.1991  -19.7785 C   0  0  0  0  0  0  0  0  0  0  0  0
  -18.9675   13.2864  -20.3636 C   0  0  0  0  0  0  0  0  0  0  0  0
  -18.6446   13.7256  -21.6394 C   0  0  0  0  0  0  0  0  0  0  0  0
  -16.5879   10.4125  -19.9299 C   0  0  0  0  0  0  0  0  0  0  0  0
  -17.0167    9.8114  -18.7311 N   0  0  0  0  0  0  0  0  0  0  0  0
  -15.5859    9.9832  -20.5336 O   0  0  0  0  0  0  0  0  0  0  0  0
  -17.0053    8.7739  -18.6851 H   0  0  0  0  0  0  0  0  0  0  0  0
  -17.3343   10.3620  -17.9108 H   0  0  0  0  0  0  0  0  0  0  0  0
  -20.0236   13.9789  -19.5923 C   0  0  0  0  0  0  0  0  0  0  0  0
  -19.9133   15.3665  -19.7534 F   0  0  0  0  0  0  0  0  0  0  0  0
  -19.8890   13.7296  -18.2382 F   0  0  0  0  0  0  0  0  0  0  0  0
  -21.2875   13.5919  -20.0453 F   0  0  0  0  0  0  0  0  0  0  0  0
  -16.6531   17.9007  -21.8880 N   0  0  0  0  0  0  0  0  0  0  0  0
  -15.7633   18.3627  -21.5710 H   0  0  0  0  0  0  0  0  0  0  0  0
  -17.8254   18.1478  -21.1579 C   0  0  0  0  0  0  0  0  0  0  0  0
  -17.9250   18.0449  -19.7906 C   0  0  0  0  0  0  0  0  0  0  0  0
  -19.1285   18.3215  -19.1737 C   0  0  0  0  0  0  0  0  0  0  0  0
  -20.2164   18.7005  -19.9458 C   0  0  0  0  0  0  0  0  0  0  0  0
  -20.1631   18.8181  -21.3158 C   0  0  0  0  0  0  0  0  0  0  0  0
  -18.9582   18.5383  -21.9186 C   0  0  0  0  0  0  0  0  0  0  0  0
  -21.2676   19.2283  -22.1244 N   0  0  0  0  0  0  0  0  0  0  0  0
  -21.2529   19.0631  -23.5508 C   0  0  0  0  0  0  0  0  0  0  0  0
  -22.5934   18.5097  -24.0251 C   0  0  0  0  0  0  0  0  0  0  0  0
  -23.6696   18.9203  -23.2733 O   0  0  0  0  0  0  0  0  0  0  0  0
  -23.4695   20.1160  -22.5808 C   0  0  0  0  0  0  0  0  0  0  0  0
  -22.4334   19.8266  -21.5074 C   0  0  0  0  0  0  0  0  0  0  0  0
  -19.2495   18.1843  -17.7668 N   0  0  0  0  0  0  0  0  0  0  0  0
  -18.9143   17.0081  -17.0059 C   0  0  0  0  0  0  0  0  0  0  0  0
  -20.1821   16.5720  -16.3066 C   0  0  0  0  0  0  0  0  0  0  0  0
  -20.7757   17.6112  -15.6062 O   0  0  0  0  0  0  0  0  0  0  0  0
  -20.0053   18.7618  -15.5922 C   0  0  0  0  0  0  0  0  0  0  0  0
  -19.7420   19.3176  -16.9850 C   0  0  0  0  0  0  0  0  0  0  0  0
  7  8  1  0  0  0
  8  1  1  0  0  0
  1  2  2  0  0  0
  2  3  1  0  0  0
  3  4  2  0  0  0
  4  5  1  0  0  0
  5 24  1  0  0  0
 24 26  1  0  0  0
 26 27  2  0  0  0
 27 28  1  0  0  0
 28 29  2  0  0  0
 29 30  1  0  0  0
 30 31  2  0  0  0
 30 32  1  0  0  0
 32 33  1  0  0  0
 33 34  1  0  0  0
 34 35  1  0  0  0
 35 36  1  0  0  0
 36 37  1  0  0  0
 28 38  1  0  0  0
 38 39  1  0  0  0
 39 40  1  0  0  0
 40 41  1  0  0  0
 41 42  1  0  0  0
 42 43  1  0  0  0
  5  6  2  0  0  0
  8  9  1  0  0  0
  9 10  2  0  0  0
 10 11  1  0  0  0
 11 12  2  0  0  0
 12 13  1  0  0  0
 13 14  2  0  0  0
 13 20  1  0  0  0
 20 21  1  0  0  0
 20 22  1  0  0  0
 20 23  1  0  0  0
 11 15  1  0  0  0
 15 16  1  0  0  0
 15 17  2  0  0  0
  6  1  1  0  0  0
 14  9  1  0  0  0
 31 26  1  0  0  0
 37 32  1  0  0  0
 43 38  1  0  0  0
 24 25  1  0  0  0
 16 18  1  0  0  0
 16 19  1  0  0  0
M  END
> <minimizedAffinity>
-8.93970

> <CNNscore>
0.1170191765

> <CNNaffinity>
7.1053481102

> <CNN_VS>
0.8314619660

> <CNNaffinity_variance>
0.1135523543

$$$$
[H]c1nc(N([H])c2c([H])c(N3C([H])([H])C([H])([H])OC([H])([H])C3([H])[H])c([H])c(N3C([H])([H])C([H])([H])OC([H])([H])C3([H])[H])c2[H])nc(N(c2c([H])c(C(=O)N([H])[H])c([H])c(C(F)(F)F)c2[H])C([H])([H])[H])c1[H]


 43 47  0  0  0  0  0  0  0  0999 V2000
  -18.8369   12.1561  -18.8002 C   0  0  0  0  0  0  0  0  0  0  0  0
  -17.5898   11.6323  -19.0495 C   0  0  0  0  0  0  0  0  0  0  0  0
  -17.2465   10.4638  -18.4100 C   0  0  0  0  0  0  0  0  0  0  0  0
  -18.1175    9.8741  -17.5713 N   0  0  0  0  0  0  0  0  0  0  0  0
  -19.3320   10.3740  -17.3166 C   0  0  0  0  0  0  0  0  0  0  0  0
  -19.6674   11.5344  -17.9582 N   0  0  0  0  0  0  0  0  0  0  0  0
  -20.5548   13.8874  -19.0923 C   0  0  0  0  0  0  0  0  0  0  0  0
  -19.2367   13.3960  -19.4217 N   0  0  0  0  0  0  0  0  0  0  0  0
  -18.3115   14.0525  -20.2767 C   0  0  0  0  0  0  0  0  0  0  0  0
  -17.8669   13.4572  -21.4426 C   0  0  0  0  0  0  0  0  0  0  0  0
  -16.9592   14.0110  -22.3342 C   0  0  0  0  0  0  0  0  0  0  0  0
  -16.4648   15.2655  -22.0187 C   0  0  0  0  0  0  0  0  0  0  0  0
  -16.8855   15.9064  -20.8470 C   0  0  0  0  0  0  0  0  0  0  0  0
  -17.7950   15.3109  -19.9851 C   0  0  0  0  0  0  0  0  0  0  0  0
  -16.5680   13.2965  -23.5299 C   0  0  0  0  0  0  0  0  0  0  0  0
  -15.2114   13.2226  -23.8990 N   0  0  0  0  0  0  0  0  0  0  0  0
  -17.4465   12.7490  -24.2237 O   0  0  0  0  0  0  0  0  0  0  0  0
  -14.8582   12.3088  -24.2438 H   0  0  0  0  0  0  0  0  0  0  0  0
  -14.5698   14.0362  -23.8402 H   0  0  0  0  0  0  0  0  0  0  0  0
  -16.3485   17.2499  -20.5367 C   0  0  0  0  0  0  0  0  0  0  0  0
  -15.3586   17.1621  -19.5489 F   0  0  0  0  0  0  0  0  0  0  0  0
  -17.3386   18.0711  -20.0275 F   0  0  0  0  0  0  0  0  0  0  0  0
  -15.7709   17.8162  -21.6761 F   0  0  0  0  0  0  0  0  0  0  0  0
  -20.2490    9.8114  -16.3908 N   0  0  0  0  0  0  0  0  0  0  0  0
  -20.8574    9.0099  -16.6957 H   0  0  0  0  0  0  0  0  0  0  0  0
  -20.3822   10.2825  -15.0759 C   0  0  0  0  0  0  0  0  0  0  0  0
  -19.7628    9.7225  -13.9839 C   0  0  0  0  0  0  0  0  0  0  0  0
  -19.9573   10.2754  -12.7340 C   0  0  0  0  0  0  0  0  0  0  0  0
  -20.7740   11.3886  -12.6031 C   0  0  0  0  0  0  0  0  0  0  0  0
  -21.4127   11.9833  -13.6671 C   0  0  0  0  0  0  0  0  0  0  0  0
  -21.2116   11.4218  -14.9071 C   0  0  0  0  0  0  0  0  0  0  0  0
  -22.2397   13.1430  -13.5536 N   0  0  0  0  0  0  0  0  0  0  0  0
  -22.3448   14.0949  -14.6236 C   0  0  0  0  0  0  0  0  0  0  0  0
  -23.8051   14.4855  -14.8318 C   0  0  0  0  0  0  0  0  0  0  0  0
  -24.5583   14.4817  -13.6810 O   0  0  0  0  0  0  0  0  0  0  0  0
  -23.8213   14.6417  -12.5061 C   0  0  0  0  0  0  0  0  0  0  0  0
  -22.9929   13.3787  -12.3391 C   0  0  0  0  0  0  0  0  0  0  0  0
  -19.3497    9.6830  -11.5969 N   0  0  0  0  0  0  0  0  0  0  0  0
  -19.4600   10.1594  -10.2421 C   0  0  0  0  0  0  0  0  0  0  0  0
  -18.0542   10.4693   -9.7791 C   0  0  0  0  0  0  0  0  0  0  0  0
  -17.1889    9.4066   -9.9906 O   0  0  0  0  0  0  0  0  0  0  0  0
  -17.8336    8.2676  -10.4430 C   0  0  0  0  0  0  0  0  0  0  0  0
  -18.5439    8.4757  -11.7735 C   0  0  0  0  0  0  0  0  0  0  0  0
  7  8  1  0  0  0
  8  1  1  0  0  0
  1  2  2  0  0  0
  2  3  1  0  0  0
  3  4  2  0  0  0
  4  5  1  0  0  0
  5 24  1  0  0  0
 24 26  1  0  0  0
 26 27  2  0  0  0
 27 28  1  0  0  0
 28 29  2  0  0  0
 29 30  1  0  0  0
 30 31  2  0  0  0
 30 32  1  0  0  0
 32 33  1  0  0  0
 33 34  1  0  0  0
 34 35  1  0  0  0
 35 36  1  0  0  0
 36 37  1  0  0  0
 28 38  1  0  0  0
 38 39  1  0  0  0
 39 40  1  0  0  0
 40 41  1  0  0  0
 41 42  1  0  0  0
 42 43  1  0  0  0
  5  6  2  0  0  0
  8  9  1  0  0  0
  9 10  2  0  0  0
 10 11  1  0  0  0
 11 12  2  0  0  0
 12 13  1  0  0  0
 13 14  2  0  0  0
 13 20  1  0  0  0
 20 21  1  0  0  0
 20 22  1  0  0  0
 20 23  1  0  0  0
 11 15  1  0  0  0
 15 16  1  0  0  0
 15 17  2  0  0  0
  6  1  1  0  0  0
 14  9  1  0  0  0
 31 26  1  0  0  0
 37 32  1  0  0  0
 43 38  1  0  0  0
 24 25  1  0  0  0
 16 18  1  0  0  0
 16 19  1  0  0  0
M  END
> <minimizedAffinity>
-8.82349

> <CNNscore>
0.1116896495

> <CNNaffinity>
6.5632772446

> <CNN_VS>
0.7330501080

> <CNNaffinity_variance>
0.0949492082

$$$$
[H]c1nc(N([H])c2c([H])c(N3C([H])([H])C([H])([H])OC([H])([H])C3([H])[H])c([H])c(N3C([H])([H])C([H])([H])OC([H])([H])C3([H])[H])c2[H])nc(N(c2c([H])c(C(=O)N([H])[H])c([H])c(C(F)(F)F)c2[H])C([H])([H])[H])c1[H]


 43 47  0  0  0  0  0  0  0  0999 V2000
  -18.7210   12.1782  -19.1548 C   0  0  0  0  0  0  0  0  0  0  0  0
  -18.7500   11.3981  -18.0224 C   0  0  0  0  0  0  0  0  0  0  0  0
  -19.7240   11.6622  -17.0877 C   0  0  0  0  0  0  0  0  0  0  0  0
  -20.6050   12.6574  -17.2958 N   0  0  0  0  0  0  0  0  0  0  0  0
  -20.5864   13.4262  -18.3903 C   0  0  0  0  0  0  0  0  0  0  0  0
  -19.6171   13.1560  -19.3166 N   0  0  0  0  0  0  0  0  0  0  0  0
  -17.0476   10.6749  -20.1417 C   0  0  0  0  0  0  0  0  0  0  0  0
  -17.7014   11.9633  -20.1536 N   0  0  0  0  0  0  0  0  0  0  0  0
  -17.4358   13.0043  -21.0831 C   0  0  0  0  0  0  0  0  0  0  0  0
  -17.1535   14.2892  -20.6579 C   0  0  0  0  0  0  0  0  0  0  0  0
  -16.8926   15.3721  -21.4853 C   0  0  0  0  0  0  0  0  0  0  0  0
  -16.9200   15.1329  -22.8490 C   0  0  0  0  0  0  0  0  0  0  0  0
  -17.2031   13.8473  -23.3260 C   0  0  0  0  0  0  0  0  0  0  0  0
  -17.4591   12.7955  -22.4583 C   0  0  0  0  0  0  0  0  0  0  0  0
  -16.6038   16.6756  -20.9276 C   0  0  0  0  0  0  0  0  0  0  0  0
  -16.8875   16.9462  -19.5754 N   0  0  0  0  0  0  0  0  0  0  0  0
  -16.1010   17.5501  -21.6592 O   0  0  0  0  0  0  0  0  0  0  0  0
  -16.1799   17.4817  -19.0357 H   0  0  0  0  0  0  0  0  0  0  0  0
  -17.7636   16.6354  -19.1138 H   0  0  0  0  0  0  0  0  0  0  0  0
  -17.2182   13.6160  -24.7875 C   0  0  0  0  0  0  0  0  0  0  0  0
  -17.6582   12.3159  -25.0698 F   0  0  0  0  0  0  0  0  0  0  0  0
  -15.9445   13.7223  -25.3168 F   0  0  0  0  0  0  0  0  0  0  0  0
  -18.0914   14.5111  -25.4110 F   0  0  0  0  0  0  0  0  0  0  0  0
  -21.4605   14.5226  -18.6110 N   0  0  0  0  0  0  0  0  0  0  0  0
  -22.4980   14.3533  -18.6360 H   0  0  0  0  0  0  0  0  0  0  0  0
  -20.9976   15.8335  -18.8007 C   0  0  0  0  0  0  0  0  0  0  0  0
  -20.7942   16.4150  -20.0296 C   0  0  0  0  0  0  0  0  0  0  0  0
  -20.3444   17.7183  -20.0991 C   0  0  0  0  0  0  0  0  0  0  0  0
  -20.1072   18.4187  -18.9259 C   0  0  0  0  0  0  0  0  0  0  0  0
  -20.2980   17.8785  -17.6747 C   0  0  0  0  0  0  0  0  0  0  0  0
  -20.7453   16.5783  -17.6192 C   0  0  0  0  0  0  0  0  0  0  0  0
  -20.0797   18.5924  -16.4563 N   0  0  0  0  0  0  0  0  0  0  0  0
  -20.3330   20.0025  -16.3595 C   0  0  0  0  0  0  0  0  0  0  0  0
  -21.0764   20.3105  -15.0631 C   0  0  0  0  0  0  0  0  0  0  0  0
  -20.7540   19.4770  -14.0176 O   0  0  0  0  0  0  0  0  0  0  0  0
  -19.5008   18.8711  -14.1256 C   0  0  0  0  0  0  0  0  0  0  0  0
  -19.5910   17.8935  -15.2856 C   0  0  0  0  0  0  0  0  0  0  0  0
  -20.0988   18.3146  -21.3628 N   0  0  0  0  0  0  0  0  0  0  0  0
  -20.7434   17.9563  -22.6000 C   0  0  0  0  0  0  0  0  0  0  0  0
  -19.6480   17.5130  -23.5435 C   0  0  0  0  0  0  0  0  0  0  0  0
  -18.6241   18.4442  -23.6288 O   0  0  0  0  0  0  0  0  0  0  0  0
  -18.9028   19.6166  -22.9466 C   0  0  0  0  0  0  0  0  0  0  0  0
  -19.1220   19.3988  -21.4558 C   0  0  0  0  0  0  0  0  0  0  0  0
  7  8  1  0  0  0
  8  1  1  0  0  0
  1  2  2  0  0  0
  2  3  1  0  0  0
  3  4  2  0  0  0
  4  5  1  0  0  0
  5 24  1  0  0  0
 24 26  1  0  0  0
 26 27  2  0  0  0
 27 28  1  0  0  0
 28 29  2  0  0  0
 29 30  1  0  0  0
 30 31  2  0  0  0
 30 32  1  0  0  0
 32 33  1  0  0  0
 33 34  1  0  0  0
 34 35  1  0  0  0
 35 36  1  0  0  0
 36 37  1  0  0  0
 28 38  1  0  0  0
 38 39  1  0  0  0
 39 40  1  0  0  0
 40 41  1  0  0  0
 41 42  1  0  0  0
 42 43  1  0  0  0
  5  6  2  0  0  0
  8  9  1  0  0  0
  9 10  2  0  0  0
 10 11  1  0  0  0
 11 12  2  0  0  0
 12 13  1  0  0  0
 13 14  2  0  0  0
 13 20  1  0  0  0
 20 21  1  0  0  0
 20 22  1  0  0  0
 20 23  1  0  0  0
 11 15  1  0  0  0
 15 16  1  0  0  0
 15 17  2  0  0  0
  6  1  1  0  0  0
 14  9  1  0  0  0
 31 26  1  0  0  0
 37 32  1  0  0  0
 43 38  1  0  0  0
 24 25  1  0  0  0
 16 18  1  0  0  0
 16 19  1  0  0  0
M  END
> <minimizedAffinity>
-8.75300

> <CNNscore>
0.0903747231

> <CNNaffinity>
6.0558996201

> <CNN_VS>
0.5473002791

> <CNNaffinity_variance>
1.4618207216

$$$$
[H]c1nc([H])c2sc(C(=O)N([H])[H])c([H])c2c1Oc1c([H])c([H])c(N([H])C(=O)C2(C#N)C([H])([H])C2([H])[H])c([H])c1[H]


 30 33  0  0  0  0  0  0  0  0999 V2000
  -18.1779   12.0144  -18.7649 O   0  0  0  0  0  0  0  0  0  0  0  0
  -17.6598   13.8786  -22.6322 C   0  0  0  0  0  0  0  0  0  0  0  0
  -17.9035   13.3720  -21.3832 C   0  0  0  0  0  0  0  0  0  0  0  0
  -17.2232   12.2762  -21.0065 C   0  0  0  0  0  0  0  0  0  0  0  0
  -17.3030   11.5843  -19.7878 C   0  0  0  0  0  0  0  0  0  0  0  0
  -16.5189   10.4776  -19.5942 C   0  0  0  0  0  0  0  0  0  0  0  0
  -15.6475    9.9726  -20.4949 N   0  0  0  0  0  0  0  0  0  0  0  0
  -15.5566   10.6228  -21.6707 C   0  0  0  0  0  0  0  0  0  0  0  0
  -16.3377   11.7560  -21.9111 C   0  0  0  0  0  0  0  0  0  0  0  0
  -16.4824   12.8061  -23.2488 S   0  0  0  0  0  0  0  0  0  0  0  0
  -18.6811   16.1595  -22.4746 N   0  0  0  0  0  0  0  0  0  0  0  0
  -18.2757   15.0629  -23.2694 C   0  0  0  0  0  0  0  0  0  0  0  0
  -18.4378   15.0974  -24.4986 O   0  0  0  0  0  0  0  0  0  0  0  0
  -17.9804   16.8782  -22.1889 H   0  0  0  0  0  0  0  0  0  0  0  0
  -19.6605   16.2823  -22.1583 H   0  0  0  0  0  0  0  0  0  0  0  0
  -18.7587   11.1122  -17.8932 C   0  0  0  0  0  0  0  0  0  0  0  0
  -19.8054   11.4387  -17.0688 C   0  0  0  0  0  0  0  0  0  0  0  0
  -20.3734   10.5030  -16.1959 C   0  0  0  0  0  0  0  0  0  0  0  0
  -19.9081    9.2092  -16.1231 C   0  0  0  0  0  0  0  0  0  0  0  0
  -18.8397    8.8851  -16.9679 C   0  0  0  0  0  0  0  0  0  0  0  0
  -18.2957    9.8176  -17.8179 C   0  0  0  0  0  0  0  0  0  0  0  0
  -20.4321    8.2178  -15.2687 N   0  0  0  0  0  0  0  0  0  0  0  0
  -20.0157    7.8397  -13.9964 C   0  0  0  0  0  0  0  0  0  0  0  0
  -19.0648    8.3389  -13.3717 O   0  0  0  0  0  0  0  0  0  0  0  0
  -21.2725    7.6775  -15.6548 H   0  0  0  0  0  0  0  0  0  0  0  0
  -20.7306    6.7369  -13.2489 C   0  0  0  0  0  0  0  0  0  0  0  0
  -20.4741    5.3195  -13.7054 C   0  0  0  0  0  0  0  0  0  0  0  0
  -21.7887    5.9812  -13.9556 C   0  0  0  0  0  0  0  0  0  0  0  0
  -20.7991    6.9533  -11.8104 C   0  0  0  0  0  0  0  0  0  0  0  0
  -20.8631    7.1077  -10.6688 N   0  0  0  0  0  0  0  0  0  0  0  0
 11 12  1  0  0  0
 12 13  2  0  0  0
 12  2  1  0  0  0
  2  3  2  0  0  0
  3  4  1  0  0  0
  4  5  2  0  0  0
  5  1  1  0  0  0
  1 16  1  0  0  0
 16 17  2  0  0  0
 17 18  1  0  0  0
 18 19  2  0  0  0
 19 22  1  0  0  0
 22 23  1  0  0  0
 23 24  2  0  0  0
 23 26  1  0  0  0
 26 27  1  0  0  0
 27 28  1  0  0  0
 26 29  1  0  0  0
 29 30  3  0  0  0
 19 20  1  0  0  0
 20 21  2  0  0  0
  5  6  1  0  0  0
  6  7  2  0  0  0
  7  8  1  0  0  0
  8  9  2  0  0  0
  9 10  1  0  0  0
 10  2  1  0  0  0
  9  4  1  0  0  0
 21 16  1  0  0  0
 28 26  1  0  0  0
 11 14  1  0  0  0
 11 15  1  0  0  0
 22 25  1  0  0  0
M  END
> <minimizedAffinity>
-7.26538

> <CNNscore>
0.8515236974

> <CNNaffinity>
6.7731752396

> <CNN_VS>
5.7675189972

> <CNNaffinity_variance>
0.1787766665

$$$$
[H]c1nc([H])c2sc(C(=O)N([H])[H])c([H])c2c1Oc1c([H])c([H])c(N([H])C(=O)C2(C#N)C([H])([H])C2([H])[H])c([H])c1[H]


 30 33  0  0  0  0  0  0  0  0999 V2000
  -19.0272   12.0112  -19.1390 O   0  0  0  0  0  0  0  0  0  0  0  0
  -17.4969   13.6469  -22.8379 C   0  0  0  0  0  0  0  0  0  0  0  0
  -18.0661   13.2113  -21.6707 C   0  0  0  0  0  0  0  0  0  0  0  0
  -17.4980   12.1651  -21.0475 C   0  0  0  0  0  0  0  0  0  0  0  0
  -17.8983   11.5484  -19.8519 C   0  0  0  0  0  0  0  0  0  0  0  0
  -17.1801   10.4834  -19.3752 C   0  0  0  0  0  0  0  0  0  0  0  0
  -16.0870    9.9534  -19.9667 N   0  0  0  0  0  0  0  0  0  0  0  0
  -15.6871   10.5317  -21.1153 C   0  0  0  0  0  0  0  0  0  0  0  0
  -16.3900   11.6201  -21.6377 C   0  0  0  0  0  0  0  0  0  0  0  0
  -16.1785   12.5791  -23.0337 S   0  0  0  0  0  0  0  0  0  0  0  0
  -18.3234   15.9942  -23.1159 N   0  0  0  0  0  0  0  0  0  0  0  0
  -17.9329   14.7674  -23.6996 C   0  0  0  0  0  0  0  0  0  0  0  0
  -17.9571   14.6343  -24.9325 O   0  0  0  0  0  0  0  0  0  0  0  0
  -17.5970   16.6944  -22.8490 H   0  0  0  0  0  0  0  0  0  0  0  0
  -19.3166   16.2322  -22.9390 H   0  0  0  0  0  0  0  0  0  0  0  0
  -19.2624   11.6158  -17.8354 C   0  0  0  0  0  0  0  0  0  0  0  0
  -19.2091   10.3058  -17.4315 C   0  0  0  0  0  0  0  0  0  0  0  0
  -19.4521    9.9354  -16.1035 C   0  0  0  0  0  0  0  0  0  0  0  0
  -19.7563   10.8690  -15.1383 C   0  0  0  0  0  0  0  0  0  0  0  0
  -19.8085   12.2032  -15.5595 C   0  0  0  0  0  0  0  0  0  0  0  0
  -19.5669   12.5469  -16.8678 C   0  0  0  0  0  0  0  0  0  0  0  0
  -20.0118   10.5664  -13.7853 N   0  0  0  0  0  0  0  0  0  0  0  0
  -21.1401    9.9940  -13.2071 C   0  0  0  0  0  0  0  0  0  0  0  0
  -22.1607    9.6371  -13.8193 O   0  0  0  0  0  0  0  0  0  0  0  0
  -19.2231   10.8127  -13.1037 H   0  0  0  0  0  0  0  0  0  0  0  0
  -21.2034    9.7553  -11.7155 C   0  0  0  0  0  0  0  0  0  0  0  0
  -21.5248   10.9461  -10.8424 C   0  0  0  0  0  0  0  0  0  0  0  0
  -20.1535   10.3565  -10.8632 C   0  0  0  0  0  0  0  0  0  0  0  0
  -21.8326    8.4938  -11.3502 C   0  0  0  0  0  0  0  0  0  0  0  0
  -22.3293    7.4883  -11.0794 N   0  0  0  0  0  0  0  0  0  0  0  0
 11 12  1  0  0  0
 12 13  2  0  0  0
 12  2  1  0  0  0
  2  3  2  0  0  0
  3  4  1  0  0  0
  4  5  2  0  0  0
  5  1  1  0  0  0
  1 16  1  0  0  0
 16 17  2  0  0  0
 17 18  1  0  0  0
 18 19  2  0  0  0
 19 22  1  0  0  0
 22 23  1  0  0  0
 23 24  2  0  0  0
 23 26  1  0  0  0
 26 27  1  0  0  0
 27 28  1  0  0  0
 26 29  1  0  0  0
 29 30  3  0  0  0
 19 20  1  0  0  0
 20 21  2  0  0  0
  5  6  1  0  0  0
  6  7  2  0  0  0
  7  8  1  0  0  0
  8  9  2  0  0  0
  9 10  1  0  0  0
 10  2  1  0  0  0
  9  4  1  0  0  0
 21 16  1  0  0  0
 28 26  1  0  0  0
 11 14  1  0  0  0
 11 15  1  0  0  0
 22 25  1  0  0  0
M  END
> <minimizedAffinity>
-6.37450

> <CNNscore>
0.7383903861

> <CNNaffinity>
6.6095671654

> <CNN_VS>
4.8804407120

> <CNNaffinity_variance>
0.2490427792

$$$$
[H]c1nc([H])c2sc(C(=O)N([H])[H])c([H])c2c1Oc1c([H])c([H])c(N([H])C(=O)C2(C#N)C([H])([H])C2([H])[H])c([H])c1[H]


 30 33  0  0  0  0  0  0  0  0999 V2000
  -18.8235   11.9017  -20.1598 O   0  0  0  0  0  0  0  0  0  0  0  0
  -16.8454   13.7962  -23.5060 C   0  0  0  0  0  0  0  0  0  0  0  0
  -17.5584   13.2757  -22.4587 C   0  0  0  0  0  0  0  0  0  0  0  0
  -17.0424   12.2163  -21.8131 C   0  0  0  0  0  0  0  0  0  0  0  0
  -17.5847   11.5193  -20.7220 C   0  0  0  0  0  0  0  0  0  0  0  0
  -16.8983   10.4547  -20.2001 C   0  0  0  0  0  0  0  0  0  0  0  0
  -15.7096    9.9971  -20.6510 N   0  0  0  0  0  0  0  0  0  0  0  0
  -15.1728   10.6530  -21.6976 C   0  0  0  0  0  0  0  0  0  0  0  0
  -15.8385   11.7442  -22.2614 C   0  0  0  0  0  0  0  0  0  0  0  0
  -15.4684   12.7874  -23.5606 S   0  0  0  0  0  0  0  0  0  0  0  0
  -18.4068   15.6483  -24.1402 N   0  0  0  0  0  0  0  0  0  0  0  0
  -17.1995   14.9478  -24.3642 C   0  0  0  0  0  0  0  0  0  0  0  0
  -16.4411   15.3010  -25.2798 O   0  0  0  0  0  0  0  0  0  0  0  0
  -18.4462   16.3894  -23.4064 H   0  0  0  0  0  0  0  0  0  0  0  0
  -19.2687   15.4544  -24.6823 H   0  0  0  0  0  0  0  0  0  0  0  0
  -18.9387   13.0458  -19.3924 C   0  0  0  0  0  0  0  0  0  0  0  0
  -18.2688   13.2210  -18.2082 C   0  0  0  0  0  0  0  0  0  0  0  0
  -18.4055   14.3914  -17.4523 C   0  0  0  0  0  0  0  0  0  0  0  0
  -19.2195   15.4236  -17.8617 C   0  0  0  0  0  0  0  0  0  0  0  0
  -19.8992   15.2360  -19.0713 C   0  0  0  0  0  0  0  0  0  0  0  0
  -19.7520   14.0799  -19.7990 C   0  0  0  0  0  0  0  0  0  0  0  0
  -19.4032   16.6273  -17.1513 N   0  0  0  0  0  0  0  0  0  0  0  0
  -20.2899   16.9160  -16.1190 C   0  0  0  0  0  0  0  0  0  0  0  0
  -21.1077   16.1198  -15.6282 O   0  0  0  0  0  0  0  0  0  0  0  0
  -18.7683   17.4369  -17.4492 H   0  0  0  0  0  0  0  0  0  0  0  0
  -20.3192   18.2915  -15.4918 C   0  0  0  0  0  0  0  0  0  0  0  0
  -21.5248   19.1542  -15.7845 C   0  0  0  0  0  0  0  0  0  0  0  0
  -20.1918   19.4699  -16.3779 C   0  0  0  0  0  0  0  0  0  0  0  0
  -19.8139   18.3236  -14.1264 C   0  0  0  0  0  0  0  0  0  0  0  0
  -19.4319   18.3522  -13.0381 N   0  0  0  0  0  0  0  0  0  0  0  0
 11 12  1  0  0  0
 12 13  2  0  0  0
 12  2  1  0  0  0
  2  3  2  0  0  0
  3  4  1  0  0  0
  4  5  2  0  0  0
  5  1  1  0  0  0
  1 16  1  0  0  0
 16 17  2  0  0  0
 17 18  1  0  0  0
 18 19  2  0  0  0
 19 22  1  0  0  0
 22 23  1  0  0  0
 23 24  2  0  0  0
 23 26  1  0  0  0
 26 27  1  0  0  0
 27 28  1  0  0  0
 26 29  1  0  0  0
 29 30  3  0  0  0
 19 20  1  0  0  0
 20 21  2  0  0  0
  5  6  1  0  0  0
  6  7  2  0  0  0
  7  8  1  0  0  0
  8  9  2  0  0  0
  9 10  1  0  0  0
 10  2  1  0  0  0
  9  4  1  0  0  0
 21 16  1  0  0  0
 28 26  1  0  0  0
 11 14  1  0  0  0
 11 15  1  0  0  0
 22 25  1  0  0  0
M  END
> <minimizedAffinity>
-6.65195

> <CNNscore>
0.6268109679

> <CNNaffinity>
6.8161635399

> <CNN_VS>
4.2724461555

> <CNNaffinity_variance>
0.2046630085

$$$$
[H]c1nc([H])c2sc(C(=O)N([H])[H])c([H])c2c1Oc1c([H])c([H])c(N([H])C(=O)C2(C#N)C([H])([H])C2([H])[H])c([H])c1[H]


 30 33  0  0  0  0  0  0  0  0999 V2000
  -18.8558   11.8720  -20.6731 O   0  0  0  0  0  0  0  0  0  0  0  0
  -16.8939   14.2656  -23.6932 C   0  0  0  0  0  0  0  0  0  0  0  0
  -17.6076   13.5806  -22.7459 C   0  0  0  0  0  0  0  0  0  0  0  0
  -17.0326   12.5043  -22.1835 C   0  0  0  0  0  0  0  0  0  0  0  0
  -17.5633   11.6536  -21.2011 C   0  0  0  0  0  0  0  0  0  0  0  0
  -16.8124   10.5991  -20.7525 C   0  0  0  0  0  0  0  0  0  0  0  0
  -15.5685   10.2903  -21.1804 N   0  0  0  0  0  0  0  0  0  0  0  0
  -15.0419   11.0951  -22.1231 C   0  0  0  0  0  0  0  0  0  0  0  0
  -15.7725   12.1821  -22.6093 C   0  0  0  0  0  0  0  0  0  0  0  0
  -15.4335   13.3839  -23.7728 S   0  0  0  0  0  0  0  0  0  0  0  0
  -16.5324   15.9108  -25.5461 N   0  0  0  0  0  0  0  0  0  0  0  0
  -17.3058   15.4691  -24.4482 C   0  0  0  0  0  0  0  0  0  0  0  0
  -18.3272   16.0923  -24.1215 O   0  0  0  0  0  0  0  0  0  0  0  0
  -16.6685   15.4734  -26.4838 H   0  0  0  0  0  0  0  0  0  0  0  0
  -15.8245   16.6628  -25.4583 H   0  0  0  0  0  0  0  0  0  0  0  0
  -19.0920   12.8727  -19.7491 C   0  0  0  0  0  0  0  0  0  0  0  0
  -18.2523   13.1288  -18.6950 C   0  0  0  0  0  0  0  0  0  0  0  0
  -18.5179   14.1498  -17.7746 C   0  0  0  0  0  0  0  0  0  0  0  0
  -19.6356   14.9465  -17.8835 C   0  0  0  0  0  0  0  0  0  0  0  0
  -20.4868   14.6778  -18.9622 C   0  0  0  0  0  0  0  0  0  0  0  0
  -20.2088   13.6711  -19.8552 C   0  0  0  0  0  0  0  0  0  0  0  0
  -19.9637   15.9900  -16.9943 N   0  0  0  0  0  0  0  0  0  0  0  0
  -19.6800   17.3488  -17.0856 C   0  0  0  0  0  0  0  0  0  0  0  0
  -19.0590   17.8942  -18.0133 O   0  0  0  0  0  0  0  0  0  0  0  0
  -20.5106   15.6942  -16.1222 H   0  0  0  0  0  0  0  0  0  0  0  0
  -20.1326   18.3037  -16.0043 C   0  0  0  0  0  0  0  0  0  0  0  0
  -19.2721   18.3964  -14.7657 C   0  0  0  0  0  0  0  0  0  0  0  0
  -20.6112   17.7379  -14.7233 C   0  0  0  0  0  0  0  0  0  0  0  0
  -20.6703   19.5564  -16.5165 C   0  0  0  0  0  0  0  0  0  0  0  0
  -21.0889   20.5583  -16.9068 N   0  0  0  0  0  0  0  0  0  0  0  0
 11 12  1  0  0  0
 12 13  2  0  0  0
 12  2  1  0  0  0
  2  3  2  0  0  0
  3  4  1  0  0  0
  4  5  2  0  0  0
  5  1  1  0  0  0
  1 16  1  0  0  0
 16 17  2  0  0  0
 17 18  1  0  0  0
 18 19  2  0  0  0
 19 22  1  0  0  0
 22 23  1  0  0  0
 23 24  2  0  0  0
 23 26  1  0  0  0
 26 27  1  0  0  0
 27 28  1  0  0  0
 26 29  1  0  0  0
 29 30  3  0  0  0
 19 20  1  0  0  0
 20 21  2  0  0  0
  5  6  1  0  0  0
  6  7  2  0  0  0
  7  8  1  0  0  0
  8  9  2  0  0  0
  9 10  1  0  0  0
 10  2  1  0  0  0
  9  4  1  0  0  0
 21 16  1  0  0  0
 28 26  1  0  0  0
 11 14  1  0  0  0
 11 15  1  0  0  0
 22 25  1  0  0  0
M  END
> <minimizedAffinity>
-6.45191

> <CNNscore>
0.5304120779

> <CNNaffinity>
6.7013673782

> <CNN_VS>
3.5544862747

> <CNNaffinity_variance>
0.1879943907

$$$$
[H]c1nc([H])c2sc(C(=O)N([H])[H])c([H])c2c1Oc1c([H])c([H])c(N([H])C(=O)C2(C#N)C([H])([H])C2([H])[H])c([H])c1[H]


 30 33  0  0  0  0  0  0  0  0999 V2000
  -18.9608   11.9956  -19.3065 O   0  0  0  0  0  0  0  0  0  0  0  0
  -17.4317   13.6192  -23.0112 C   0  0  0  0  0  0  0  0  0  0  0  0
  -18.0034   13.1841  -21.8452 C   0  0  0  0  0  0  0  0  0  0  0  0
  -17.4073   12.1715  -21.1934 C   0  0  0  0  0  0  0  0  0  0  0  0
  -17.8040   11.5623  -19.9927 C   0  0  0  0  0  0  0  0  0  0  0  0
  -17.0547   10.5338  -19.4847 C   0  0  0  0  0  0  0  0  0  0  0  0
  -15.9331   10.0342  -20.0488 N   0  0  0  0  0  0  0  0  0  0  0  0
  -15.5361   10.6059  -21.2017 C   0  0  0  0  0  0  0  0  0  0  0  0
  -16.2703   11.6575  -21.7557 C   0  0  0  0  0  0  0  0  0  0  0  0
  -16.0716   12.5979  -23.1661 S   0  0  0  0  0  0  0  0  0  0  0  0
  -17.6262   14.6447  -25.2874 N   0  0  0  0  0  0  0  0  0  0  0  0
  -17.8947   14.7065  -23.9008 C   0  0  0  0  0  0  0  0  0  0  0  0
  -18.5176   15.6724  -23.4346 O   0  0  0  0  0  0  0  0  0  0  0  0
  -18.2508   14.0874  -25.9107 H   0  0  0  0  0  0  0  0  0  0  0  0
  -16.8227   15.1373  -25.7186 H   0  0  0  0  0  0  0  0  0  0  0  0
  -19.2036   13.3392  -19.0900 C   0  0  0  0  0  0  0  0  0  0  0  0
  -18.3313   14.1563  -18.4167 C   0  0  0  0  0  0  0  0  0  0  0  0
  -18.6045   15.5142  -18.2126 C   0  0  0  0  0  0  0  0  0  0  0  0
  -19.7627   16.0949  -18.6783 C   0  0  0  0  0  0  0  0  0  0  0  0
  -20.6470   15.2534  -19.3641 C   0  0  0  0  0  0  0  0  0  0  0  0
  -20.3609   13.9230  -19.5544 C   0  0  0  0  0  0  0  0  0  0  0  0
  -20.1007   17.4529  -18.5086 N   0  0  0  0  0  0  0  0  0  0  0  0
  -19.7710   18.5495  -19.2986 C   0  0  0  0  0  0  0  0  0  0  0  0
  -19.0894   18.5105  -20.3366 O   0  0  0  0  0  0  0  0  0  0  0  0
  -20.6979   17.6725  -17.6470 H   0  0  0  0  0  0  0  0  0  0  0  0
  -20.2453   19.9362  -18.9267 C   0  0  0  0  0  0  0  0  0  0  0  0
  -19.2170   20.8828  -18.3525 C   0  0  0  0  0  0  0  0  0  0  0  0
  -20.2907   20.3018  -17.4934 C   0  0  0  0  0  0  0  0  0  0  0  0
  -21.1935   20.5048  -19.8746 C   0  0  0  0  0  0  0  0  0  0  0  0
  -21.9500   20.9684  -20.6120 N   0  0  0  0  0  0  0  0  0  0  0  0
 11 12  1  0  0  0
 12 13  2  0  0  0
 12  2  1  0  0  0
  2  3  2  0  0  0
  3  4  1  0  0  0
  4  5  2  0  0  0
  5  1  1  0  0  0
  1 16  1  0  0  0
 16 17  2  0  0  0
 17 18  1  0  0  0
 18 19  2  0  0  0
 19 22  1  0  0  0
 22 23  1  0  0  0
 23 24  2  0  0  0
 23 26  1  0  0  0
 26 27  1  0  0  0
 27 28  1  0  0  0
 26 29  1  0  0  0
 29 30  3  0  0  0
 19 20  1  0  0  0
 20 21  2  0  0  0
  5  6  1  0  0  0
  6  7  2  0  0  0
  7  8  1  0  0  0
  8  9  2  0  0  0
  9 10  1  0  0  0
 10  2  1  0  0  0
  9  4  1  0  0  0
 21 16  1  0  0  0
 28 26  1  0  0  0
 11 14  1  0  0  0
 11 15  1  0  0  0
 22 25  1  0  0  0
M  END
> <minimizedAffinity>
-6.31135

> <CNNscore>
0.4558198452

> <CNNaffinity>
6.6562323570

> <CNN_VS>
3.0340428352

> <CNNaffinity_variance>
0.2065014839

$$$$
[H]c1nc([H])c2sc(C(=O)N([H])[H])c([H])c2c1Oc1c([H])c([H])c(N([H])C(=O)C2(C#N)C([H])([H])C2([H])[H])c([H])c1[H]


 30 33  0  0  0  0  0  0  0  0999 V2000
  -19.4488   12.9687  -19.7559 O   0  0  0  0  0  0  0  0  0  0  0  0
  -16.6689   12.7178  -23.0587 C   0  0  0  0  0  0  0  0  0  0  0  0
  -17.6049   12.8827  -22.0724 C   0  0  0  0  0  0  0  0  0  0  0  0
  -17.5108   12.1042  -20.9813 C   0  0  0  0  0  0  0  0  0  0  0  0
  -18.3451   12.0915  -19.8526 C   0  0  0  0  0  0  0  0  0  0  0  0
  -18.0800   11.2140  -18.8344 C   0  0  0  0  0  0  0  0  0  0  0  0
  -17.0578   10.3307  -18.8132 N   0  0  0  0  0  0  0  0  0  0  0  0
  -16.2458   10.3277  -19.8876 C   0  0  0  0  0  0  0  0  0  0  0  0
  -16.4790   11.2056  -20.9491 C   0  0  0  0  0  0  0  0  0  0  0  0
  -15.6792   11.4748  -22.4326 S   0  0  0  0  0  0  0  0  0  0  0  0
  -15.2882   13.7041  -24.9003 N   0  0  0  0  0  0  0  0  0  0  0  0
  -16.5609   13.4469  -24.3412 C   0  0  0  0  0  0  0  0  0  0  0  0
  -17.5830   13.8335  -24.9279 O   0  0  0  0  0  0  0  0  0  0  0  0
  -14.8128   12.9664  -25.4650 H   0  0  0  0  0  0  0  0  0  0  0  0
  -14.7991   14.6088  -24.7715 H   0  0  0  0  0  0  0  0  0  0  0  0
  -19.5394   13.8955  -18.7342 C   0  0  0  0  0  0  0  0  0  0  0  0
  -18.6565   14.9354  -18.5892 C   0  0  0  0  0  0  0  0  0  0  0  0
  -18.7736   15.8590  -17.5435 C   0  0  0  0  0  0  0  0  0  0  0  0
  -19.7815   15.7678  -16.6100 C   0  0  0  0  0  0  0  0  0  0  0  0
  -20.6777   14.7034  -16.7659 C   0  0  0  0  0  0  0  0  0  0  0  0
  -20.5461   13.8071  -17.7990 C   0  0  0  0  0  0  0  0  0  0  0  0
  -19.9583   16.6612  -15.5340 N   0  0  0  0  0  0  0  0  0  0  0  0
  -20.9851   17.5707  -15.3021 C   0  0  0  0  0  0  0  0  0  0  0  0
  -21.9653   17.7547  -16.0430 O   0  0  0  0  0  0  0  0  0  0  0  0
  -19.1914   16.6364  -14.7868 H   0  0  0  0  0  0  0  0  0  0  0  0
  -20.9762   18.4427  -14.0669 C   0  0  0  0  0  0  0  0  0  0  0  0
  -20.1835   19.7272  -14.1387 C   0  0  0  0  0  0  0  0  0  0  0  0
  -19.7106   18.5777  -13.3119 C   0  0  0  0  0  0  0  0  0  0  0  0
  -22.2632   18.5111  -13.3889 C   0  0  0  0  0  0  0  0  0  0  0  0
  -23.2783   18.5832  -12.8452 N   0  0  0  0  0  0  0  0  0  0  0  0
 11 12  1  0  0  0
 12 13  2  0  0  0
 12  2  1  0  0  0
  2  3  2  0  0  0
  3  4  1  0  0  0
  4  5  2  0  0  0
  5  1  1  0  0  0
  1 16  1  0  0  0
 16 17  2  0  0  0
 17 18  1  0  0  0
 18 19  2  0  0  0
 19 22  1  0  0  0
 22 23  1  0  0  0
 23 24  2  0  0  0
 23 26  1  0  0  0
 26 27  1  0  0  0
 27 28  1  0  0  0
 26 29  1  0  0  0
 29 30  3  0  0  0
 19 20  1  0  0  0
 20 21  2  0  0  0
  5  6  1  0  0  0
  6  7  2  0  0  0
  7  8  1  0  0  0
  8  9  2  0  0  0
  9 10  1  0  0  0
 10  2  1  0  0  0
  9  4  1  0  0  0
 21 16  1  0  0  0
 28 26  1  0  0  0
 11 14  1  0  0  0
 11 15  1  0  0  0
 22 25  1  0  0  0
M  END
> <minimizedAffinity>
-6.52801

> <CNNscore>
0.4321447611

> <CNNaffinity>
6.4370641708

> <CNN_VS>
2.7817435265

> <CNNaffinity_variance>
0.0735987797

$$$$
[H]c1nc([H])c2sc(C(=O)N([H])[H])c([H])c2c1Oc1c([H])c([H])c(N([H])C(=O)C2(C#N)C([H])([H])C2([H])[H])c([H])c1[H]


 30 33  0  0  0  0  0  0  0  0999 V2000
  -18.1073   10.6472  -17.7308 O   0  0  0  0  0  0  0  0  0  0  0  0
  -20.5020    7.7881  -15.5420 C   0  0  0  0  0  0  0  0  0  0  0  0
  -19.6708    8.6045  -16.2622 C   0  0  0  0  0  0  0  0  0  0  0  0
  -19.9907    9.9067  -16.3491 C   0  0  0  0  0  0  0  0  0  0  0  0
  -19.2993   10.9246  -17.0244 C   0  0  0  0  0  0  0  0  0  0  0  0
  -19.7926   12.2025  -16.9940 C   0  0  0  0  0  0  0  0  0  0  0  0
  -20.9186   12.5882  -16.3545 N   0  0  0  0  0  0  0  0  0  0  0  0
  -21.5962   11.6255  -15.7005 C   0  0  0  0  0  0  0  0  0  0  0  0
  -21.1295   10.3087  -15.7051 C   0  0  0  0  0  0  0  0  0  0  0  0
  -21.7125    8.8659  -15.0039 S   0  0  0  0  0  0  0  0  0  0  0  0
  -19.3628    5.8558  -14.4290 N   0  0  0  0  0  0  0  0  0  0  0  0
  -20.3658    6.3348  -15.3026 C   0  0  0  0  0  0  0  0  0  0  0  0
  -21.1283    5.5348  -15.8657 O   0  0  0  0  0  0  0  0  0  0  0  0
  -19.5353    5.8456  -13.3998 H   0  0  0  0  0  0  0  0  0  0  0  0
  -18.4487    5.5084  -14.7725 H   0  0  0  0  0  0  0  0  0  0  0  0
  -17.9000   11.1387  -19.0062 C   0  0  0  0  0  0  0  0  0  0  0  0
  -18.6496   12.1527  -19.5464 C   0  0  0  0  0  0  0  0  0  0  0  0
  -18.4161   12.6299  -20.8417 C   0  0  0  0  0  0  0  0  0  0  0  0
  -17.4221   12.1039  -21.6360 C   0  0  0  0  0  0  0  0  0  0  0  0
  -16.6623   11.0695  -21.0765 C   0  0  0  0  0  0  0  0  0  0  0  0
  -16.9068   10.6148  -19.8031 C   0  0  0  0  0  0  0  0  0  0  0  0
  -17.1330   12.5357  -22.9464 N   0  0  0  0  0  0  0  0  0  0  0  0
  -16.7608   13.7980  -23.3974 C   0  0  0  0  0  0  0  0  0  0  0  0
  -16.6147   14.8040  -22.6830 O   0  0  0  0  0  0  0  0  0  0  0  0
  -17.2109   11.7833  -23.7047 H   0  0  0  0  0  0  0  0  0  0  0  0
  -16.4952   14.0432  -24.8655 C   0  0  0  0  0  0  0  0  0  0  0  0
  -15.1200   14.5450  -25.2402 C   0  0  0  0  0  0  0  0  0  0  0  0
  -16.3128   15.4389  -25.3224 C   0  0  0  0  0  0  0  0  0  0  0  0
  -17.0811   13.0391  -25.7425 C   0  0  0  0  0  0  0  0  0  0  0  0
  -17.5480   12.2318  -26.4218 N   0  0  0  0  0  0  0  0  0  0  0  0
 11 12  1  0  0  0
 12 13  2  0  0  0
 12  2  1  0  0  0
  2  3  2  0  0  0
  3  4  1  0  0  0
  4  5  2  0  0  0
  5  1  1  0  0  0
  1 16  1  0  0  0
 16 17  2  0  0  0
 17 18  1  0  0  0
 18 19  2  0  0  0
 19 22  1  0  0  0
 22 23  1  0  0  0
 23 24  2  0  0  0
 23 26  1  0  0  0
 26 27  1  0  0  0
 27 28  1  0  0  0
 26 29  1  0  0  0
 29 30  3  0  0  0
 19 20  1  0  0  0
 20 21  2  0  0  0
  5  6  1  0  0  0
  6  7  2  0  0  0
  7  8  1  0  0  0
  8  9  2  0  0  0
  9 10  1  0  0  0
 10  2  1  0  0  0
  9  4  1  0  0  0
 21 16  1  0  0  0
 28 26  1  0  0  0
 11 14  1  0  0  0
 11 15  1  0  0  0
 22 25  1  0  0  0
M  END
> <minimizedAffinity>
-8.15417

> <CNNscore>
0.3643840849

> <CNNaffinity>
6.4169731140

> <CNN_VS>
2.3382427692

> <CNNaffinity_variance>
0.1138969213

$$$$
[H]c1nc([H])c2sc(C(=O)N([H])[H])c([H])c2c1Oc1c([H])c([H])c(N([H])C(=O)C2(C#N)C([H])([H])C2([H])[H])c([H])c1[H]


 30 33  0  0  0  0  0  0  0  0999 V2000
  -19.7369   14.4589  -20.8333 O   0  0  0  0  0  0  0  0  0  0  0  0
  -16.5716   11.5687  -21.4049 C   0  0  0  0  0  0  0  0  0  0  0  0
  -17.6156   12.4143  -21.1381 C   0  0  0  0  0  0  0  0  0  0  0  0
  -17.7163   13.5373  -21.8689 C   0  0  0  0  0  0  0  0  0  0  0  0
  -18.6901   14.5442  -21.7787 C   0  0  0  0  0  0  0  0  0  0  0  0
  -18.6185   15.6218  -22.6218 C   0  0  0  0  0  0  0  0  0  0  0  0
  -17.6680   15.8131  -23.5629 N   0  0  0  0  0  0  0  0  0  0  0  0
  -16.7246   14.8575  -23.6650 C   0  0  0  0  0  0  0  0  0  0  0  0
  -16.7588   13.7415  -22.8253 C   0  0  0  0  0  0  0  0  0  0  0  0
  -15.7560   12.3687  -22.6743 S   0  0  0  0  0  0  0  0  0  0  0  0
  -16.9244    9.9137  -19.5592 N   0  0  0  0  0  0  0  0  0  0  0  0
  -16.2492   10.2850  -20.7444 C   0  0  0  0  0  0  0  0  0  0  0  0
  -15.3885    9.5333  -21.2266 O   0  0  0  0  0  0  0  0  0  0  0  0
  -17.8633    9.4621  -19.6187 H   0  0  0  0  0  0  0  0  0  0  0  0
  -16.5202   10.0732  -18.6182 H   0  0  0  0  0  0  0  0  0  0  0  0
  -19.8430   15.3693  -19.7984 C   0  0  0  0  0  0  0  0  0  0  0  0
  -18.8855   15.5087  -18.8258 C   0  0  0  0  0  0  0  0  0  0  0  0
  -19.0206   16.4400  -17.7893 C   0  0  0  0  0  0  0  0  0  0  0  0
  -20.1217   17.2613  -17.6963 C   0  0  0  0  0  0  0  0  0  0  0  0
  -21.0936   17.1120  -18.6931 C   0  0  0  0  0  0  0  0  0  0  0  0
  -20.9429   16.1920  -19.7025 C   0  0  0  0  0  0  0  0  0  0  0  0
  -20.3217   18.2191  -16.6815 N   0  0  0  0  0  0  0  0  0  0  0  0
  -20.7727   18.0418  -15.3775 C   0  0  0  0  0  0  0  0  0  0  0  0
  -21.0899   16.9545  -14.8667 O   0  0  0  0  0  0  0  0  0  0  0  0
  -20.0933   19.2296  -16.9534 H   0  0  0  0  0  0  0  0  0  0  0  0
  -20.9148   19.2234  -14.4450 C   0  0  0  0  0  0  0  0  0  0  0  0
  -21.9989   20.2258  -14.7668 C   0  0  0  0  0  0  0  0  0  0  0  0
  -20.5575   20.5663  -14.9540 C   0  0  0  0  0  0  0  0  0  0  0  0
  -20.7401   18.8848  -13.0395 C   0  0  0  0  0  0  0  0  0  0  0  0
  -20.5956   18.6349  -11.9224 N   0  0  0  0  0  0  0  0  0  0  0  0
 11 12  1  0  0  0
 12 13  2  0  0  0
 12  2  1  0  0  0
  2  3  2  0  0  0
  3  4  1  0  0  0
  4  5  2  0  0  0
  5  1  1  0  0  0
  1 16  1  0  0  0
 16 17  2  0  0  0
 17 18  1  0  0  0
 18 19  2  0  0  0
 19 22  1  0  0  0
 22 23  1  0  0  0
 23 24  2  0  0  0
 23 26  1  0  0  0
 26 27  1  0  0  0
 27 28  1  0  0  0
 26 29  1  0  0  0
 29 30  3  0  0  0
 19 20  1  0  0  0
 20 21  2  0  0  0
  5  6  1  0  0  0
  6  7  2  0  0  0
  7  8  1  0  0  0
  8  9  2  0  0  0
  9 10  1  0  0  0
 10  2  1  0  0  0
  9  4  1  0  0  0
 21 16  1  0  0  0
 28 26  1  0  0  0
 11 14  1  0  0  0
 11 15  1  0  0  0
 22 25  1  0  0  0
M  END
> <minimizedAffinity>
-5.92526

> <CNNscore>
0.3454864323

> <CNNaffinity>
6.3828396797

> <CNN_VS>
2.2051844597

> <CNNaffinity_variance>
0.3233361244

$$$$
[H]c1nc([H])c2sc(C(=O)N([H])[H])c([H])c2c1Oc1c([H])c([H])c(N([H])C(=O)C2(C#N)C([H])([H])C2([H])[H])c([H])c1[H]


 30 33  0  0  0  0  0  0  0  0999 V2000
  -18.3414   15.5116  -19.4222 O   0  0  0  0  0  0  0  0  0  0  0  0
  -16.8009   11.8351  -21.0984 C   0  0  0  0  0  0  0  0  0  0  0  0
  -17.2709   12.9525  -20.4607 C   0  0  0  0  0  0  0  0  0  0  0  0
  -17.6839   13.9814  -21.2197 C   0  0  0  0  0  0  0  0  0  0  0  0
  -18.1994   15.2166  -20.7968 C   0  0  0  0  0  0  0  0  0  0  0  0
  -18.5680   16.1444  -21.7352 C   0  0  0  0  0  0  0  0  0  0  0  0
  -18.4793   15.9773  -23.0731 N   0  0  0  0  0  0  0  0  0  0  0  0
  -17.9870   14.7982  -23.4986 C   0  0  0  0  0  0  0  0  0  0  0  0
  -17.5986   13.8232  -22.5765 C   0  0  0  0  0  0  0  0  0  0  0  0
  -16.9492   12.2541  -22.7474 S   0  0  0  0  0  0  0  0  0  0  0  0
  -16.5495   10.3129  -19.1260 N   0  0  0  0  0  0  0  0  0  0  0  0
  -16.2947   10.5856  -20.4896 C   0  0  0  0  0  0  0  0  0  0  0  0
  -15.6475    9.7763  -21.1710 O   0  0  0  0  0  0  0  0  0  0  0  0
  -17.4614    9.8904  -18.8447 H   0  0  0  0  0  0  0  0  0  0  0  0
  -15.8581   10.5179  -18.3815 H   0  0  0  0  0  0  0  0  0  0  0  0
  -19.0612   14.6822  -18.5826 C   0  0  0  0  0  0  0  0  0  0  0  0
  -18.5192   14.0982  -17.4658 C   0  0  0  0  0  0  0  0  0  0  0  0
  -19.2735   13.2621  -16.6338 C   0  0  0  0  0  0  0  0  0  0  0  0
  -20.5964   12.9859  -16.8969 C   0  0  0  0  0  0  0  0  0  0  0  0
  -21.1410   13.5862  -18.0385 C   0  0  0  0  0  0  0  0  0  0  0  0
  -20.3844   14.4039  -18.8428 C   0  0  0  0  0  0  0  0  0  0  0  0
  -21.4130   12.1548  -16.1033 N   0  0  0  0  0  0  0  0  0  0  0  0
  -21.3245   10.7846  -15.8799 C   0  0  0  0  0  0  0  0  0  0  0  0
  -20.4674   10.0291  -16.3682 O   0  0  0  0  0  0  0  0  0  0  0  0
  -22.2181   12.6497  -15.5991 H   0  0  0  0  0  0  0  0  0  0  0  0
  -22.3185   10.0858  -14.9801 C   0  0  0  0  0  0  0  0  0  0  0  0
  -23.6289    9.6628  -15.6022 C   0  0  0  0  0  0  0  0  0  0  0  0
  -23.5695   10.7953  -14.6314 C   0  0  0  0  0  0  0  0  0  0  0  0
  -21.7074    9.1456  -14.0509 C   0  0  0  0  0  0  0  0  0  0  0  0
  -21.2222    8.4149  -13.3014 N   0  0  0  0  0  0  0  0  0  0  0  0
 11 12  1  0  0  0
 12 13  2  0  0  0
 12  2  1  0  0  0
  2  3  2  0  0  0
  3  4  1  0  0  0
  4  5  2  0  0  0
  5  1  1  0  0  0
  1 16  1  0  0  0
 16 17  2  0  0  0
 17 18  1  0  0  0
 18 19  2  0  0  0
 19 22  1  0  0  0
 22 23  1  0  0  0
 23 24  2  0  0  0
 23 26  1  0  0  0
 26 27  1  0  0  0
 27 28  1  0  0  0
 26 29  1  0  0  0
 29 30  3  0  0  0
 19 20  1  0  0  0
 20 21  2  0  0  0
  5  6  1  0  0  0
  6  7  2  0  0  0
  7  8  1  0  0  0
  8  9  2  0  0  0
  9 10  1  0  0  0
 10  2  1  0  0  0
  9  4  1  0  0  0
 21 16  1  0  0  0
 28 26  1  0  0  0
 11 14  1  0  0  0
 11 15  1  0  0  0
 22 25  1  0  0  0
M  END
> <minimizedAffinity>
-6.67068

> <CNNscore>
0.3443045020

> <CNNaffinity>
6.2585744858

> <CNN_VS>
2.1548554897

> <CNNaffinity_variance>
0.0639785081

$$$$
[H]c1c([H])c(Oc2c([H])c([H])c(C(=O)N([H])c3c([H])c([H])n([H])c(=O)c3[H])c([H])c2C#N)c(OC([H])([H])[H])c([H])c1F


 30 32  0  0  0  0  0  0  0  0999 V2000
  -18.0348   12.5524  -19.2994 C   0  0  0  0  0  0  0  0  0  0  0  0
  -18.5717   13.7974  -19.5491 C   0  0  0  0  0  0  0  0  0  0  0  0
  -18.4322   14.4271  -20.7995 C   0  0  0  0  0  0  0  0  0  0  0  0
  -17.7516   13.7941  -21.7865 C   0  0  0  0  0  0  0  0  0  0  0  0
  -17.2192   12.5518  -21.5259 C   0  0  0  0  0  0  0  0  0  0  0  0
  -17.3457   11.9102  -20.2932 C   0  0  0  0  0  0  0  0  0  0  0  0
  -17.5547   14.3928  -23.1321 C   0  0  0  0  0  0  0  0  0  0  0  0
  -18.2556   15.3892  -23.4390 O   0  0  0  0  0  0  0  0  0  0  0  0
  -16.6191   13.8531  -24.0123 N   0  0  0  0  0  0  0  0  0  0  0  0
  -16.0528   12.9977  -23.7078 H   0  0  0  0  0  0  0  0  0  0  0  0
  -16.3251   14.3266  -25.3117 C   0  0  0  0  0  0  0  0  0  0  0  0
  -16.9414   13.9568  -26.4709 C   0  0  0  0  0  0  0  0  0  0  0  0
  -16.5915   14.4414  -27.7263 C   0  0  0  0  0  0  0  0  0  0  0  0
  -15.5997   15.3223  -27.8452 N   0  0  0  0  0  0  0  0  0  0  0  0
  -14.9783   15.7028  -26.7237 C   0  0  0  0  0  0  0  0  0  0  0  0
  -14.0299   16.5486  -26.8580 O   0  0  0  0  0  0  0  0  0  0  0  0
  -15.2804   15.2602  -25.4736 C   0  0  0  0  0  0  0  0  0  0  0  0
  -15.3444   15.6790  -28.7843 H   0  0  0  0  0  0  0  0  0  0  0  0
  -16.7199   10.6137  -20.0891 C   0  0  0  0  0  0  0  0  0  0  0  0
  -16.2139    9.5897  -19.9057 N   0  0  0  0  0  0  0  0  0  0  0  0
  -18.2026   12.0052  -18.0785 O   0  0  0  0  0  0  0  0  0  0  0  0
  -19.6613   10.5330  -16.9348 C   0  0  0  0  0  0  0  0  0  0  0  0
  -20.7836   10.3250  -16.1801 C   0  0  0  0  0  0  0  0  0  0  0  0
  -21.5982   11.3650  -15.7907 C   0  0  0  0  0  0  0  0  0  0  0  0
  -22.7136   11.1242  -15.0364 F   0  0  0  0  0  0  0  0  0  0  0  0
  -21.2992   12.6554  -16.1558 C   0  0  0  0  0  0  0  0  0  0  0  0
  -20.1590   12.8371  -16.9183 C   0  0  0  0  0  0  0  0  0  0  0  0
  -19.3280   11.8151  -17.3213 C   0  0  0  0  0  0  0  0  0  0  0  0
  -18.5527    8.4461  -16.3480 C   0  0  0  0  0  0  0  0  0  0  0  0
  -18.8856    9.4337  -17.2910 O   0  0  0  0  0  0  0  0  0  0  0  0
 29 30  1  0  0  0
 30 22  1  0  0  0
 22 23  2  0  0  0
 23 24  1  0  0  0
 24 25  1  0  0  0
 24 26  2  0  0  0
 26 27  1  0  0  0
 27 28  2  0  0  0
 28 21  1  0  0  0
 21  1  1  0  0  0
  1  2  2  0  0  0
  2  3  1  0  0  0
  3  4  2  0  0  0
  4  5  1  0  0  0
  5  6  2  0  0  0
  6 19  1  0  0  0
 19 20  3  0  0  0
  4  7  1  0  0  0
  7  8  2  0  0  0
  7  9  1  0  0  0
  9 11  1  0  0  0
 11 12  1  0  0  0
 12 13  2  0  0  0
 13 14  1  0  0  0
 14 15  1  0  0  0
 15 16  2  0  0  0
 15 17  1  0  0  0
 28 22  1  0  0  0
  6  1  1  0  0  0
 17 11  2  0  0  0
  9 10  1  0  0  0
 14 18  1  0  0  0
M  END
> <minimizedAffinity>
-8.03824

> <CNNscore>
0.7165534496

> <CNNaffinity>
6.6735930443

> <CNN_VS>
4.7819862366

> <CNNaffinity_variance>
0.1645829976

$$$$
[H]c1c([H])c(Oc2c([H])c([H])c(C(=O)N([H])c3c([H])c([H])n([H])c(=O)c3[H])c([H])c2C#N)c(OC([H])([H])[H])c([H])c1F


 30 32  0  0  0  0  0  0  0  0999 V2000
  -17.7807   12.3882  -19.3558 C   0  0  0  0  0  0  0  0  0  0  0  0
  -18.8103   12.9555  -18.6357 C   0  0  0  0  0  0  0  0  0  0  0  0
  -19.5571   12.2146  -17.7013 C   0  0  0  0  0  0  0  0  0  0  0  0
  -19.2575   10.9074  -17.5027 C   0  0  0  0  0  0  0  0  0  0  0  0
  -18.2280   10.3511  -18.2275 C   0  0  0  0  0  0  0  0  0  0  0  0
  -17.4757   11.0678  -19.1589 C   0  0  0  0  0  0  0  0  0  0  0  0
  -20.0011   10.0548  -16.5393 C   0  0  0  0  0  0  0  0  0  0  0  0
  -21.0906   10.4902  -16.0903 O   0  0  0  0  0  0  0  0  0  0  0  0
  -19.4912    8.8157  -16.1571 N   0  0  0  0  0  0  0  0  0  0  0  0
  -18.5540    8.4930  -16.5605 H   0  0  0  0  0  0  0  0  0  0  0  0
  -20.0961    7.9044  -15.2611 C   0  0  0  0  0  0  0  0  0  0  0  0
  -19.7704    7.7151  -13.9503 C   0  0  0  0  0  0  0  0  0  0  0  0
  -20.3877    6.7839  -13.1225 C   0  0  0  0  0  0  0  0  0  0  0  0
  -21.3610    6.0116  -13.6018 N   0  0  0  0  0  0  0  0  0  0  0  0
  -21.7010    6.1769  -14.8847 C   0  0  0  0  0  0  0  0  0  0  0  0
  -22.6370    5.4273  -15.3261 O   0  0  0  0  0  0  0  0  0  0  0  0
  -21.1302    7.0711  -15.7359 C   0  0  0  0  0  0  0  0  0  0  0  0
  -21.8165    5.3197  -12.9788 H   0  0  0  0  0  0  0  0  0  0  0  0
  -16.4292   10.3939  -19.9105 C   0  0  0  0  0  0  0  0  0  0  0  0
  -15.5966    9.8758  -20.5241 N   0  0  0  0  0  0  0  0  0  0  0  0
  -17.1056   13.1530  -20.2375 O   0  0  0  0  0  0  0  0  0  0  0  0
  -17.9872   14.6419  -21.8527 C   0  0  0  0  0  0  0  0  0  0  0  0
  -18.2474   14.9557  -23.1590 C   0  0  0  0  0  0  0  0  0  0  0  0
  -17.8958   14.1135  -24.1905 C   0  0  0  0  0  0  0  0  0  0  0  0
  -18.1701   14.4558  -25.4862 F   0  0  0  0  0  0  0  0  0  0  0  0
  -17.2661   12.9207  -23.9292 C   0  0  0  0  0  0  0  0  0  0  0  0
  -17.0149   12.6287  -22.6002 C   0  0  0  0  0  0  0  0  0  0  0  0
  -17.3563   13.4525  -21.5503 C   0  0  0  0  0  0  0  0  0  0  0  0
  -18.7813   16.8459  -21.1892 C   0  0  0  0  0  0  0  0  0  0  0  0
  -18.3713   15.5417  -20.8629 O   0  0  0  0  0  0  0  0  0  0  0  0
 29 30  1  0  0  0
 30 22  1  0  0  0
 22 23  2  0  0  0
 23 24  1  0  0  0
 24 25  1  0  0  0
 24 26  2  0  0  0
 26 27  1  0  0  0
 27 28  2  0  0  0
 28 21  1  0  0  0
 21  1  1  0  0  0
  1  2  2  0  0  0
  2  3  1  0  0  0
  3  4  2  0  0  0
  4  5  1  0  0  0
  5  6  2  0  0  0
  6 19  1  0  0  0
 19 20  3  0  0  0
  4  7  1  0  0  0
  7  8  2  0  0  0
  7  9  1  0  0  0
  9 11  1  0  0  0
 11 12  1  0  0  0
 12 13  2  0  0  0
 13 14  1  0  0  0
 14 15  1  0  0  0
 15 16  2  0  0  0
 15 17  1  0  0  0
 28 22  1  0  0  0
  6  1  1  0  0  0
 17 11  2  0  0  0
  9 10  1  0  0  0
 14 18  1  0  0  0
M  END
> <minimizedAffinity>
-7.98844

> <CNNscore>
0.6029015779

> <CNNaffinity>
6.4204559326

> <CNN_VS>
3.8709030151

> <CNNaffinity_variance>
0.3979642987

$$$$
[H]c1c([H])c(Oc2c([H])c([H])c(C(=O)N([H])c3c([H])c([H])n([H])c(=O)c3[H])c([H])c2C#N)c(OC([H])([H])[H])c([H])c1F


 30 32  0  0  0  0  0  0  0  0999 V2000
  -17.5674   12.2680  -19.5480 C   0  0  0  0  0  0  0  0  0  0  0  0
  -18.6088   12.6913  -18.7498 C   0  0  0  0  0  0  0  0  0  0  0  0
  -19.2465   11.8251  -17.8428 C   0  0  0  0  0  0  0  0  0  0  0  0
  -18.8271   10.5392  -17.7502 C   0  0  0  0  0  0  0  0  0  0  0  0
  -17.7871   10.1272  -18.5522 C   0  0  0  0  0  0  0  0  0  0  0  0
  -17.1416   10.9696  -19.4582 C   0  0  0  0  0  0  0  0  0  0  0  0
  -19.4509    9.5604  -16.8224 C   0  0  0  0  0  0  0  0  0  0  0  0
  -19.0855    8.3612  -16.9025 O   0  0  0  0  0  0  0  0  0  0  0  0
  -20.4088    9.9768  -15.9002 N   0  0  0  0  0  0  0  0  0  0  0  0
  -20.6936   11.0081  -15.8772 H   0  0  0  0  0  0  0  0  0  0  0  0
  -21.0721    9.1576  -14.9578 C   0  0  0  0  0  0  0  0  0  0  0  0
  -22.2448    8.4870  -15.1459 C   0  0  0  0  0  0  0  0  0  0  0  0
  -22.8627    7.7128  -14.1700 C   0  0  0  0  0  0  0  0  0  0  0  0
  -22.3061    7.5936  -12.9660 N   0  0  0  0  0  0  0  0  0  0  0  0
  -21.1548    8.2406  -12.7547 C   0  0  0  0  0  0  0  0  0  0  0  0
  -20.6360    8.1138  -11.5938 O   0  0  0  0  0  0  0  0  0  0  0  0
  -20.5100    9.0095  -13.6727 C   0  0  0  0  0  0  0  0  0  0  0  0
  -22.7725    7.0148  -12.2437 H   0  0  0  0  0  0  0  0  0  0  0  0
  -16.0758   10.4441  -20.2960 C   0  0  0  0  0  0  0  0  0  0  0  0
  -15.2441   10.0181  -20.9780 N   0  0  0  0  0  0  0  0  0  0  0  0
  -17.0007   13.1480  -20.3979 O   0  0  0  0  0  0  0  0  0  0  0  0
  -17.9547   14.6353  -21.9730 C   0  0  0  0  0  0  0  0  0  0  0  0
  -18.2520   14.9594  -23.2688 C   0  0  0  0  0  0  0  0  0  0  0  0
  -17.9032   14.1396  -24.3191 C   0  0  0  0  0  0  0  0  0  0  0  0
  -18.2149   14.4917  -25.6037 F   0  0  0  0  0  0  0  0  0  0  0  0
  -17.2386   12.9596  -24.0880 C   0  0  0  0  0  0  0  0  0  0  0  0
  -16.9505   12.6567  -22.7690 C   0  0  0  0  0  0  0  0  0  0  0  0
  -17.2882   13.4582  -21.7007 C   0  0  0  0  0  0  0  0  0  0  0  0
  -17.5622   16.6418  -20.6507 C   0  0  0  0  0  0  0  0  0  0  0  0
  -18.3385   15.5124  -20.9628 O   0  0  0  0  0  0  0  0  0  0  0  0
 29 30  1  0  0  0
 30 22  1  0  0  0
 22 23  2  0  0  0
 23 24  1  0  0  0
 24 25  1  0  0  0
 24 26  2  0  0  0
 26 27  1  0  0  0
 27 28  2  0  0  0
 28 21  1  0  0  0
 21  1  1  0  0  0
  1  2  2  0  0  0
  2  3  1  0  0  0
  3  4  2  0  0  0
  4  5  1  0  0  0
  5  6  2  0  0  0
  6 19  1  0  0  0
 19 20  3  0  0  0
  4  7  1  0  0  0
  7  8  2  0  0  0
  7  9  1  0  0  0
  9 11  1  0  0  0
 11 12  1  0  0  0
 12 13  2  0  0  0
 13 14  1  0  0  0
 14 15  1  0  0  0
 15 16  2  0  0  0
 15 17  1  0  0  0
 28 22  1  0  0  0
  6  1  1  0  0  0
 17 11  2  0  0  0
  9 10  1  0  0  0
 14 18  1  0  0  0
M  END
> <minimizedAffinity>
-7.90421

> <CNNscore>
0.5623185635

> <CNNaffinity>
6.2874007225

> <CNN_VS>
3.5355222225

> <CNNaffinity_variance>
0.3814106584

$$$$
[H]c1c([H])c(Oc2c([H])c([H])c(C(=O)N([H])c3c([H])c([H])n([H])c(=O)c3[H])c([H])c2C#N)c(OC([H])([H])[H])c([H])c1F


 30 32  0  0  0  0  0  0  0  0999 V2000
  -17.7456   12.3507  -21.2474 C   0  0  0  0  0  0  0  0  0  0  0  0
  -18.8292   13.0779  -20.8031 C   0  0  0  0  0  0  0  0  0  0  0  0
  -19.3835   12.8761  -19.5257 C   0  0  0  0  0  0  0  0  0  0  0  0
  -18.8385   11.9415  -18.7086 C   0  0  0  0  0  0  0  0  0  0  0  0
  -17.7572   11.2209  -19.1627 C   0  0  0  0  0  0  0  0  0  0  0  0
  -17.1930   11.4050  -20.4256 C   0  0  0  0  0  0  0  0  0  0  0  0
  -19.3677   11.6635  -17.3482 C   0  0  0  0  0  0  0  0  0  0  0  0
  -19.4722   12.6287  -16.5510 O   0  0  0  0  0  0  0  0  0  0  0  0
  -19.7307   10.3680  -16.9856 N   0  0  0  0  0  0  0  0  0  0  0  0
  -19.6142    9.5776  -17.6976 H   0  0  0  0  0  0  0  0  0  0  0  0
  -20.2537    9.9667  -15.7349 C   0  0  0  0  0  0  0  0  0  0  0  0
  -21.5500   10.0716  -15.3238 C   0  0  0  0  0  0  0  0  0  0  0  0
  -22.0016    9.6797  -14.0685 C   0  0  0  0  0  0  0  0  0  0  0  0
  -21.1469    9.1654  -13.1861 N   0  0  0  0  0  0  0  0  0  0  0  0
  -19.8690    9.0506  -13.5636 C   0  0  0  0  0  0  0  0  0  0  0  0
  -19.0644    8.5547  -12.7037 O   0  0  0  0  0  0  0  0  0  0  0  0
  -19.3760    9.4181  -14.7768 C   0  0  0  0  0  0  0  0  0  0  0  0
  -21.4909    8.8755  -12.2523 H   0  0  0  0  0  0  0  0  0  0  0  0
  -16.0745   10.5746  -20.8421 C   0  0  0  0  0  0  0  0  0  0  0  0
  -15.1725    9.9337  -21.1794 N   0  0  0  0  0  0  0  0  0  0  0  0
  -17.2638   12.5917  -22.4835 O   0  0  0  0  0  0  0  0  0  0  0  0
  -16.3945   13.7115  -24.3791 C   0  0  0  0  0  0  0  0  0  0  0  0
  -15.8723   14.8377  -24.9548 C   0  0  0  0  0  0  0  0  0  0  0  0
  -15.6837   15.9979  -24.2369 C   0  0  0  0  0  0  0  0  0  0  0  0
  -15.1590   17.1071  -24.8415 F   0  0  0  0  0  0  0  0  0  0  0  0
  -16.0205   16.0535  -22.9061 C   0  0  0  0  0  0  0  0  0  0  0  0
  -16.5465   14.9010  -22.3496 C   0  0  0  0  0  0  0  0  0  0  0  0
  -16.7448   13.7283  -23.0445 C   0  0  0  0  0  0  0  0  0  0  0  0
  -17.6419   12.4567  -26.0519 C   0  0  0  0  0  0  0  0  0  0  0  0
  -16.5567   12.5755  -25.1665 O   0  0  0  0  0  0  0  0  0  0  0  0
 29 30  1  0  0  0
 30 22  1  0  0  0
 22 23  2  0  0  0
 23 24  1  0  0  0
 24 25  1  0  0  0
 24 26  2  0  0  0
 26 27  1  0  0  0
 27 28  2  0  0  0
 28 21  1  0  0  0
 21  1  1  0  0  0
  1  2  2  0  0  0
  2  3  1  0  0  0
  3  4  2  0  0  0
  4  5  1  0  0  0
  5  6  2  0  0  0
  6 19  1  0  0  0
 19 20  3  0  0  0
  4  7  1  0  0  0
  7  8  2  0  0  0
  7  9  1  0  0  0
  9 11  1  0  0  0
 11 12  1  0  0  0
 12 13  2  0  0  0
 13 14  1  0  0  0
 14 15  1  0  0  0
 15 16  2  0  0  0
 15 17  1  0  0  0
 28 22  1  0  0  0
  6  1  1  0  0  0
 17 11  2  0  0  0
  9 10  1  0  0  0
 14 18  1  0  0  0
M  END
> <minimizedAffinity>
-8.66668

> <CNNscore>
0.5393202901

> <CNNaffinity>
6.4930787086

> <CNN_VS>
3.5018491745

> <CNNaffinity_variance>
0.4774254858

$$$$
[H]c1c([H])c(Oc2c([H])c([H])c(C(=O)N([H])c3c([H])c([H])n([H])c(=O)c3[H])c([H])c2C#N)c(OC([H])([H])[H])c([H])c1F


 30 32  0  0  0  0  0  0  0  0999 V2000
  -17.5768   12.2850  -19.5804 C   0  0  0  0  0  0  0  0  0  0  0  0
  -18.5773   12.7005  -18.7277 C   0  0  0  0  0  0  0  0  0  0  0  0
  -19.1813   11.8213  -17.8102 C   0  0  0  0  0  0  0  0  0  0  0  0
  -18.7697   10.5305  -17.7621 C   0  0  0  0  0  0  0  0  0  0  0  0
  -17.7706   10.1264  -18.6184 C   0  0  0  0  0  0  0  0  0  0  0  0
  -17.1591   10.9817  -19.5358 C   0  0  0  0  0  0  0  0  0  0  0  0
  -19.3598    9.5382  -16.8267 C   0  0  0  0  0  0  0  0  0  0  0  0
  -18.9037    8.3679  -16.8487 O   0  0  0  0  0  0  0  0  0  0  0  0
  -20.3855    9.9111  -15.9604 N   0  0  0  0  0  0  0  0  0  0  0  0
  -20.7464   10.9183  -15.9861 H   0  0  0  0  0  0  0  0  0  0  0  0
  -21.0274    9.0754  -15.0178 C   0  0  0  0  0  0  0  0  0  0  0  0
  -22.1722    8.3598  -15.2118 C   0  0  0  0  0  0  0  0  0  0  0  0
  -22.7708    7.5710  -14.2356 C   0  0  0  0  0  0  0  0  0  0  0  0
  -22.2226    7.4826  -13.0251 N   0  0  0  0  0  0  0  0  0  0  0  0
  -21.0985    8.1739  -12.8078 C   0  0  0  0  0  0  0  0  0  0  0  0
  -20.5873    8.0761  -11.6408 O   0  0  0  0  0  0  0  0  0  0  0  0
  -20.4735    8.9590  -13.7259 C   0  0  0  0  0  0  0  0  0  0  0  0
  -22.6745    6.8926  -12.3026 H   0  0  0  0  0  0  0  0  0  0  0  0
  -16.1368   10.4647  -20.4312 C   0  0  0  0  0  0  0  0  0  0  0  0
  -15.3395   10.0380  -21.1526 N   0  0  0  0  0  0  0  0  0  0  0  0
  -17.0411   13.1775  -20.4375 O   0  0  0  0  0  0  0  0  0  0  0  0
  -17.4792   13.8183  -22.6736 C   0  0  0  0  0  0  0  0  0  0  0  0
  -18.0560   14.6768  -23.5697 C   0  0  0  0  0  0  0  0  0  0  0  0
  -18.7861   15.7701  -23.1591 C   0  0  0  0  0  0  0  0  0  0  0  0
  -19.3501   16.6098  -24.0799 F   0  0  0  0  0  0  0  0  0  0  0  0
  -18.9556   16.0289  -21.8205 C   0  0  0  0  0  0  0  0  0  0  0  0
  -18.3622   15.1450  -20.9367 C   0  0  0  0  0  0  0  0  0  0  0  0
  -17.6270   14.0452  -21.3206 C   0  0  0  0  0  0  0  0  0  0  0  0
  -15.4088   12.8732  -23.5389 C   0  0  0  0  0  0  0  0  0  0  0  0
  -16.7556   12.7343  -23.1617 O   0  0  0  0  0  0  0  0  0  0  0  0
 29 30  1  0  0  0
 30 22  1  0  0  0
 22 23  2  0  0  0
 23 24  1  0  0  0
 24 25  1  0  0  0
 24 26  2  0  0  0
 26 27  1  0  0  0
 27 28  2  0  0  0
 28 21  1  0  0  0
 21  1  1  0  0  0
  1  2  2  0  0  0
  2  3  1  0  0  0
  3  4  2  0  0  0
  4  5  1  0  0  0
  5  6  2  0  0  0
  6 19  1  0  0  0
 19 20  3  0  0  0
  4  7  1  0  0  0
  7  8  2  0  0  0
  7  9  1  0  0  0
  9 11  1  0  0  0
 11 12  1  0  0  0
 12 13  2  0  0  0
 13 14  1  0  0  0
 14 15  1  0  0  0
 15 16  2  0  0  0
 15 17  1  0  0  0
 28 22  1  0  0  0
  6  1  1  0  0  0
 17 11  2  0  0  0
  9 10  1  0  0  0
 14 18  1  0  0  0
M  END
> <minimizedAffinity>
-7.81511

> <CNNscore>
0.5317624211

> <CNNaffinity>
6.2274618149

> <CNN_VS>
3.3115301132

> <CNNaffinity_variance>
0.2456059903

$$$$
[H]c1c([H])c(Oc2c([H])c([H])c(C(=O)N([H])c3c([H])c([H])n([H])c(=O)c3[H])c([H])c2C#N)c(OC([H])([H])[H])c([H])c1F


 30 32  0  0  0  0  0  0  0  0999 V2000
  -18.0713   11.9981  -19.8709 C   0  0  0  0  0  0  0  0  0  0  0  0
  -19.1086   12.2953  -19.0129 C   0  0  0  0  0  0  0  0  0  0  0  0
  -19.4153   11.4774  -17.9099 C   0  0  0  0  0  0  0  0  0  0  0  0
  -18.6718   10.3666  -17.6834 C   0  0  0  0  0  0  0  0  0  0  0  0
  -17.6390   10.0792  -18.5467 C   0  0  0  0  0  0  0  0  0  0  0  0
  -17.3187   10.8764  -19.6463 C   0  0  0  0  0  0  0  0  0  0  0  0
  -18.9340    9.4482  -16.5451 C   0  0  0  0  0  0  0  0  0  0  0  0
  -18.4576    8.2874  -16.6063 O   0  0  0  0  0  0  0  0  0  0  0  0
  -19.6866    9.8773  -15.4538 N   0  0  0  0  0  0  0  0  0  0  0  0
  -20.0789   10.8729  -15.4529 H   0  0  0  0  0  0  0  0  0  0  0  0
  -20.0025    9.1147  -14.3059 C   0  0  0  0  0  0  0  0  0  0  0  0
  -21.1248    8.3645  -14.1114 C   0  0  0  0  0  0  0  0  0  0  0  0
  -21.3917    7.6523  -12.9473 C   0  0  0  0  0  0  0  0  0  0  0  0
  -20.5225    7.6787  -11.9387 N   0  0  0  0  0  0  0  0  0  0  0  0
  -19.4125    8.4064  -12.1031 C   0  0  0  0  0  0  0  0  0  0  0  0
  -18.5907    8.4191  -11.1248 O   0  0  0  0  0  0  0  0  0  0  0  0
  -19.1038    9.1204  -13.2189 C   0  0  0  0  0  0  0  0  0  0  0  0
  -20.7284    7.1454  -11.0741 H   0  0  0  0  0  0  0  0  0  0  0  0
  -16.2350   10.4804  -20.5311 C   0  0  0  0  0  0  0  0  0  0  0  0
  -15.3880   10.1514  -21.2470 N   0  0  0  0  0  0  0  0  0  0  0  0
  -17.8313   12.8224  -20.9106 O   0  0  0  0  0  0  0  0  0  0  0  0
  -16.7474   14.5943  -22.0457 C   0  0  0  0  0  0  0  0  0  0  0  0
  -16.3593   15.9054  -22.1011 C   0  0  0  0  0  0  0  0  0  0  0  0
  -16.6535   16.7916  -21.0888 C   0  0  0  0  0  0  0  0  0  0  0  0
  -16.2510   18.0962  -21.1738 F   0  0  0  0  0  0  0  0  0  0  0  0
  -17.3542   16.3749  -19.9829 C   0  0  0  0  0  0  0  0  0  0  0  0
  -17.7344   15.0448  -19.9530 C   0  0  0  0  0  0  0  0  0  0  0  0
  -17.4527   14.1381  -20.9510 C   0  0  0  0  0  0  0  0  0  0  0  0
  -17.2359   13.6658  -24.2430 C   0  0  0  0  0  0  0  0  0  0  0  0
  -16.4146   13.7564  -23.1060 O   0  0  0  0  0  0  0  0  0  0  0  0
 29 30  1  0  0  0
 30 22  1  0  0  0
 22 23  2  0  0  0
 23 24  1  0  0  0
 24 25  1  0  0  0
 24 26  2  0  0  0
 26 27  1  0  0  0
 27 28  2  0  0  0
 28 21  1  0  0  0
 21  1  1  0  0  0
  1  2  2  0  0  0
  2  3  1  0  0  0
  3  4  2  0  0  0
  4  5  1  0  0  0
  5  6  2  0  0  0
  6 19  1  0  0  0
 19 20  3  0  0  0
  4  7  1  0  0  0
  7  8  2  0  0  0
  7  9  1  0  0  0
  9 11  1  0  0  0
 11 12  1  0  0  0
 12 13  2  0  0  0
 13 14  1  0  0  0
 14 15  1  0  0  0
 15 16  2  0  0  0
 15 17  1  0  0  0
 28 22  1  0  0  0
  6  1  1  0  0  0
 17 11  2  0  0  0
  9 10  1  0  0  0
 14 18  1  0  0  0
M  END
> <minimizedAffinity>
-7.92120

> <CNNscore>
0.5226866007

> <CNNaffinity>
6.3048024178

> <CNN_VS>
3.2954356670

> <CNNaffinity_variance>
0.2798865438

$$$$
[H]c1c([H])c(Oc2c([H])c([H])c(C(=O)N([H])c3c([H])c([H])n([H])c(=O)c3[H])c([H])c2C#N)c(OC([H])([H])[H])c([H])c1F


 30 32  0  0  0  0  0  0  0  0999 V2000
  -17.2659   13.0815  -21.8423 C   0  0  0  0  0  0  0  0  0  0  0  0
  -18.1825   14.1080  -21.7598 C   0  0  0  0  0  0  0  0  0  0  0  0
  -19.1467   14.1598  -20.7364 C   0  0  0  0  0  0  0  0  0  0  0  0
  -19.1766   13.1746  -19.8056 C   0  0  0  0  0  0  0  0  0  0  0  0
  -18.2572   12.1544  -19.8979 C   0  0  0  0  0  0  0  0  0  0  0  0
  -17.2936   12.0839  -20.9047 C   0  0  0  0  0  0  0  0  0  0  0  0
  -20.1660   13.1526  -18.6972 C   0  0  0  0  0  0  0  0  0  0  0  0
  -21.1536   13.9248  -18.7771 O   0  0  0  0  0  0  0  0  0  0  0  0
  -19.9877   12.2973  -17.6117 N   0  0  0  0  0  0  0  0  0  0  0  0
  -19.1247   11.6650  -17.5852 H   0  0  0  0  0  0  0  0  0  0  0  0
  -20.8512   12.1685  -16.4997 C   0  0  0  0  0  0  0  0  0  0  0  0
  -21.2999   13.1761  -15.6974 C   0  0  0  0  0  0  0  0  0  0  0  0
  -22.1322   12.9840  -14.6001 C   0  0  0  0  0  0  0  0  0  0  0  0
  -22.5379   11.7563  -14.2813 N   0  0  0  0  0  0  0  0  0  0  0  0
  -22.1131   10.7493  -15.0521 C   0  0  0  0  0  0  0  0  0  0  0  0
  -22.5132    9.5791  -14.7307 O   0  0  0  0  0  0  0  0  0  0  0  0
  -21.2999   10.8823  -16.1343 C   0  0  0  0  0  0  0  0  0  0  0  0
  -23.1582   11.6210  -13.4620 H   0  0  0  0  0  0  0  0  0  0  0  0
  -16.3833   10.9510  -20.9517 C   0  0  0  0  0  0  0  0  0  0  0  0
  -15.6501   10.0565  -20.9681 N   0  0  0  0  0  0  0  0  0  0  0  0
  -16.3694   13.0901  -22.8494 O   0  0  0  0  0  0  0  0  0  0  0  0
  -15.9006   14.5958  -24.6146 C   0  0  0  0  0  0  0  0  0  0  0  0
  -16.0204   14.9557  -25.9294 C   0  0  0  0  0  0  0  0  0  0  0  0
  -16.7243   14.1872  -26.8298 C   0  0  0  0  0  0  0  0  0  0  0  0
  -16.8260   14.5744  -28.1378 F   0  0  0  0  0  0  0  0  0  0  0  0
  -17.3320   13.0237  -26.4239 C   0  0  0  0  0  0  0  0  0  0  0  0
  -17.1947   12.6837  -25.0898 C   0  0  0  0  0  0  0  0  0  0  0  0
  -16.4972   13.4341  -24.1690 C   0  0  0  0  0  0  0  0  0  0  0  0
  -15.7482   16.5811  -23.2132 C   0  0  0  0  0  0  0  0  0  0  0  0
  -15.1738   15.4217  -23.7621 O   0  0  0  0  0  0  0  0  0  0  0  0
 29 30  1  0  0  0
 30 22  1  0  0  0
 22 23  2  0  0  0
 23 24  1  0  0  0
 24 25  1  0  0  0
 24 26  2  0  0  0
 26 27  1  0  0  0
 27 28  2  0  0  0
 28 21  1  0  0  0
 21  1  1  0  0  0
  1  2  2  0  0  0
  2  3  1  0  0  0
  3  4  2  0  0  0
  4  5  1  0  0  0
  5  6  2  0  0  0
  6 19  1  0  0  0
 19 20  3  0  0  0
  4  7  1  0  0  0
  7  8  2  0  0  0
  7  9  1  0  0  0
  9 11  1  0  0  0
 11 12  1  0  0  0
 12 13  2  0  0  0
 13 14  1  0  0  0
 14 15  1  0  0  0
 15 16  2  0  0  0
 15 17  1  0  0  0
 28 22  1  0  0  0
  6  1  1  0  0  0
 17 11  2  0  0  0
  9 10  1  0  0  0
 14 18  1  0  0  0
M  END
> <minimizedAffinity>
-8.54846

> <CNNscore>
0.5210555792

> <CNNaffinity>
6.5131921768

> <CNN_VS>
3.3937351704

> <CNNaffinity_variance>
0.4770270288

$$$$
[H]c1c([H])c(Oc2c([H])c([H])c(C(=O)N([H])c3c([H])c([H])n([H])c(=O)c3[H])c([H])c2C#N)c(OC([H])([H])[H])c([H])c1F


 30 32  0  0  0  0  0  0  0  0999 V2000
  -17.5663   12.2309  -19.6601 C   0  0  0  0  0  0  0  0  0  0  0  0
  -18.5706   12.6429  -18.8103 C   0  0  0  0  0  0  0  0  0  0  0  0
  -19.1399   11.7750  -17.8604 C   0  0  0  0  0  0  0  0  0  0  0  0
  -18.6900   10.4988  -17.7773 C   0  0  0  0  0  0  0  0  0  0  0  0
  -17.6874   10.0980  -18.6311 C   0  0  0  0  0  0  0  0  0  0  0  0
  -17.1100   10.9423  -19.5802 C   0  0  0  0  0  0  0  0  0  0  0  0
  -19.2418    9.5188  -16.8062 C   0  0  0  0  0  0  0  0  0  0  0  0
  -18.7084    8.3827  -16.7521 O   0  0  0  0  0  0  0  0  0  0  0  0
  -20.3168    9.8656  -15.9904 N   0  0  0  0  0  0  0  0  0  0  0  0
  -20.7429   10.8432  -16.0807 H   0  0  0  0  0  0  0  0  0  0  0  0
  -20.9309    9.0385  -15.0221 C   0  0  0  0  0  0  0  0  0  0  0  0
  -20.8606    9.1818  -13.6676 C   0  0  0  0  0  0  0  0  0  0  0  0
  -21.4689    8.3196  -12.7619 C   0  0  0  0  0  0  0  0  0  0  0  0
  -22.1724    7.2793  -13.2053 N   0  0  0  0  0  0  0  0  0  0  0  0
  -22.2582    7.1155  -14.5300 C   0  0  0  0  0  0  0  0  0  0  0  0
  -22.9375    6.1123  -14.9360 O   0  0  0  0  0  0  0  0  0  0  0  0
  -21.6833    7.9277  -15.4572 C   0  0  0  0  0  0  0  0  0  0  0  0
  -22.6229    6.6410  -12.5243 H   0  0  0  0  0  0  0  0  0  0  0  0
  -16.0812   10.4281  -20.4699 C   0  0  0  0  0  0  0  0  0  0  0  0
  -15.2743    9.9982  -21.1786 N   0  0  0  0  0  0  0  0  0  0  0  0
  -17.0652   13.1119  -20.5493 O   0  0  0  0  0  0  0  0  0  0  0  0
  -17.7489   14.0132  -22.6285 C   0  0  0  0  0  0  0  0  0  0  0  0
  -18.3416   15.0138  -23.3497 C   0  0  0  0  0  0  0  0  0  0  0  0
  -18.8604   16.1356  -22.7420 C   0  0  0  0  0  0  0  0  0  0  0  0
  -19.4466   17.1187  -23.4911 F   0  0  0  0  0  0  0  0  0  0  0  0
  -18.7947   16.2792  -21.3772 C   0  0  0  0  0  0  0  0  0  0  0  0
  -18.1907   15.2528  -20.6728 C   0  0  0  0  0  0  0  0  0  0  0  0
  -17.6637   14.1213  -21.2555 C   0  0  0  0  0  0  0  0  0  0  0  0
  -16.9874   12.9664  -24.6908 C   0  0  0  0  0  0  0  0  0  0  0  0
  -17.2468   12.9088  -23.3106 O   0  0  0  0  0  0  0  0  0  0  0  0
 29 30  1  0  0  0
 30 22  1  0  0  0
 22 23  2  0  0  0
 23 24  1  0  0  0
 24 25  1  0  0  0
 24 26  2  0  0  0
 26 27  1  0  0  0
 27 28  2  0  0  0
 28 21  1  0  0  0
 21  1  1  0  0  0
  1  2  2  0  0  0
  2  3  1  0  0  0
  3  4  2  0  0  0
  4  5  1  0  0  0
  5  6  2  0  0  0
  6 19  1  0  0  0
 19 20  3  0  0  0
  4  7  1  0  0  0
  7  8  2  0  0  0
  7  9  1  0  0  0
  9 11  1  0  0  0
 11 12  1  0  0  0
 12 13  2  0  0  0
 13 14  1  0  0  0
 14 15  1  0  0  0
 15 16  2  0  0  0
 15 17  1  0  0  0
 28 22  1  0  0  0
  6  1  1  0  0  0
 17 11  2  0  0  0
  9 10  1  0  0  0
 14 18  1  0  0  0
M  END
> <minimizedAffinity>
-7.97022

> <CNNscore>
0.5018663406

> <CNNaffinity>
6.2634816170

> <CNN_VS>
3.1434307098

> <CNNaffinity_variance>
0.2961423397

$$$$
[H]c1c([H])c(Oc2c([H])c([H])c(C(=O)N([H])c3c([H])c([H])n([H])c(=O)c3[H])c([H])c2C#N)c(OC([H])([H])[H])c([H])c1F


 30 32  0  0  0  0  0  0  0  0999 V2000
  -17.8322   12.3483  -21.2143 C   0  0  0  0  0  0  0  0  0  0  0  0
  -18.9116   13.0931  -20.7892 C   0  0  0  0  0  0  0  0  0  0  0  0
  -19.4977   12.8940  -19.5257 C   0  0  0  0  0  0  0  0  0  0  0  0
  -18.9885   11.9445  -18.7028 C   0  0  0  0  0  0  0  0  0  0  0  0
  -17.9111   11.2064  -19.1376 C   0  0  0  0  0  0  0  0  0  0  0  0
  -17.3157   11.3874  -20.3865 C   0  0  0  0  0  0  0  0  0  0  0  0
  -19.5528   11.6683  -17.3562 C   0  0  0  0  0  0  0  0  0  0  0  0
  -19.3564   10.5311  -16.8600 O   0  0  0  0  0  0  0  0  0  0  0  0
  -20.2742   12.6505  -16.6806 N   0  0  0  0  0  0  0  0  0  0  0  0
  -20.4224   13.6009  -17.1497 H   0  0  0  0  0  0  0  0  0  0  0  0
  -20.8550   12.5257  -15.3976 C   0  0  0  0  0  0  0  0  0  0  0  0
  -20.5191   11.6170  -14.4376 C   0  0  0  0  0  0  0  0  0  0  0  0
  -21.1445   11.5276  -13.1989 C   0  0  0  0  0  0  0  0  0  0  0  0
  -22.1357   12.3630  -12.8937 N   0  0  0  0  0  0  0  0  0  0  0  0
  -22.4851   13.2652  -13.8172 C   0  0  0  0  0  0  0  0  0  0  0  0
  -23.4376   14.0580  -13.5059 O   0  0  0  0  0  0  0  0  0  0  0  0
  -21.9074   13.3946  -15.0417 C   0  0  0  0  0  0  0  0  0  0  0  0
  -22.5971   12.2903  -11.9685 H   0  0  0  0  0  0  0  0  0  0  0  0
  -16.2039   10.5387  -20.7837 C   0  0  0  0  0  0  0  0  0  0  0  0
  -15.3045    9.8778  -21.0879 N   0  0  0  0  0  0  0  0  0  0  0  0
  -17.3187   12.5876  -22.4378 O   0  0  0  0  0  0  0  0  0  0  0  0
  -16.4185   13.7102  -24.3173 C   0  0  0  0  0  0  0  0  0  0  0  0
  -15.8857   14.8368  -24.8825 C   0  0  0  0  0  0  0  0  0  0  0  0
  -15.7067   15.9952  -24.1593 C   0  0  0  0  0  0  0  0  0  0  0  0
  -15.1711   17.1049  -24.7532 F   0  0  0  0  0  0  0  0  0  0  0  0
  -16.0641   16.0485  -22.8337 C   0  0  0  0  0  0  0  0  0  0  0  0
  -16.6003   14.8956  -22.2879 C   0  0  0  0  0  0  0  0  0  0  0  0
  -16.7894   13.7246  -22.9882 C   0  0  0  0  0  0  0  0  0  0  0  0
  -17.5478   12.5221  -26.1178 C   0  0  0  0  0  0  0  0  0  0  0  0
  -16.5700   12.5760  -25.1096 O   0  0  0  0  0  0  0  0  0  0  0  0
 29 30  1  0  0  0
 30 22  1  0  0  0
 22 23  2  0  0  0
 23 24  1  0  0  0
 24 25  1  0  0  0
 24 26  2  0  0  0
 26 27  1  0  0  0
 27 28  2  0  0  0
 28 21  1  0  0  0
 21  1  1  0  0  0
  1  2  2  0  0  0
  2  3  1  0  0  0
  3  4  2  0  0  0
  4  5  1  0  0  0
  5  6  2  0  0  0
  6 19  1  0  0  0
 19 20  3  0  0  0
  4  7  1  0  0  0
  7  8  2  0  0  0
  7  9  1  0  0  0
  9 11  1  0  0  0
 11 12  1  0  0  0
 12 13  2  0  0  0
 13 14  1  0  0  0
 14 15  1  0  0  0
 15 16  2  0  0  0
 15 17  1  0  0  0
 28 22  1  0  0  0
  6  1  1  0  0  0
 17 11  2  0  0  0
  9 10  1  0  0  0
 14 18  1  0  0  0
M  END
> <minimizedAffinity>
-8.36410

> <CNNscore>
0.4942733645

> <CNNaffinity>
6.3706665039

> <CNN_VS>
3.1488506794

> <CNNaffinity_variance>
0.3232101500

$$$$
[H]c1nc(N([H])c2c([H])c([H])c3c(c([H])nn3C([H])([H])c3c([H])c([H])c([H])c(F)c3[H])c2[H])c2c(O[C@@]([H])(C(=O)N(C([H])([H])[H])C([H])([H])[H])C([H])([H])[H])c([H])c([H])c([H])c2n1


 37 41  0  0  0  0  0  0  0  0999 V2000
  -17.8290   12.4042  -18.9627 N   0  0  0  0  0  0  0  0  0  0  0  0
  -17.8449   13.3380  -18.5831 H   0  0  0  0  0  0  0  0  0  0  0  0
  -18.0697   13.8365  -21.4702 C   0  0  0  0  0  0  0  0  0  0  0  0
  -18.0853   14.4769  -22.7154 C   0  0  0  0  0  0  0  0  0  0  0  0
  -17.3430   14.0303  -23.7935 C   0  0  0  0  0  0  0  0  0  0  0  0
  -16.5533   12.9153  -23.6548 C   0  0  0  0  0  0  0  0  0  0  0  0
  -16.5190   12.2674  -22.4429 C   0  0  0  0  0  0  0  0  0  0  0  0
  -15.7548   11.1716  -22.3258 N   0  0  0  0  0  0  0  0  0  0  0  0
  -15.6826   10.4770  -21.1705 C   0  0  0  0  0  0  0  0  0  0  0  0
  -16.3896   10.9179  -20.1665 N   0  0  0  0  0  0  0  0  0  0  0  0
  -17.2035   12.0178  -20.1581 C   0  0  0  0  0  0  0  0  0  0  0  0
  -17.2657   12.7207  -21.3639 C   0  0  0  0  0  0  0  0  0  0  0  0
  -18.8194   14.3122  -20.4490 O   0  0  0  0  0  0  0  0  0  0  0  0
  -18.5574   15.9481  -18.7321 C   0  0  0  0  0  0  0  0  0  0  0  0
  -19.1056   15.6385  -20.0988 C   0  0  0  0  0  0  0  0  0  0  0  0
  -20.4890   16.0425  -20.3164 C   0  0  0  0  0  0  0  0  0  0  0  0
  -21.4058   15.4839  -19.6631 O   0  0  0  0  0  0  0  0  0  0  0  0
  -20.8571   17.0500  -21.2433 N   0  0  0  0  0  0  0  0  0  0  0  0
  -22.2660   17.4235  -21.4221 C   0  0  0  0  0  0  0  0  0  0  0  0
  -19.9160   17.7748  -22.0703 C   0  0  0  0  0  0  0  0  0  0  0  0
  -18.4888   11.4307  -18.1602 C   0  0  0  0  0  0  0  0  0  0  0  0
  -18.0877   10.1362  -17.9966 C   0  0  0  0  0  0  0  0  0  0  0  0
  -18.7499    9.2400  -17.1787 C   0  0  0  0  0  0  0  0  0  0  0  0
  -19.8632    9.6578  -16.4951 C   0  0  0  0  0  0  0  0  0  0  0  0
  -20.6784    8.9975  -15.6502 N   0  0  0  0  0  0  0  0  0  0  0  0
  -21.6146    9.8623  -15.2624 N   0  0  0  0  0  0  0  0  0  0  0  0
  -21.4248   11.0631  -15.8344 C   0  0  0  0  0  0  0  0  0  0  0  0
  -20.3050   10.9501  -16.6289 C   0  0  0  0  0  0  0  0  0  0  0  0
  -19.6286   11.8206  -17.4476 C   0  0  0  0  0  0  0  0  0  0  0  0
  -20.5129    7.6221  -15.2713 C   0  0  0  0  0  0  0  0  0  0  0  0
  -19.8862    7.4009  -13.9714 C   0  0  0  0  0  0  0  0  0  0  0  0
  -19.2325    8.4403  -13.3475 C   0  0  0  0  0  0  0  0  0  0  0  0
  -18.6293    8.2616  -12.1082 C   0  0  0  0  0  0  0  0  0  0  0  0
  -18.6659    7.0512  -11.4708 C   0  0  0  0  0  0  0  0  0  0  0  0
  -19.3155    6.0043  -12.0823 C   0  0  0  0  0  0  0  0  0  0  0  0
  -19.3446    4.8106  -11.4405 F   0  0  0  0  0  0  0  0  0  0  0  0
  -19.9212    6.1865  -13.3286 C   0  0  0  0  0  0  0  0  0  0  0  0
 14 15  1  0  0  0
 15 13  1  0  0  0
 13  3  1  0  0  0
  3  4  2  0  0  0
  4  5  1  0  0  0
  5  6  2  0  0  0
  6  7  1  0  0  0
  7  8  2  0  0  0
  8  9  1  0  0  0
  9 10  2  0  0  0
 10 11  1  0  0  0
 11  1  1  0  0  0
  1 21  1  0  0  0
 21 22  2  0  0  0
 22 23  1  0  0  0
 23 24  2  0  0  0
 24 25  1  0  0  0
 25 30  1  0  0  0
 30 31  1  0  0  0
 31 32  2  0  0  0
 32 33  1  0  0  0
 33 34  2  0  0  0
 34 35  1  0  0  0
 35 36  1  0  0  0
 35 37  2  0  0  0
 25 26  1  0  0  0
 26 27  2  0  0  0
 27 28  1  0  0  0
 28 29  2  0  0  0
 11 12  2  0  0  0
 15 16  1  0  0  0
 16 17  2  0  0  0
 16 18  1  0  0  0
 18 19  1  0  0  0
 18 20  1  0  0  0
 12  3  1  0  0  0
 12  7  1  0  0  0
 29 21  1  0  0  0
 28 24  1  0  0  0
 37 31  1  0  0  0
  1  2  1  0  0  0
M  END
> <minimizedAffinity>
-8.49443

> <CNNscore>
0.6329695582

> <CNNaffinity>
7.2688736916

> <CNN_VS>
4.6009759903

> <CNNaffinity_variance>
0.0861991495

$$$$
[H]c1nc(N([H])c2c([H])c([H])c3c(c([H])nn3C([H])([H])c3c([H])c([H])c([H])c(F)c3[H])c2[H])c2c(O[C@@]([H])(C(=O)N(C([H])([H])[H])C([H])([H])[H])C([H])([H])[H])c([H])c([H])c([H])c2n1


 37 41  0  0  0  0  0  0  0  0999 V2000
  -19.5716   12.2251  -17.7397 N   0  0  0  0  0  0  0  0  0  0  0  0
  -20.1585   13.0439  -17.7742 H   0  0  0  0  0  0  0  0  0  0  0  0
  -19.0707   13.7013  -20.1824 C   0  0  0  0  0  0  0  0  0  0  0  0
  -18.7251   14.3582  -21.3697 C   0  0  0  0  0  0  0  0  0  0  0  0
  -17.7442   13.8885  -22.2241 C   0  0  0  0  0  0  0  0  0  0  0  0
  -17.0720   12.7326  -21.9109 C   0  0  0  0  0  0  0  0  0  0  0  0
  -17.3911   12.0676  -20.7509 C   0  0  0  0  0  0  0  0  0  0  0  0
  -16.7368   10.9325  -20.4646 N   0  0  0  0  0  0  0  0  0  0  0  0
  -17.0065   10.2197  -19.3503 C   0  0  0  0  0  0  0  0  0  0  0  0
  -17.9339   10.6829  -18.5581 N   0  0  0  0  0  0  0  0  0  0  0  0
  -18.6692   11.8230  -18.7364 C   0  0  0  0  0  0  0  0  0  0  0  0
  -18.3760   12.5443  -19.8965 C   0  0  0  0  0  0  0  0  0  0  0  0
  -20.0421   14.2011  -19.3840 O   0  0  0  0  0  0  0  0  0  0  0  0
  -18.9503   15.7688  -17.9546 C   0  0  0  0  0  0  0  0  0  0  0  0
  -20.1532   15.4745  -18.8095 C   0  0  0  0  0  0  0  0  0  0  0  0
  -21.4398   15.7516  -18.1832 C   0  0  0  0  0  0  0  0  0  0  0  0
  -21.9494   14.8981  -17.4144 O   0  0  0  0  0  0  0  0  0  0  0  0
  -22.1560   16.9553  -18.4022 N   0  0  0  0  0  0  0  0  0  0  0  0
  -23.4476   17.1879  -17.7432 C   0  0  0  0  0  0  0  0  0  0  0  0
  -21.7008   18.0249  -19.2645 C   0  0  0  0  0  0  0  0  0  0  0  0
  -19.6895   11.4657  -16.5411 C   0  0  0  0  0  0  0  0  0  0  0  0
  -19.9131   11.9806  -15.2967 C   0  0  0  0  0  0  0  0  0  0  0  0
  -20.0506   11.1929  -14.1691 C   0  0  0  0  0  0  0  0  0  0  0  0
  -19.9594    9.8299  -14.2925 C   0  0  0  0  0  0  0  0  0  0  0  0
  -20.0522    8.8530  -13.3698 N   0  0  0  0  0  0  0  0  0  0  0  0
  -19.8874    7.6980  -14.0128 N   0  0  0  0  0  0  0  0  0  0  0  0
  -19.6911    7.9038  -15.3259 C   0  0  0  0  0  0  0  0  0  0  0  0
  -19.7342    9.2665  -15.5233 C   0  0  0  0  0  0  0  0  0  0  0  0
  -19.6018   10.0716  -16.6278 C   0  0  0  0  0  0  0  0  0  0  0  0
  -20.2926    9.0772  -11.9717 C   0  0  0  0  0  0  0  0  0  0  0  0
  -19.0983    9.1677  -11.1368 C   0  0  0  0  0  0  0  0  0  0  0  0
  -18.8431   10.3285  -10.4409 C   0  0  0  0  0  0  0  0  0  0  0  0
  -17.7166   10.4436   -9.6351 C   0  0  0  0  0  0  0  0  0  0  0  0
  -16.8282    9.4105   -9.5082 C   0  0  0  0  0  0  0  0  0  0  0  0
  -17.0706    8.2451  -10.1975 C   0  0  0  0  0  0  0  0  0  0  0  0
  -16.1830    7.2293  -10.0632 F   0  0  0  0  0  0  0  0  0  0  0  0
  -18.2042    8.1319  -11.0071 C   0  0  0  0  0  0  0  0  0  0  0  0
 14 15  1  0  0  0
 15 13  1  0  0  0
 13  3  1  0  0  0
  3  4  2  0  0  0
  4  5  1  0  0  0
  5  6  2  0  0  0
  6  7  1  0  0  0
  7  8  2  0  0  0
  8  9  1  0  0  0
  9 10  2  0  0  0
 10 11  1  0  0  0
 11  1  1  0  0  0
  1 21  1  0  0  0
 21 22  2  0  0  0
 22 23  1  0  0  0
 23 24  2  0  0  0
 24 25  1  0  0  0
 25 30  1  0  0  0
 30 31  1  0  0  0
 31 32  2  0  0  0
 32 33  1  0  0  0
 33 34  2  0  0  0
 34 35  1  0  0  0
 35 36  1  0  0  0
 35 37  2  0  0  0
 25 26  1  0  0  0
 26 27  2  0  0  0
 27 28  1  0  0  0
 28 29  2  0  0  0
 11 12  2  0  0  0
 15 16  1  0  0  0
 16 17  2  0  0  0
 16 18  1  0  0  0
 18 19  1  0  0  0
 18 20  1  0  0  0
 12  3  1  0  0  0
 12  7  1  0  0  0
 29 21  1  0  0  0
 28 24  1  0  0  0
 37 31  1  0  0  0
  1  2  1  0  0  0
M  END
> <minimizedAffinity>
-8.61620

> <CNNscore>
0.6160036325

> <CNNaffinity>
7.1073479652

> <CNN_VS>
4.3781523705

> <CNNaffinity_variance>
0.1078375950

$$$$
[H]c1nc(N([H])c2c([H])c([H])c3c(c([H])nn3C([H])([H])c3c([H])c([H])c([H])c(F)c3[H])c2[H])c2c(O[C@@]([H])(C(=O)N(C([H])([H])[H])C([H])([H])[H])C([H])([H])[H])c([H])c([H])c([H])c2n1


 37 41  0  0  0  0  0  0  0  0999 V2000
  -17.7574   12.2527  -18.7895 N   0  0  0  0  0  0  0  0  0  0  0  0
  -17.7180   13.1588  -18.3496 H   0  0  0  0  0  0  0  0  0  0  0  0
  -18.1302   13.7609  -21.2357 C   0  0  0  0  0  0  0  0  0  0  0  0
  -18.2103   14.4408  -22.4571 C   0  0  0  0  0  0  0  0  0  0  0  0
  -17.5082   14.0427  -23.5802 C   0  0  0  0  0  0  0  0  0  0  0  0
  -16.6950   12.9381  -23.5125 C   0  0  0  0  0  0  0  0  0  0  0  0
  -16.5975   12.2520  -22.3253 C   0  0  0  0  0  0  0  0  0  0  0  0
  -15.8110   11.1668  -22.2773 N   0  0  0  0  0  0  0  0  0  0  0  0
  -15.6774   10.4366  -21.1498 C   0  0  0  0  0  0  0  0  0  0  0  0
  -16.3473   10.8321  -20.1024 N   0  0  0  0  0  0  0  0  0  0  0  0
  -17.1780   11.9164  -20.0227 C   0  0  0  0  0  0  0  0  0  0  0  0
  -17.3040   12.6568  -21.2009 C   0  0  0  0  0  0  0  0  0  0  0  0
  -18.8425   14.1897  -20.1681 O   0  0  0  0  0  0  0  0  0  0  0  0
  -17.5577   16.1703  -19.8231 C   0  0  0  0  0  0  0  0  0  0  0  0
  -18.8494   15.4480  -19.5513 C   0  0  0  0  0  0  0  0  0  0  0  0
  -19.2731   15.4420  -18.1567 C   0  0  0  0  0  0  0  0  0  0  0  0
  -18.5229   14.9352  -17.2852 O   0  0  0  0  0  0  0  0  0  0  0  0
  -20.5092   15.9880  -17.7283 N   0  0  0  0  0  0  0  0  0  0  0  0
  -20.8876   15.9609  -16.3096 C   0  0  0  0  0  0  0  0  0  0  0  0
  -21.4780   16.5971  -18.6145 C   0  0  0  0  0  0  0  0  0  0  0  0
  -18.4478   11.2614  -18.0361 C   0  0  0  0  0  0  0  0  0  0  0  0
  -18.0448    9.9673  -17.8737 C   0  0  0  0  0  0  0  0  0  0  0  0
  -18.7390    9.0531  -17.1037 C   0  0  0  0  0  0  0  0  0  0  0  0
  -19.8878    9.4516  -16.4690 C   0  0  0  0  0  0  0  0  0  0  0  0
  -20.7381    8.7716  -15.6759 N   0  0  0  0  0  0  0  0  0  0  0  0
  -21.6991    9.6231  -15.3208 N   0  0  0  0  0  0  0  0  0  0  0  0
  -21.4912   10.8344  -15.8636 C   0  0  0  0  0  0  0  0  0  0  0  0
  -20.3330   10.7426  -16.6037 C   0  0  0  0  0  0  0  0  0  0  0  0
  -19.6243   11.6313  -17.3742 C   0  0  0  0  0  0  0  0  0  0  0  0
  -20.5802    7.3914  -15.3113 C   0  0  0  0  0  0  0  0  0  0  0  0
  -19.9839    7.1536  -14.0001 C   0  0  0  0  0  0  0  0  0  0  0  0
  -20.0746    5.9031  -13.4301 C   0  0  0  0  0  0  0  0  0  0  0  0
  -19.5138    5.6449  -12.1849 C   0  0  0  0  0  0  0  0  0  0  0  0
  -18.8559    6.6220  -11.4882 C   0  0  0  0  0  0  0  0  0  0  0  0
  -18.7576    7.8756  -12.0456 C   0  0  0  0  0  0  0  0  0  0  0  0
  -18.1035    8.8344  -11.3454 F   0  0  0  0  0  0  0  0  0  0  0  0
  -19.3224    8.1326  -13.2979 C   0  0  0  0  0  0  0  0  0  0  0  0
 14 15  1  0  0  0
 15 13  1  0  0  0
 13  3  1  0  0  0
  3  4  2  0  0  0
  4  5  1  0  0  0
  5  6  2  0  0  0
  6  7  1  0  0  0
  7  8  2  0  0  0
  8  9  1  0  0  0
  9 10  2  0  0  0
 10 11  1  0  0  0
 11  1  1  0  0  0
  1 21  1  0  0  0
 21 22  2  0  0  0
 22 23  1  0  0  0
 23 24  2  0  0  0
 24 25  1  0  0  0
 25 30  1  0  0  0
 30 31  1  0  0  0
 31 32  2  0  0  0
 32 33  1  0  0  0
 33 34  2  0  0  0
 34 35  1  0  0  0
 35 36  1  0  0  0
 35 37  2  0  0  0
 25 26  1  0  0  0
 26 27  2  0  0  0
 27 28  1  0  0  0
 28 29  2  0  0  0
 11 12  2  0  0  0
 15 16  1  0  0  0
 16 17  2  0  0  0
 16 18  1  0  0  0
 18 19  1  0  0  0
 18 20  1  0  0  0
 12  3  1  0  0  0
 12  7  1  0  0  0
 29 21  1  0  0  0
 28 24  1  0  0  0
 37 31  1  0  0  0
  1  2  1  0  0  0
M  END
> <minimizedAffinity>
-8.53837

> <CNNscore>
0.6034830809

> <CNNaffinity>
7.3603096008

> <CNN_VS>
4.4418225288

> <CNNaffinity_variance>
0.0940062180

$$$$
[H]c1nc(N([H])c2c([H])c([H])c3c(c([H])nn3C([H])([H])c3c([H])c([H])c([H])c(F)c3[H])c2[H])c2c(O[C@@]([H])(C(=O)N(C([H])([H])[H])C([H])([H])[H])C([H])([H])[H])c([H])c([H])c([H])c2n1


 37 41  0  0  0  0  0  0  0  0999 V2000
  -17.8265   14.1264  -20.6983 N   0  0  0  0  0  0  0  0  0  0  0  0
  -18.1837   15.0293  -20.4272 H   0  0  0  0  0  0  0  0  0  0  0  0
  -16.9177   16.1496  -22.5632 C   0  0  0  0  0  0  0  0  0  0  0  0
  -16.3944   17.0515  -23.4978 C   0  0  0  0  0  0  0  0  0  0  0  0
  -15.5720   16.6559  -24.5370 C   0  0  0  0  0  0  0  0  0  0  0  0
  -15.2454   15.3289  -24.6728 C   0  0  0  0  0  0  0  0  0  0  0  0
  -15.7452   14.4220  -23.7687 C   0  0  0  0  0  0  0  0  0  0  0  0
  -15.4298   13.1274  -23.9216 N   0  0  0  0  0  0  0  0  0  0  0  0
  -15.8948   12.1796  -23.0804 C   0  0  0  0  0  0  0  0  0  0  0  0
  -16.6669   12.5762  -22.1063 N   0  0  0  0  0  0  0  0  0  0  0  0
  -17.0599   13.8602  -21.8432 C   0  0  0  0  0  0  0  0  0  0  0  0
  -16.5695   14.8249  -22.7269 C   0  0  0  0  0  0  0  0  0  0  0  0
  -17.7222   16.5888  -21.5677 O   0  0  0  0  0  0  0  0  0  0  0  0
  -15.9483   17.4076  -20.1982 C   0  0  0  0  0  0  0  0  0  0  0  0
  -17.4239   17.4354  -20.4916 C   0  0  0  0  0  0  0  0  0  0  0  0
  -18.2887   17.2736  -19.3295 C   0  0  0  0  0  0  0  0  0  0  0  0
  -17.9614   16.4668  -18.4233 O   0  0  0  0  0  0  0  0  0  0  0  0
  -19.4998   17.9926  -19.1687 N   0  0  0  0  0  0  0  0  0  0  0  0
  -20.3339   17.7963  -17.9761 C   0  0  0  0  0  0  0  0  0  0  0  0
  -20.0098   18.9482  -20.1288 C   0  0  0  0  0  0  0  0  0  0  0  0
  -18.1328   13.0745  -19.7891 C   0  0  0  0  0  0  0  0  0  0  0  0
  -17.4337   11.9088  -19.6628 C   0  0  0  0  0  0  0  0  0  0  0  0
  -17.7574   10.9324  -18.7395 C   0  0  0  0  0  0  0  0  0  0  0  0
  -18.8287   11.1313  -17.9064 C   0  0  0  0  0  0  0  0  0  0  0  0
  -19.3490   10.3528  -16.9380 N   0  0  0  0  0  0  0  0  0  0  0  0
  -20.3908   11.0109  -16.4319 N   0  0  0  0  0  0  0  0  0  0  0  0
  -20.5563   12.1934  -17.0478 C   0  0  0  0  0  0  0  0  0  0  0  0
  -19.5624   12.2874  -17.9971 C   0  0  0  0  0  0  0  0  0  0  0  0
  -19.2194   13.2418  -18.9228 C   0  0  0  0  0  0  0  0  0  0  0  0
  -18.8288    9.0679  -16.5625 C   0  0  0  0  0  0  0  0  0  0  0  0
  -19.4381    8.4660  -15.3801 C   0  0  0  0  0  0  0  0  0  0  0  0
  -20.4053    7.4976  -15.5334 C   0  0  0  0  0  0  0  0  0  0  0  0
  -21.0010    6.9036  -14.4271 C   0  0  0  0  0  0  0  0  0  0  0  0
  -20.6463    7.2611  -13.1546 C   0  0  0  0  0  0  0  0  0  0  0  0
  -19.6815    8.2269  -12.9866 C   0  0  0  0  0  0  0  0  0  0  0  0
  -19.3392    8.5719  -11.7212 F   0  0  0  0  0  0  0  0  0  0  0  0
  -19.0840    8.8227  -14.1008 C   0  0  0  0  0  0  0  0  0  0  0  0
 14 15  1  0  0  0
 15 13  1  0  0  0
 13  3  1  0  0  0
  3  4  2  0  0  0
  4  5  1  0  0  0
  5  6  2  0  0  0
  6  7  1  0  0  0
  7  8  2  0  0  0
  8  9  1  0  0  0
  9 10  2  0  0  0
 10 11  1  0  0  0
 11  1  1  0  0  0
  1 21  1  0  0  0
 21 22  2  0  0  0
 22 23  1  0  0  0
 23 24  2  0  0  0
 24 25  1  0  0  0
 25 30  1  0  0  0
 30 31  1  0  0  0
 31 32  2  0  0  0
 32 33  1  0  0  0
 33 34  2  0  0  0
 34 35  1  0  0  0
 35 36  1  0  0  0
 35 37  2  0  0  0
 25 26  1  0  0  0
 26 27  2  0  0  0
 27 28  1  0  0  0
 28 29  2  0  0  0
 11 12  2  0  0  0
 15 16  1  0  0  0
 16 17  2  0  0  0
 16 18  1  0  0  0
 18 19  1  0  0  0
 18 20  1  0  0  0
 12  3  1  0  0  0
 12  7  1  0  0  0
 29 21  1  0  0  0
 28 24  1  0  0  0
 37 31  1  0  0  0
  1  2  1  0  0  0
M  END
> <minimizedAffinity>
-8.87195

> <CNNscore>
0.3953967094

> <CNNaffinity>
7.3483123779

> <CNN_VS>
2.9054985046

> <CNNaffinity_variance>
0.0983890891

$$$$
[H]c1nc(N([H])c2c([H])c([H])c3c(c([H])nn3C([H])([H])c3c([H])c([H])c([H])c(F)c3[H])c2[H])c2c(O[C@@]([H])(C(=O)N(C([H])([H])[H])C([H])([H])[H])C([H])([H])[H])c([H])c([H])c([H])c2n1


 37 41  0  0  0  0  0  0  0  0999 V2000
  -17.8464   13.9894  -20.2079 N   0  0  0  0  0  0  0  0  0  0  0  0
  -17.8963   14.9705  -19.9817 H   0  0  0  0  0  0  0  0  0  0  0  0
  -18.2725   15.1632  -22.8228 C   0  0  0  0  0  0  0  0  0  0  0  0
  -18.3835   15.6705  -24.1232 C   0  0  0  0  0  0  0  0  0  0  0  0
  -17.7669   15.0783  -25.2103 C   0  0  0  0  0  0  0  0  0  0  0  0
  -17.0117   13.9463  -25.0251 C   0  0  0  0  0  0  0  0  0  0  0  0
  -16.8857   13.4271  -23.7586 C   0  0  0  0  0  0  0  0  0  0  0  0
  -16.1571   12.3132  -23.5944 N   0  0  0  0  0  0  0  0  0  0  0  0
  -16.0006   11.7398  -22.3823 C   0  0  0  0  0  0  0  0  0  0  0  0
  -16.5894   12.3170  -21.3711 N   0  0  0  0  0  0  0  0  0  0  0  0
  -17.3551   13.4505  -21.4068 C   0  0  0  0  0  0  0  0  0  0  0  0
  -17.5061   14.0264  -22.6708 C   0  0  0  0  0  0  0  0  0  0  0  0
  -18.9006   15.7787  -21.7944 O   0  0  0  0  0  0  0  0  0  0  0  0
  -18.5873   17.3818  -20.0552 C   0  0  0  0  0  0  0  0  0  0  0  0
  -18.9776   17.1442  -21.4889 C   0  0  0  0  0  0  0  0  0  0  0  0
  -20.2118   17.7953  -21.9100 C   0  0  0  0  0  0  0  0  0  0  0  0
  -21.3160   17.3322  -21.5285 O   0  0  0  0  0  0  0  0  0  0  0  0
  -20.2282   18.9431  -22.7419 N   0  0  0  0  0  0  0  0  0  0  0  0
  -21.4996   19.5645  -23.1344 C   0  0  0  0  0  0  0  0  0  0  0  0
  -19.0401   19.5835  -23.2646 C   0  0  0  0  0  0  0  0  0  0  0  0
  -18.3000   13.1225  -19.1735 C   0  0  0  0  0  0  0  0  0  0  0  0
  -19.1650   13.4665  -18.1751 C   0  0  0  0  0  0  0  0  0  0  0  0
  -19.5975   12.5740  -17.2123 C   0  0  0  0  0  0  0  0  0  0  0  0
  -19.1433   11.2803  -17.2500 C   0  0  0  0  0  0  0  0  0  0  0  0
  -19.4018   10.2313  -16.4456 N   0  0  0  0  0  0  0  0  0  0  0  0
  -18.7031    9.2006  -16.9189 N   0  0  0  0  0  0  0  0  0  0  0  0
  -18.0008    9.5567  -18.0075 C   0  0  0  0  0  0  0  0  0  0  0  0
  -18.2714   10.8883  -18.2345 C   0  0  0  0  0  0  0  0  0  0  0  0
  -17.8577   11.7947  -19.1794 C   0  0  0  0  0  0  0  0  0  0  0  0
  -20.2811   10.2760  -15.3108 C   0  0  0  0  0  0  0  0  0  0  0  0
  -21.5005    9.4822  -15.4309 C   0  0  0  0  0  0  0  0  0  0  0  0
  -22.7093   10.1179  -15.6085 C   0  0  0  0  0  0  0  0  0  0  0  0
  -23.8868    9.3895  -15.7297 C   0  0  0  0  0  0  0  0  0  0  0  0
  -23.8821    8.0220  -15.6765 C   0  0  0  0  0  0  0  0  0  0  0  0
  -22.6819    7.3739  -15.4996 C   0  0  0  0  0  0  0  0  0  0  0  0
  -22.6909    6.0194  -15.4487 F   0  0  0  0  0  0  0  0  0  0  0  0
  -21.4992    8.1088  -15.3780 C   0  0  0  0  0  0  0  0  0  0  0  0
 14 15  1  0  0  0
 15 13  1  0  0  0
 13  3  1  0  0  0
  3  4  2  0  0  0
  4  5  1  0  0  0
  5  6  2  0  0  0
  6  7  1  0  0  0
  7  8  2  0  0  0
  8  9  1  0  0  0
  9 10  2  0  0  0
 10 11  1  0  0  0
 11  1  1  0  0  0
  1 21  1  0  0  0
 21 22  2  0  0  0
 22 23  1  0  0  0
 23 24  2  0  0  0
 24 25  1  0  0  0
 25 30  1  0  0  0
 30 31  1  0  0  0
 31 32  2  0  0  0
 32 33  1  0  0  0
 33 34  2  0  0  0
 34 35  1  0  0  0
 35 36  1  0  0  0
 35 37  2  0  0  0
 25 26  1  0  0  0
 26 27  2  0  0  0
 27 28  1  0  0  0
 28 29  2  0  0  0
 11 12  2  0  0  0
 15 16  1  0  0  0
 16 17  2  0  0  0
 16 18  1  0  0  0
 18 19  1  0  0  0
 18 20  1  0  0  0
 12  3  1  0  0  0
 12  7  1  0  0  0
 29 21  1  0  0  0
 28 24  1  0  0  0
 37 31  1  0  0  0
  1  2  1  0  0  0
M  END
> <minimizedAffinity>
-8.11422

> <CNNscore>
0.3833727539

> <CNNaffinity>
7.2158098221

> <CNN_VS>
2.7663447857

> <CNNaffinity_variance>
0.1050698534

$$$$
[H]c1nc(N([H])c2c([H])c([H])c3c(c([H])nn3C([H])([H])c3c([H])c([H])c([H])c(F)c3[H])c2[H])c2c(O[C@@]([H])(C(=O)N(C([H])([H])[H])C([H])([H])[H])C([H])([H])[H])c([H])c([H])c([H])c2n1


 37 41  0  0  0  0  0  0  0  0999 V2000
  -17.6512   13.6021  -19.7762 N   0  0  0  0  0  0  0  0  0  0  0  0
  -17.3385   14.3970  -19.2409 H   0  0  0  0  0  0  0  0  0  0  0  0
  -18.5682   15.6449  -21.6156 C   0  0  0  0  0  0  0  0  0  0  0  0
  -18.9416   16.5828  -22.5860 C   0  0  0  0  0  0  0  0  0  0  0  0
  -18.7538   16.3708  -23.9397 C   0  0  0  0  0  0  0  0  0  0  0  0
  -18.1796   15.1988  -24.3671 C   0  0  0  0  0  0  0  0  0  0  0  0
  -17.8032   14.2607  -23.4354 C   0  0  0  0  0  0  0  0  0  0  0  0
  -17.2569   13.1146  -23.8675 N   0  0  0  0  0  0  0  0  0  0  0  0
  -16.8757   12.1431  -23.0113 C   0  0  0  0  0  0  0  0  0  0  0  0
  -17.0603   12.3658  -21.7391 N   0  0  0  0  0  0  0  0  0  0  0  0
  -17.6035   13.4875  -21.1741 C   0  0  0  0  0  0  0  0  0  0  0  0
  -17.9933   14.4792  -22.0777 C   0  0  0  0  0  0  0  0  0  0  0  0
  -18.7790   15.9000  -20.3035 O   0  0  0  0  0  0  0  0  0  0  0  0
  -16.8126   17.1819  -19.8760 C   0  0  0  0  0  0  0  0  0  0  0  0
  -18.2443   16.9144  -19.4980 C   0  0  0  0  0  0  0  0  0  0  0  0
  -18.4869   16.7516  -18.0700 C   0  0  0  0  0  0  0  0  0  0  0  0
  -18.0238   15.7462  -17.4752 O   0  0  0  0  0  0  0  0  0  0  0  0
  -19.2314   17.6862  -17.3071 N   0  0  0  0  0  0  0  0  0  0  0  0
  -19.4438   17.4781  -15.8690 C   0  0  0  0  0  0  0  0  0  0  0  0
  -19.8313   18.8850  -17.8531 C   0  0  0  0  0  0  0  0  0  0  0  0
  -18.1471   12.5221  -18.9922 C   0  0  0  0  0  0  0  0  0  0  0  0
  -17.5802   11.2835  -18.9025 C   0  0  0  0  0  0  0  0  0  0  0  0
  -18.0875   10.2791  -18.0996 C   0  0  0  0  0  0  0  0  0  0  0  0
  -19.2123   10.5253  -17.3543 C   0  0  0  0  0  0  0  0  0  0  0  0
  -19.8996    9.7343  -16.5079 N   0  0  0  0  0  0  0  0  0  0  0  0
  -20.9182   10.4574  -16.0450 N   0  0  0  0  0  0  0  0  0  0  0  0
  -20.9061   11.6940  -16.5701 C   0  0  0  0  0  0  0  0  0  0  0  0
  -19.8180   11.7552  -17.4127 C   0  0  0  0  0  0  0  0  0  0  0  0
  -19.2934   12.7359  -18.2181 C   0  0  0  0  0  0  0  0  0  0  0  0
  -19.5463    8.3772  -16.1975 C   0  0  0  0  0  0  0  0  0  0  0  0
  -19.5226    8.0450  -14.7760 C   0  0  0  0  0  0  0  0  0  0  0  0
  -19.9622    6.8076  -14.3608 C   0  0  0  0  0  0  0  0  0  0  0  0
  -19.9483    6.4608  -13.0150 C   0  0  0  0  0  0  0  0  0  0  0  0
  -19.4989    7.3351  -12.0630 C   0  0  0  0  0  0  0  0  0  0  0  0
  -19.0568    8.5745  -12.4634 C   0  0  0  0  0  0  0  0  0  0  0  0
  -18.6141    9.4312  -11.5108 F   0  0  0  0  0  0  0  0  0  0  0  0
  -19.0717    8.9208  -13.8174 C   0  0  0  0  0  0  0  0  0  0  0  0
 14 15  1  0  0  0
 15 13  1  0  0  0
 13  3  1  0  0  0
  3  4  2  0  0  0
  4  5  1  0  0  0
  5  6  2  0  0  0
  6  7  1  0  0  0
  7  8  2  0  0  0
  8  9  1  0  0  0
  9 10  2  0  0  0
 10 11  1  0  0  0
 11  1  1  0  0  0
  1 21  1  0  0  0
 21 22  2  0  0  0
 22 23  1  0  0  0
 23 24  2  0  0  0
 24 25  1  0  0  0
 25 30  1  0  0  0
 30 31  1  0  0  0
 31 32  2  0  0  0
 32 33  1  0  0  0
 33 34  2  0  0  0
 34 35  1  0  0  0
 35 36  1  0  0  0
 35 37  2  0  0  0
 25 26  1  0  0  0
 26 27  2  0  0  0
 27 28  1  0  0  0
 28 29  2  0  0  0
 11 12  2  0  0  0
 15 16  1  0  0  0
 16 17  2  0  0  0
 16 18  1  0  0  0
 18 19  1  0  0  0
 18 20  1  0  0  0
 12  3  1  0  0  0
 12  7  1  0  0  0
 29 21  1  0  0  0
 28 24  1  0  0  0
 37 31  1  0  0  0
  1  2  1  0  0  0
M  END
> <minimizedAffinity>
-8.69287

> <CNNscore>
0.3487198949

> <CNNaffinity>
7.1146545410

> <CNN_VS>
2.4810216427

> <CNNaffinity_variance>
0.0655233636

$$$$
[H]c1nc(N([H])c2c([H])c([H])c3c(c([H])nn3C([H])([H])c3c([H])c([H])c([H])c(F)c3[H])c2[H])c2c(O[C@@]([H])(C(=O)N(C([H])([H])[H])C([H])([H])[H])C([H])([H])[H])c([H])c([H])c([H])c2n1


 37 41  0  0  0  0  0  0  0  0999 V2000
  -17.8707   14.3770  -19.9645 N   0  0  0  0  0  0  0  0  0  0  0  0
  -17.8287   15.3045  -19.5719 H   0  0  0  0  0  0  0  0  0  0  0  0
  -16.6889   16.2093  -21.8732 C   0  0  0  0  0  0  0  0  0  0  0  0
  -16.0671   17.0010  -22.8464 C   0  0  0  0  0  0  0  0  0  0  0  0
  -15.5762   16.4803  -24.0299 C   0  0  0  0  0  0  0  0  0  0  0  0
  -15.6950   15.1346  -24.2769 C   0  0  0  0  0  0  0  0  0  0  0  0
  -16.3010   14.3340  -23.3380 C   0  0  0  0  0  0  0  0  0  0  0  0
  -16.4232   13.0241  -23.5986 N   0  0  0  0  0  0  0  0  0  0  0  0
  -17.0188   12.1803  -22.7293 C   0  0  0  0  0  0  0  0  0  0  0  0
  -17.4723   12.6932  -21.6187 N   0  0  0  0  0  0  0  0  0  0  0  0
  -17.4091   14.0056  -21.2366 C   0  0  0  0  0  0  0  0  0  0  0  0
  -16.7912   14.8621  -22.1514 C   0  0  0  0  0  0  0  0  0  0  0  0
  -17.1565   16.7703  -20.7340 O   0  0  0  0  0  0  0  0  0  0  0  0
  -18.5556   17.7939  -19.0946 C   0  0  0  0  0  0  0  0  0  0  0  0
  -18.2179   17.6676  -20.5556 C   0  0  0  0  0  0  0  0  0  0  0  0
  -19.3578   17.4481  -21.4371 C   0  0  0  0  0  0  0  0  0  0  0  0
  -20.1149   16.4657  -21.2350 O   0  0  0  0  0  0  0  0  0  0  0  0
  -19.6590   18.3014  -22.5283 N   0  0  0  0  0  0  0  0  0  0  0  0
  -20.8227   18.0387  -23.3846 C   0  0  0  0  0  0  0  0  0  0  0  0
  -18.8767   19.4646  -22.8889 C   0  0  0  0  0  0  0  0  0  0  0  0
  -18.4298   13.3953  -19.0980 C   0  0  0  0  0  0  0  0  0  0  0  0
  -19.5313   13.5695  -18.3107 C   0  0  0  0  0  0  0  0  0  0  0  0
  -20.0508   12.5696  -17.5100 C   0  0  0  0  0  0  0  0  0  0  0  0
  -19.4401   11.3415  -17.4961 C   0  0  0  0  0  0  0  0  0  0  0  0
  -19.7365   10.2172  -16.8161 N   0  0  0  0  0  0  0  0  0  0  0  0
  -18.8259    9.3074  -17.1590 N   0  0  0  0  0  0  0  0  0  0  0  0
  -17.9500    9.8148  -18.0423 C   0  0  0  0  0  0  0  0  0  0  0  0
  -18.3290   11.1195  -18.2702 C   0  0  0  0  0  0  0  0  0  0  0  0
  -17.8334   12.1297  -19.0572 C   0  0  0  0  0  0  0  0  0  0  0  0
  -20.8443   10.0838  -15.9118 C   0  0  0  0  0  0  0  0  0  0  0  0
  -20.5255   10.2653  -14.4986 C   0  0  0  0  0  0  0  0  0  0  0  0
  -21.1740   11.2426  -13.7767 C   0  0  0  0  0  0  0  0  0  0  0  0
  -20.8948   11.4371  -12.4292 C   0  0  0  0  0  0  0  0  0  0  0  0
  -19.9696   10.6662  -11.7793 C   0  0  0  0  0  0  0  0  0  0  0  0
  -19.3143    9.6863  -12.4880 C   0  0  0  0  0  0  0  0  0  0  0  0
  -18.4003    8.9295  -11.8326 F   0  0  0  0  0  0  0  0  0  0  0  0
  -19.5969    9.4926  -13.8430 C   0  0  0  0  0  0  0  0  0  0  0  0
 14 15  1  0  0  0
 15 13  1  0  0  0
 13  3  1  0  0  0
  3  4  2  0  0  0
  4  5  1  0  0  0
  5  6  2  0  0  0
  6  7  1  0  0  0
  7  8  2  0  0  0
  8  9  1  0  0  0
  9 10  2  0  0  0
 10 11  1  0  0  0
 11  1  1  0  0  0
  1 21  1  0  0  0
 21 22  2  0  0  0
 22 23  1  0  0  0
 23 24  2  0  0  0
 24 25  1  0  0  0
 25 30  1  0  0  0
 30 31  1  0  0  0
 31 32  2  0  0  0
 32 33  1  0  0  0
 33 34  2  0  0  0
 34 35  1  0  0  0
 35 36  1  0  0  0
 35 37  2  0  0  0
 25 26  1  0  0  0
 26 27  2  0  0  0
 27 28  1  0  0  0
 28 29  2  0  0  0
 11 12  2  0  0  0
 15 16  1  0  0  0
 16 17  2  0  0  0
 16 18  1  0  0  0
 18 19  1  0  0  0
 18 20  1  0  0  0
 12  3  1  0  0  0
 12  7  1  0  0  0
 29 21  1  0  0  0
 28 24  1  0  0  0
 37 31  1  0  0  0
  1  2  1  0  0  0
M  END
> <minimizedAffinity>
-8.53311

> <CNNscore>
0.3315589428

> <CNNaffinity>
7.1851119995

> <CNN_VS>
2.3822882175

> <CNNaffinity_variance>
0.0434684642

$$$$
[H]c1nc(N([H])c2c([H])c([H])c3c(c([H])nn3C([H])([H])c3c([H])c([H])c([H])c(F)c3[H])c2[H])c2c(O[C@@]([H])(C(=O)N(C([H])([H])[H])C([H])([H])[H])C([H])([H])[H])c([H])c([H])c([H])c2n1


 37 41  0  0  0  0  0  0  0  0999 V2000
  -17.9241   13.3543  -20.2087 N   0  0  0  0  0  0  0  0  0  0  0  0
  -18.1311   14.2932  -19.9057 H   0  0  0  0  0  0  0  0  0  0  0  0
  -18.1645   14.8786  -22.6614 C   0  0  0  0  0  0  0  0  0  0  0  0
  -18.1809   15.5633  -23.8827 C   0  0  0  0  0  0  0  0  0  0  0  0
  -17.4533   15.1456  -24.9822 C   0  0  0  0  0  0  0  0  0  0  0  0
  -16.6781   14.0156  -24.8900 C   0  0  0  0  0  0  0  0  0  0  0  0
  -16.6434   13.3243  -23.7024 C   0  0  0  0  0  0  0  0  0  0  0  0
  -15.8936   12.2147  -23.6308 N   0  0  0  0  0  0  0  0  0  0  0  0
  -15.8221   11.4782  -22.5017 C   0  0  0  0  0  0  0  0  0  0  0  0
  -16.5150   11.8925  -21.4767 N   0  0  0  0  0  0  0  0  0  0  0  0
  -17.3134   13.0024  -21.4222 C   0  0  0  0  0  0  0  0  0  0  0  0
  -17.3752   13.7489  -22.6017 C   0  0  0  0  0  0  0  0  0  0  0  0
  -18.8994   15.3275  -21.6177 O   0  0  0  0  0  0  0  0  0  0  0  0
  -18.4668   16.8087  -19.7979 C   0  0  0  0  0  0  0  0  0  0  0  0
  -19.0846   16.6388  -21.1594 C   0  0  0  0  0  0  0  0  0  0  0  0
  -20.4456   17.1442  -21.2885 C   0  0  0  0  0  0  0  0  0  0  0  0
  -20.6606   18.1702  -21.9816 O   0  0  0  0  0  0  0  0  0  0  0  0
  -21.5561   16.5257  -20.6609 N   0  0  0  0  0  0  0  0  0  0  0  0
  -22.9091   17.0723  -20.8262 C   0  0  0  0  0  0  0  0  0  0  0  0
  -21.4641   15.3454  -19.8282 C   0  0  0  0  0  0  0  0  0  0  0  0
  -18.2775   12.3416  -19.2724 C   0  0  0  0  0  0  0  0  0  0  0  0
  -17.6385   11.1447  -19.1222 C   0  0  0  0  0  0  0  0  0  0  0  0
  -18.0053   10.2087  -18.1734 C   0  0  0  0  0  0  0  0  0  0  0  0
  -19.0588   10.4827  -17.3388 C   0  0  0  0  0  0  0  0  0  0  0  0
  -19.6114    9.7555  -16.3487 N   0  0  0  0  0  0  0  0  0  0  0  0
  -20.6141   10.4784  -15.8524 N   0  0  0  0  0  0  0  0  0  0  0  0
  -20.7230   11.6529  -16.4958 C   0  0  0  0  0  0  0  0  0  0  0  0
  -19.7326   11.6726  -17.4531 C   0  0  0  0  0  0  0  0  0  0  0  0
  -19.3476   12.5856  -18.4038 C   0  0  0  0  0  0  0  0  0  0  0  0
  -19.1553    8.4547  -15.9453 C   0  0  0  0  0  0  0  0  0  0  0  0
  -20.1157    7.6621  -15.1830 C   0  0  0  0  0  0  0  0  0  0  0  0
  -21.1069    6.9742  -15.8471 C   0  0  0  0  0  0  0  0  0  0  0  0
  -22.0334    6.2084  -15.1495 C   0  0  0  0  0  0  0  0  0  0  0  0
  -21.9901    6.1140  -13.7849 C   0  0  0  0  0  0  0  0  0  0  0  0
  -21.0054    6.7958  -13.1086 C   0  0  0  0  0  0  0  0  0  0  0  0
  -20.9734    6.6941  -11.7572 F   0  0  0  0  0  0  0  0  0  0  0  0
  -20.0749    7.5652  -13.8126 C   0  0  0  0  0  0  0  0  0  0  0  0
 14 15  1  0  0  0
 15 13  1  0  0  0
 13  3  1  0  0  0
  3  4  2  0  0  0
  4  5  1  0  0  0
  5  6  2  0  0  0
  6  7  1  0  0  0
  7  8  2  0  0  0
  8  9  1  0  0  0
  9 10  2  0  0  0
 10 11  1  0  0  0
 11  1  1  0  0  0
  1 21  1  0  0  0
 21 22  2  0  0  0
 22 23  1  0  0  0
 23 24  2  0  0  0
 24 25  1  0  0  0
 25 30  1  0  0  0
 30 31  1  0  0  0
 31 32  2  0  0  0
 32 33  1  0  0  0
 33 34  2  0  0  0
 34 35  1  0  0  0
 35 36  1  0  0  0
 35 37  2  0  0  0
 25 26  1  0  0  0
 26 27  2  0  0  0
 27 28  1  0  0  0
 28 29  2  0  0  0
 11 12  2  0  0  0
 15 16  1  0  0  0
 16 17  2  0  0  0
 16 18  1  0  0  0
 18 19  1  0  0  0
 18 20  1  0  0  0
 12  3  1  0  0  0
 12  7  1  0  0  0
 29 21  1  0  0  0
 28 24  1  0  0  0
 37 31  1  0  0  0
  1  2  1  0  0  0
M  END
> <minimizedAffinity>
-8.36724

> <CNNscore>
0.3259355724

> <CNNaffinity>
7.1999444962

> <CNN_VS>
2.3467180729

> <CNNaffinity_variance>
0.1415555477

$$$$
[H]c1nc(N([H])c2c([H])c([H])c3c(c([H])nn3C([H])([H])c3c([H])c([H])c([H])c(F)c3[H])c2[H])c2c(O[C@@]([H])(C(=O)N(C([H])([H])[H])C([H])([H])[H])C([H])([H])[H])c([H])c([H])c([H])c2n1


 37 41  0  0  0  0  0  0  0  0999 V2000
  -17.5791   14.6025  -21.1585 N   0  0  0  0  0  0  0  0  0  0  0  0
  -17.8055   15.5719  -20.9998 H   0  0  0  0  0  0  0  0  0  0  0  0
  -16.4749   16.2379  -23.2805 C   0  0  0  0  0  0  0  0  0  0  0  0
  -15.8624   16.9423  -24.3243 C   0  0  0  0  0  0  0  0  0  0  0  0
  -15.0477   16.3309  -25.2598 C   0  0  0  0  0  0  0  0  0  0  0  0
  -14.8194   14.9792  -25.1768 C   0  0  0  0  0  0  0  0  0  0  0  0
  -15.4082   14.2634  -24.1616 C   0  0  0  0  0  0  0  0  0  0  0  0
  -15.1883   12.9418  -24.1010 N   0  0  0  0  0  0  0  0  0  0  0  0
  -15.7440   12.1733  -23.1402 C   0  0  0  0  0  0  0  0  0  0  0  0
  -16.5069   12.7719  -22.2674 N   0  0  0  0  0  0  0  0  0  0  0  0
  -16.8076   14.1060  -22.2204 C   0  0  0  0  0  0  0  0  0  0  0  0
  -16.2244   14.8826  -23.2248 C   0  0  0  0  0  0  0  0  0  0  0  0
  -17.2674   16.8841  -22.3943 O   0  0  0  0  0  0  0  0  0  0  0  0
  -19.2687   16.6688  -23.6754 C   0  0  0  0  0  0  0  0  0  0  0  0
  -18.5591   17.3991  -22.5675 C   0  0  0  0  0  0  0  0  0  0  0  0
  -18.6320   18.8531  -22.6393 C   0  0  0  0  0  0  0  0  0  0  0  0
  -18.6073   19.4184  -23.7614 O   0  0  0  0  0  0  0  0  0  0  0  0
  -18.7309   19.6739  -21.4876 N   0  0  0  0  0  0  0  0  0  0  0  0
  -18.8060   21.1350  -21.6143 C   0  0  0  0  0  0  0  0  0  0  0  0
  -18.7628   19.1688  -20.1316 C   0  0  0  0  0  0  0  0  0  0  0  0
  -18.0882   13.7097  -20.1732 C   0  0  0  0  0  0  0  0  0  0  0  0
  -17.5470   12.4999  -19.8460 C   0  0  0  0  0  0  0  0  0  0  0  0
  -18.0655   11.6853  -18.8569 C   0  0  0  0  0  0  0  0  0  0  0  0
  -19.1753   12.0996  -18.1655 C   0  0  0  0  0  0  0  0  0  0  0  0
  -19.8687   11.5070  -17.1744 N   0  0  0  0  0  0  0  0  0  0  0  0
  -20.8655   12.3308  -16.8547 N   0  0  0  0  0  0  0  0  0  0  0  0
  -20.8335   13.4393  -17.6130 C   0  0  0  0  0  0  0  0  0  0  0  0
  -19.7551   13.3080  -18.4601 C   0  0  0  0  0  0  0  0  0  0  0  0
  -19.2198   14.0986  -19.4470 C   0  0  0  0  0  0  0  0  0  0  0  0
  -19.5407   10.2295  -16.6057 C   0  0  0  0  0  0  0  0  0  0  0  0
  -20.2013    9.9177  -15.3416 C   0  0  0  0  0  0  0  0  0  0  0  0
  -21.3721    9.1925  -15.3484 C   0  0  0  0  0  0  0  0  0  0  0  0
  -22.0221    8.8769  -14.1612 C   0  0  0  0  0  0  0  0  0  0  0  0
  -21.5209    9.2757  -12.9519 C   0  0  0  0  0  0  0  0  0  0  0  0
  -20.3522   10.0006  -12.9301 C   0  0  0  0  0  0  0  0  0  0  0  0
  -19.8662   10.3895  -11.7258 F   0  0  0  0  0  0  0  0  0  0  0  0
  -19.7004   10.3166  -14.1254 C   0  0  0  0  0  0  0  0  0  0  0  0
 14 15  1  0  0  0
 15 13  1  0  0  0
 13  3  1  0  0  0
  3  4  2  0  0  0
  4  5  1  0  0  0
  5  6  2  0  0  0
  6  7  1  0  0  0
  7  8  2  0  0  0
  8  9  1  0  0  0
  9 10  2  0  0  0
 10 11  1  0  0  0
 11  1  1  0  0  0
  1 21  1  0  0  0
 21 22  2  0  0  0
 22 23  1  0  0  0
 23 24  2  0  0  0
 24 25  1  0  0  0
 25 30  1  0  0  0
 30 31  1  0  0  0
 31 32  2  0  0  0
 32 33  1  0  0  0
 33 34  2  0  0  0
 34 35  1  0  0  0
 35 36  1  0  0  0
 35 37  2  0  0  0
 25 26  1  0  0  0
 26 27  2  0  0  0
 27 28  1  0  0  0
 28 29  2  0  0  0
 11 12  2  0  0  0
 15 16  1  0  0  0
 16 17  2  0  0  0
 16 18  1  0  0  0
 18 19  1  0  0  0
 18 20  1  0  0  0
 12  3  1  0  0  0
 12  7  1  0  0  0
 29 21  1  0  0  0
 28 24  1  0  0  0
 37 31  1  0  0  0
  1  2  1  0  0  0
M  END
> <minimizedAffinity>
-8.54535

> <CNNscore>
0.2951426804

> <CNNaffinity>
7.1445798874

> <CNN_VS>
2.1086704731

> <CNNaffinity_variance>
0.1354292333

$$$$
[H]c1c([H])c([H])c(C#Cc2c([H])c(F)c([H])c(C#N)c2[H])c([H])c1[H]


 17 18  0  0  0  0  0  0  0  0999 V2000
  -17.1773   12.4523  -27.0287 F   0  0  0  0  0  0  0  0  0  0  0  0
  -17.2056   13.1858  -25.8844 C   0  0  0  0  0  0  0  0  0  0  0  0
  -17.0455   14.5568  -25.9154 C   0  0  0  0  0  0  0  0  0  0  0  0
  -17.0724   15.3115  -24.7599 C   0  0  0  0  0  0  0  0  0  0  0  0
  -17.2642   14.7021  -23.5154 C   0  0  0  0  0  0  0  0  0  0  0  0
  -17.4246   13.3400  -23.4702 C   0  0  0  0  0  0  0  0  0  0  0  0
  -17.3929   12.6120  -24.6427 C   0  0  0  0  0  0  0  0  0  0  0  0
  -17.6236   12.7020  -22.1848 C   0  0  0  0  0  0  0  0  0  0  0  0
  -17.8100   12.1682  -21.1182 C   0  0  0  0  0  0  0  0  0  0  0  0
  -18.0557   11.5420  -19.8517 C   0  0  0  0  0  0  0  0  0  0  0  0
  -18.9374   12.1354  -18.9746 C   0  0  0  0  0  0  0  0  0  0  0  0
  -19.2035   11.5542  -17.7281 C   0  0  0  0  0  0  0  0  0  0  0  0
  -18.5838   10.3901  -17.3803 C   0  0  0  0  0  0  0  0  0  0  0  0
  -17.6941    9.7717  -18.2400 C   0  0  0  0  0  0  0  0  0  0  0  0
  -17.4448   10.3632  -19.4685 C   0  0  0  0  0  0  0  0  0  0  0  0
  -16.8998   16.7365  -24.8567 C   0  0  0  0  0  0  0  0  0  0  0  0
  -16.7447   17.8867  -24.9359 N   0  0  0  0  0  0  0  0  0  0  0  0
  1  2  1  0  0  0
  2  3  2  0  0  0
  3  4  1  0  0  0
  4  5  2  0  0  0
  5  6  1  0  0  0
  6  7  2  0  0  0
  6  8  1  0  0  0
  8  9  3  0  0  0
  9 10  1  0  0  0
 10 11  2  0  0  0
 11 12  1  0  0  0
 12 13  2  0  0  0
 13 14  1  0  0  0
 14 15  2  0  0  0
  4 16  1  0  0  0
 16 17  3  0  0  0
  7  2  1  0  0  0
 15 10  1  0  0  0
M  END
> <minimizedAffinity>
-6.93208

> <CNNscore>
0.7759338617

> <CNNaffinity>
5.3575401306

> <CNN_VS>
4.1570968628

> <CNNaffinity_variance>
0.2179573327

$$$$
[H]c1c([H])c([H])c(C#Cc2c([H])c(F)c([H])c(C#N)c2[H])c([H])c1[H]


 17 18  0  0  0  0  0  0  0  0999 V2000
  -17.9048   11.9031  -26.7913 F   0  0  0  0  0  0  0  0  0  0  0  0
  -17.3707   12.7667  -25.8873 C   0  0  0  0  0  0  0  0  0  0  0  0
  -16.4658   13.7336  -26.2777 C   0  0  0  0  0  0  0  0  0  0  0  0
  -15.9171   14.6157  -25.3687 C   0  0  0  0  0  0  0  0  0  0  0  0
  -16.2661   14.5531  -24.0155 C   0  0  0  0  0  0  0  0  0  0  0  0
  -17.1645   13.5967  -23.6139 C   0  0  0  0  0  0  0  0  0  0  0  0
  -17.6963   12.7285  -24.5462 C   0  0  0  0  0  0  0  0  0  0  0  0
  -17.5308   13.5258  -22.2140 C   0  0  0  0  0  0  0  0  0  0  0  0
  -17.8534   13.4560  -21.0527 C   0  0  0  0  0  0  0  0  0  0  0  0
  -18.2609   13.3710  -19.6805 C   0  0  0  0  0  0  0  0  0  0  0  0
  -18.2982   14.5220  -18.9237 C   0  0  0  0  0  0  0  0  0  0  0  0
  -18.6910   14.4798  -17.5798 C   0  0  0  0  0  0  0  0  0  0  0  0
  -19.0395   13.2880  -17.0158 C   0  0  0  0  0  0  0  0  0  0  0  0
  -19.0117   12.1165  -17.7506 C   0  0  0  0  0  0  0  0  0  0  0  0
  -18.6202   12.1801  -19.0787 C   0  0  0  0  0  0  0  0  0  0  0  0
  -14.9793   15.6015  -25.8364 C   0  0  0  0  0  0  0  0  0  0  0  0
  -14.2192   16.3904  -26.2277 N   0  0  0  0  0  0  0  0  0  0  0  0
  1  2  1  0  0  0
  2  3  2  0  0  0
  3  4  1  0  0  0
  4  5  2  0  0  0
  5  6  1  0  0  0
  6  7  2  0  0  0
  6  8  1  0  0  0
  8  9  3  0  0  0
  9 10  1  0  0  0
 10 11  2  0  0  0
 11 12  1  0  0  0
 12 13  2  0  0  0
 13 14  1  0  0  0
 14 15  2  0  0  0
  4 16  1  0  0  0
 16 17  3  0  0  0
  7  2  1  0  0  0
 15 10  1  0  0  0
M  END
> <minimizedAffinity>
-6.18998

> <CNNscore>
0.6575154662

> <CNNaffinity>
5.4636545181

> <CNN_VS>
3.5924372673

> <CNNaffinity_variance>
0.3250566125

$$$$
[H]c1c([H])c([H])c(C#Cc2c([H])c(F)c([H])c(C#N)c2[H])c([H])c1[H]


 17 18  0  0  0  0  0  0  0  0999 V2000
  -16.4334    9.5727  -19.6854 F   0  0  0  0  0  0  0  0  0  0  0  0
  -17.0242   10.7269  -20.0943 C   0  0  0  0  0  0  0  0  0  0  0  0
  -17.9803   11.3494  -19.3169 C   0  0  0  0  0  0  0  0  0  0  0  0
  -18.5867   12.5214  -19.7220 C   0  0  0  0  0  0  0  0  0  0  0  0
  -18.2460   13.1151  -20.9420 C   0  0  0  0  0  0  0  0  0  0  0  0
  -17.2971   12.5066  -21.7245 C   0  0  0  0  0  0  0  0  0  0  0  0
  -16.7081   11.3352  -21.2927 C   0  0  0  0  0  0  0  0  0  0  0  0
  -16.9391   13.1157  -22.9894 C   0  0  0  0  0  0  0  0  0  0  0  0
  -16.6207   13.6249  -24.0367 C   0  0  0  0  0  0  0  0  0  0  0  0
  -16.2233   14.2413  -25.2690 C   0  0  0  0  0  0  0  0  0  0  0  0
  -15.1156   15.0610  -25.2774 C   0  0  0  0  0  0  0  0  0  0  0  0
  -14.6960   15.6811  -26.4612 C   0  0  0  0  0  0  0  0  0  0  0  0
  -15.3907   15.4711  -27.6159 C   0  0  0  0  0  0  0  0  0  0  0  0
  -16.5062   14.6537  -27.6379 C   0  0  0  0  0  0  0  0  0  0  0  0
  -16.9047   14.0496  -26.4558 C   0  0  0  0  0  0  0  0  0  0  0  0
  -19.5761   13.1229  -18.8680 C   0  0  0  0  0  0  0  0  0  0  0  0
  -20.3873   13.6019  -18.1854 N   0  0  0  0  0  0  0  0  0  0  0  0
  1  2  1  0  0  0
  2  3  2  0  0  0
  3  4  1  0  0  0
  4  5  2  0  0  0
  5  6  1  0  0  0
  6  7  2  0  0  0
  6  8  1  0  0  0
  8  9  3  0  0  0
  9 10  1  0  0  0
 10 11  2  0  0  0
 11 12  1  0  0  0
 12 13  2  0  0  0
 13 14  1  0  0  0
 14 15  2  0  0  0
  4 16  1  0  0  0
 16 17  3  0  0  0
  7  2  1  0  0  0
 15 10  1  0  0  0
M  END
> <minimizedAffinity>
-7.56694

> <CNNscore>
0.5500099659

> <CNNaffinity>
5.2865386009

> <CNN_VS>
2.9076488018

> <CNNaffinity_variance>
0.2404694110

$$$$
[H]c1c([H])c([H])c(C#Cc2c([H])c(F)c([H])c(C#N)c2[H])c([H])c1[H]


 17 18  0  0  0  0  0  0  0  0999 V2000
  -16.3865    9.5438  -19.7195 F   0  0  0  0  0  0  0  0  0  0  0  0
  -16.9740   10.7029  -20.1190 C   0  0  0  0  0  0  0  0  0  0  0  0
  -17.9392   11.3139  -19.3436 C   0  0  0  0  0  0  0  0  0  0  0  0
  -18.5423   12.4909  -19.7393 C   0  0  0  0  0  0  0  0  0  0  0  0
  -18.1889   13.1014  -20.9472 C   0  0  0  0  0  0  0  0  0  0  0  0
  -17.2309   12.5046  -21.7276 C   0  0  0  0  0  0  0  0  0  0  0  0
  -16.6454   11.3278  -21.3054 C   0  0  0  0  0  0  0  0  0  0  0  0
  -16.8597   13.1312  -22.9801 C   0  0  0  0  0  0  0  0  0  0  0  0
  -16.5307   13.6560  -24.0163 C   0  0  0  0  0  0  0  0  0  0  0  0
  -16.1218   14.2921  -25.2347 C   0  0  0  0  0  0  0  0  0  0  0  0
  -16.8675   14.0889  -26.3756 C   0  0  0  0  0  0  0  0  0  0  0  0
  -16.5002   14.6929  -27.5849 C   0  0  0  0  0  0  0  0  0  0  0  0
  -15.3942   15.4895  -27.6328 C   0  0  0  0  0  0  0  0  0  0  0  0
  -14.6265   15.7117  -26.5039 C   0  0  0  0  0  0  0  0  0  0  0  0
  -15.0072   15.1047  -25.3174 C   0  0  0  0  0  0  0  0  0  0  0  0
  -19.5416   13.0797  -18.8880 C   0  0  0  0  0  0  0  0  0  0  0  0
  -20.3386   13.5584  -18.1888 N   0  0  0  0  0  0  0  0  0  0  0  0
  1  2  1  0  0  0
  2  3  2  0  0  0
  3  4  1  0  0  0
  4  5  2  0  0  0
  5  6  1  0  0  0
  6  7  2  0  0  0
  6  8  1  0  0  0
  8  9  3  0  0  0
  9 10  1  0  0  0
 10 11  2  0  0  0
 11 12  1  0  0  0
 12 13  2  0  0  0
 13 14  1  0  0  0
 14 15  2  0  0  0
  4 16  1  0  0  0
 16 17  3  0  0  0
  7  2  1  0  0  0
 15 10  1  0  0  0
M  END
> <minimizedAffinity>
-7.56169

> <CNNscore>
0.5495525002

> <CNNaffinity>
5.3003754616

> <CNN_VS>
2.9128346443

> <CNNaffinity_variance>
0.2363438606

$$$$
[H]c1c([H])c([H])c(C#Cc2c([H])c(F)c([H])c(C#N)c2[H])c([H])c1[H]


 17 18  0  0  0  0  0  0  0  0999 V2000
  -18.2671   11.6822  -25.7359 F   0  0  0  0  0  0  0  0  0  0  0  0
  -17.8344   12.9661  -25.6237 C   0  0  0  0  0  0  0  0  0  0  0  0
  -17.0460   13.5379  -26.6023 C   0  0  0  0  0  0  0  0  0  0  0  0
  -16.6010   14.8405  -26.4988 C   0  0  0  0  0  0  0  0  0  0  0  0
  -16.9397   15.6231  -25.3899 C   0  0  0  0  0  0  0  0  0  0  0  0
  -17.7229   15.0670  -24.4099 C   0  0  0  0  0  0  0  0  0  0  0  0
  -18.1528   13.7618  -24.5413 C   0  0  0  0  0  0  0  0  0  0  0  0
  -18.0778   15.8715  -23.2584 C   0  0  0  0  0  0  0  0  0  0  0  0
  -18.3538   16.5397  -22.2916 C   0  0  0  0  0  0  0  0  0  0  0  0
  -18.6633   17.3216  -21.1300 C   0  0  0  0  0  0  0  0  0  0  0  0
  -19.6371   16.8727  -20.2644 C   0  0  0  0  0  0  0  0  0  0  0  0
  -19.9677   17.6083  -19.1191 C   0  0  0  0  0  0  0  0  0  0  0  0
  -19.3193   18.7796  -18.8590 C   0  0  0  0  0  0  0  0  0  0  0  0
  -18.3376   19.2550  -19.7096 C   0  0  0  0  0  0  0  0  0  0  0  0
  -18.0256   18.5120  -20.8372 C   0  0  0  0  0  0  0  0  0  0  0  0
  -15.7821   15.3805  -27.5514 C   0  0  0  0  0  0  0  0  0  0  0  0
  -15.1089   15.8204  -28.3919 N   0  0  0  0  0  0  0  0  0  0  0  0
  1  2  1  0  0  0
  2  3  2  0  0  0
  3  4  1  0  0  0
  4  5  2  0  0  0
  5  6  1  0  0  0
  6  7  2  0  0  0
  6  8  1  0  0  0
  8  9  3  0  0  0
  9 10  1  0  0  0
 10 11  2  0  0  0
 11 12  1  0  0  0
 12 13  2  0  0  0
 13 14  1  0  0  0
 14 15  2  0  0  0
  4 16  1  0  0  0
 16 17  3  0  0  0
  7  2  1  0  0  0
 15 10  1  0  0  0
M  END
> <minimizedAffinity>
-5.37467

> <CNNscore>
0.4899819195

> <CNNaffinity>
4.7463212013

> <CNN_VS>
2.3256115913

> <CNNaffinity_variance>
0.4328306317

$$$$
[H]c1c([H])c([H])c(C#Cc2c([H])c(F)c([H])c(C#N)c2[H])c([H])c1[H]


 17 18  0  0  0  0  0  0  0  0999 V2000
  -15.9023   10.8891  -20.5781 F   0  0  0  0  0  0  0  0  0  0  0  0
  -16.9587   10.9934  -19.7289 C   0  0  0  0  0  0  0  0  0  0  0  0
  -17.2171   10.0120  -18.7928 C   0  0  0  0  0  0  0  0  0  0  0  0
  -18.2868   10.1074  -17.9256 C   0  0  0  0  0  0  0  0  0  0  0  0
  -19.1455   11.2107  -17.9723 C   0  0  0  0  0  0  0  0  0  0  0  0
  -18.9002   12.1935  -18.8980 C   0  0  0  0  0  0  0  0  0  0  0  0
  -17.8226   12.0702  -19.7520 C   0  0  0  0  0  0  0  0  0  0  0  0
  -19.7854   13.3391  -18.9522 C   0  0  0  0  0  0  0  0  0  0  0  0
  -20.5263   14.2900  -19.0180 C   0  0  0  0  0  0  0  0  0  0  0  0
  -21.4011   15.4216  -19.1209 C   0  0  0  0  0  0  0  0  0  0  0  0
  -21.9380   15.9559  -17.9697 C   0  0  0  0  0  0  0  0  0  0  0  0
  -22.7966   17.0611  -18.0291 C   0  0  0  0  0  0  0  0  0  0  0  0
  -23.1034   17.6130  -19.2380 C   0  0  0  0  0  0  0  0  0  0  0  0
  -22.5796   17.0982  -20.4101 C   0  0  0  0  0  0  0  0  0  0  0  0
  -21.7322   16.0044  -20.3293 C   0  0  0  0  0  0  0  0  0  0  0  0
  -18.5041    9.0523  -16.9719 C   0  0  0  0  0  0  0  0  0  0  0  0
  -18.6892    8.1919  -16.2111 N   0  0  0  0  0  0  0  0  0  0  0  0
  1  2  1  0  0  0
  2  3  2  0  0  0
  3  4  1  0  0  0
  4  5  2  0  0  0
  5  6  1  0  0  0
  6  7  2  0  0  0
  6  8  1  0  0  0
  8  9  3  0  0  0
  9 10  1  0  0  0
 10 11  2  0  0  0
 11 12  1  0  0  0
 12 13  2  0  0  0
 13 14  1  0  0  0
 14 15  2  0  0  0
  4 16  1  0  0  0
 16 17  3  0  0  0
  7  2  1  0  0  0
 15 10  1  0  0  0
M  END
> <minimizedAffinity>
-5.77955

> <CNNscore>
0.4767876863

> <CNNaffinity>
4.8315877914

> <CNN_VS>
2.3036415577

> <CNNaffinity_variance>
0.1317650229

$$$$
[H]c1c([H])c([H])c(C#Cc2c([H])c(F)c([H])c(C#N)c2[H])c([H])c1[H]


 17 18  0  0  0  0  0  0  0  0999 V2000
  -15.3165    9.9717  -21.4904 F   0  0  0  0  0  0  0  0  0  0  0  0
  -16.3284   10.5477  -20.7886 C   0  0  0  0  0  0  0  0  0  0  0  0
  -16.8656   11.7577  -21.1804 C   0  0  0  0  0  0  0  0  0  0  0  0
  -17.8930   12.3517  -20.4754 C   0  0  0  0  0  0  0  0  0  0  0  0
  -18.4222   11.7384  -19.3350 C   0  0  0  0  0  0  0  0  0  0  0  0
  -17.8974   10.5353  -18.9345 C   0  0  0  0  0  0  0  0  0  0  0  0
  -16.8702    9.9658  -19.6598 C   0  0  0  0  0  0  0  0  0  0  0  0
  -18.4404    9.8942  -17.7542 C   0  0  0  0  0  0  0  0  0  0  0  0
  -18.8887    9.3411  -16.7793 C   0  0  0  0  0  0  0  0  0  0  0  0
  -19.4267    8.6637  -15.6355 C   0  0  0  0  0  0  0  0  0  0  0  0
  -20.3739    7.6814  -15.8270 C   0  0  0  0  0  0  0  0  0  0  0  0
  -20.9230    6.9972  -14.7350 C   0  0  0  0  0  0  0  0  0  0  0  0
  -20.5157    7.3066  -13.4708 C   0  0  0  0  0  0  0  0  0  0  0  0
  -19.5666    8.2878  -13.2478 C   0  0  0  0  0  0  0  0  0  0  0  0
  -19.0359    8.9528  -14.3420 C   0  0  0  0  0  0  0  0  0  0  0  0
  -18.4112   13.6133  -20.9334 C   0  0  0  0  0  0  0  0  0  0  0  0
  -18.8352   14.6265  -21.3168 N   0  0  0  0  0  0  0  0  0  0  0  0
  1  2  1  0  0  0
  2  3  2  0  0  0
  3  4  1  0  0  0
  4  5  2  0  0  0
  5  6  1  0  0  0
  6  7  2  0  0  0
  6  8  1  0  0  0
  8  9  3  0  0  0
  9 10  1  0  0  0
 10 11  2  0  0  0
 11 12  1  0  0  0
 12 13  2  0  0  0
 13 14  1  0  0  0
 14 15  2  0  0  0
  4 16  1  0  0  0
 16 17  3  0  0  0
  7  2  1  0  0  0
 15 10  1  0  0  0
M  END
> <minimizedAffinity>
-6.28241

> <CNNscore>
0.4187363386

> <CNNaffinity>
4.4656810760

> <CNN_VS>
1.8699429035

> <CNNaffinity_variance>
0.2935492992

$$$$
[H]c1c([H])c([H])c(C#Cc2c([H])c(F)c([H])c(C#N)c2[H])c([H])c1[H]


 17 18  0  0  0  0  0  0  0  0999 V2000
  -15.4848    9.8919  -21.1664 F   0  0  0  0  0  0  0  0  0  0  0  0
  -16.4488   10.7795  -20.8043 C   0  0  0  0  0  0  0  0  0  0  0  0
  -16.7229   11.8868  -21.5821 C   0  0  0  0  0  0  0  0  0  0  0  0
  -17.6993   12.7946  -21.2242 C   0  0  0  0  0  0  0  0  0  0  0  0
  -18.4438   12.6156  -20.0535 C   0  0  0  0  0  0  0  0  0  0  0  0
  -18.1815   11.5191  -19.2712 C   0  0  0  0  0  0  0  0  0  0  0  0
  -17.1989   10.6287  -19.6551 C   0  0  0  0  0  0  0  0  0  0  0  0
  -18.9485   11.3271  -18.0572 C   0  0  0  0  0  0  0  0  0  0  0  0
  -19.6050   11.1741  -17.0556 C   0  0  0  0  0  0  0  0  0  0  0  0
  -20.4009   11.0101  -15.8741 C   0  0  0  0  0  0  0  0  0  0  0  0
  -21.6355   10.4073  -15.9804 C   0  0  0  0  0  0  0  0  0  0  0  0
  -22.4422   10.2292  -14.8492 C   0  0  0  0  0  0  0  0  0  0  0  0
  -22.0009   10.6566  -13.6316 C   0  0  0  0  0  0  0  0  0  0  0  0
  -20.7663   11.2649  -13.4943 C   0  0  0  0  0  0  0  0  0  0  0  0
  -19.9836   11.4316  -14.6260 C   0  0  0  0  0  0  0  0  0  0  0  0
  -17.9388   13.9291  -22.0760 C   0  0  0  0  0  0  0  0  0  0  0  0
  -18.1461   14.8402  -22.7689 N   0  0  0  0  0  0  0  0  0  0  0  0
  1  2  1  0  0  0
  2  3  2  0  0  0
  3  4  1  0  0  0
  4  5  2  0  0  0
  5  6  1  0  0  0
  6  7  2  0  0  0
  6  8  1  0  0  0
  8  9  3  0  0  0
  9 10  1  0  0  0
 10 11  2  0  0  0
 11 12  1  0  0  0
 12 13  2  0  0  0
 13 14  1  0  0  0
 14 15  2  0  0  0
  4 16  1  0  0  0
 16 17  3  0  0  0
  7  2  1  0  0  0
 15 10  1  0  0  0
M  END
> <minimizedAffinity>
-6.26380

> <CNNscore>
0.4136417508

> <CNNaffinity>
4.5574007034

> <CNN_VS>
1.8851312399

> <CNNaffinity_variance>
0.2210033238

$$$$
[H]c1c([H])c([H])c(C#Cc2c([H])c(F)c([H])c(C#N)c2[H])c([H])c1[H]


 17 18  0  0  0  0  0  0  0  0999 V2000
  -16.1665   10.6517  -21.3715 F   0  0  0  0  0  0  0  0  0  0  0  0
  -16.9144   10.9728  -20.2826 C   0  0  0  0  0  0  0  0  0  0  0  0
  -17.3827    9.9939  -19.4290 C   0  0  0  0  0  0  0  0  0  0  0  0
  -18.1429   10.3082  -18.3205 C   0  0  0  0  0  0  0  0  0  0  0  0
  -18.4622   11.6388  -18.0296 C   0  0  0  0  0  0  0  0  0  0  0  0
  -18.0030   12.6217  -18.8698 C   0  0  0  0  0  0  0  0  0  0  0  0
  -17.2449   12.2765  -19.9707 C   0  0  0  0  0  0  0  0  0  0  0  0
  -18.3296   14.0021  -18.5749 C   0  0  0  0  0  0  0  0  0  0  0  0
  -18.5813   15.1563  -18.3262 C   0  0  0  0  0  0  0  0  0  0  0  0
  -18.8589   16.5287  -18.0169 C   0  0  0  0  0  0  0  0  0  0  0  0
  -18.8940   17.4491  -19.0419 C   0  0  0  0  0  0  0  0  0  0  0  0
  -19.1619   18.7988  -18.7800 C   0  0  0  0  0  0  0  0  0  0  0  0
  -19.3901   19.2050  -17.4982 C   0  0  0  0  0  0  0  0  0  0  0  0
  -19.3613   18.3040  -16.4492 C   0  0  0  0  0  0  0  0  0  0  0  0
  -19.0944   16.9732  -16.7299 C   0  0  0  0  0  0  0  0  0  0  0  0
  -18.6020    9.2437  -17.4684 C   0  0  0  0  0  0  0  0  0  0  0  0
  -18.9586    8.3777  -16.7784 N   0  0  0  0  0  0  0  0  0  0  0  0
  1  2  1  0  0  0
  2  3  2  0  0  0
  3  4  1  0  0  0
  4  5  2  0  0  0
  5  6  1  0  0  0
  6  7  2  0  0  0
  6  8  1  0  0  0
  8  9  3  0  0  0
  9 10  1  0  0  0
 10 11  2  0  0  0
 11 12  1  0  0  0
 12 13  2  0  0  0
 13 14  1  0  0  0
 14 15  2  0  0  0
  4 16  1  0  0  0
 16 17  3  0  0  0
  7  2  1  0  0  0
 15 10  1  0  0  0
M  END
> <minimizedAffinity>
-5.98883

> <CNNscore>
0.3921519518

> <CNNaffinity>
4.7497487068

> <CNN_VS>
1.8626232147

> <CNNaffinity_variance>
0.1957475245

$$$$
[H]O[C@@]1([H])C([H])([H])C(=O)[C@]([H])(C([H])([H])C([H])([H])[H])/C([H])=C(\C([H])([H])[H])C([H])([H])[C@]([H])(C([H])([H])[H])C([H])([H])[C@]([H])(OC([H])([H])[H])[C@@]2([H])O[C@@](O[H])(C(=O)C(=O)N3C([H])([H])C([H])([H])C([H])([H])C([H])([H])[C@@]3([H])C(=O)O[C@]([H])(/C(=C([H])/C(=C([H])/C([H])=C(\[H])C([H])([H])[H])C([H])([H])[H])C([H])([H])[H])[C@]1([H])C([H])([H])[H])[C@]([H])(C([H])([H])[H])C([H])([H])[C@]2([H])OC([H])([H])[H]


 55 57  0  0  0  0  0  0  0  0999 V2000
  -17.7771   11.0753  -19.0945 C   0  0  0  0  0  0  0  0  0  0  0  0
  -19.0591   10.9842  -18.4141 C   0  0  0  0  0  0  0  0  0  0  0  0
  -19.9225   11.8831  -18.0096 C   0  0  0  0  0  0  0  0  0  0  0  0
  -21.1889   11.3991  -17.3141 C   0  0  0  0  0  0  0  0  0  0  0  0
  -19.8486   13.3533  -18.1154 C   0  0  0  0  0  0  0  0  0  0  0  0
  -21.1623   13.9970  -18.5278 C   0  0  0  0  0  0  0  0  0  0  0  0
  -21.7319   13.3874  -19.7910 C   0  0  0  0  0  0  0  0  0  0  0  0
  -20.8330   15.4353  -18.8524 C   0  0  0  0  0  0  0  0  0  0  0  0
  -21.6144   16.3297  -17.8764 C   0  0  0  0  0  0  0  0  0  0  0  0
  -20.6494   17.4790  -17.5117 C   0  0  0  0  0  0  0  0  0  0  0  0
  -19.8720   17.6960  -18.6142 O   0  0  0  0  0  0  0  0  0  0  0  0
  -19.1421   18.8679  -18.5327 C   0  0  0  0  0  0  0  0  0  0  0  0
  -18.7016   18.9014  -17.1768 O   0  0  0  0  0  0  0  0  0  0  0  0
  -20.0965   20.0108  -18.6472 C   0  0  0  0  0  0  0  0  0  0  0  0
  -19.4168   21.3698  -18.6079 C   0  0  0  0  0  0  0  0  0  0  0  0
  -21.0515   19.9739  -17.4894 C   0  0  0  0  0  0  0  0  0  0  0  0
  -21.4429   18.6203  -17.0092 C   0  0  0  0  0  0  0  0  0  0  0  0
  -17.9992   18.8787  -19.4432 C   0  0  0  0  0  0  0  0  0  0  0  0
  -16.8530   18.6825  -18.8804 O   0  0  0  0  0  0  0  0  0  0  0  0
  -17.9365   19.0719  -20.8689 C   0  0  0  0  0  0  0  0  0  0  0  0
  -16.8089   19.5211  -21.3839 O   0  0  0  0  0  0  0  0  0  0  0  0
  -18.9101   18.8571  -21.8711 N   0  0  0  0  0  0  0  0  0  0  0  0
  -19.1461   19.9445  -22.8312 C   0  0  0  0  0  0  0  0  0  0  0  0
  -20.5710   20.3879  -22.7440 C   0  0  0  0  0  0  0  0  0  0  0  0
  -21.5664   19.2874  -22.7019 C   0  0  0  0  0  0  0  0  0  0  0  0
  -21.1713   18.0490  -21.9919 C   0  0  0  0  0  0  0  0  0  0  0  0
  -19.7078   17.6761  -22.0876 C   0  0  0  0  0  0  0  0  0  0  0  0
  -19.4621   16.9972  -23.3874 C   0  0  0  0  0  0  0  0  0  0  0  0
  -19.9351   17.5373  -24.4142 O   0  0  0  0  0  0  0  0  0  0  0  0
  -18.7506   15.8321  -23.4350 O   0  0  0  0  0  0  0  0  0  0  0  0
  -17.3849   15.6419  -23.0620 C   0  0  0  0  0  0  0  0  0  0  0  0
  -17.1185   14.3406  -22.3890 C   0  0  0  0  0  0  0  0  0  0  0  0
  -16.3639   13.3278  -23.1895 C   0  0  0  0  0  0  0  0  0  0  0  0
  -18.3436   13.7323  -21.7685 C   0  0  0  0  0  0  0  0  0  0  0  0
  -19.3386   13.6835  -22.7830 O   0  0  0  0  0  0  0  0  0  0  0  0
  -18.1252   12.3313  -21.3462 C   0  0  0  0  0  0  0  0  0  0  0  0
  -17.4812   12.1142  -20.0416 C   0  0  0  0  0  0  0  0  0  0  0  0
  -16.5826   12.9249  -19.7371 O   0  0  0  0  0  0  0  0  0  0  0  0
  -18.1078   19.6474  -16.9939 H   0  0  0  0  0  0  0  0  0  0  0  0
  -19.1040   13.0368  -23.4728 H   0  0  0  0  0  0  0  0  0  0  0  0
  -16.6500   15.7391  -24.3774 C   0  0  0  0  0  0  0  0  0  0  0  0
  -15.2484   16.1795  -24.4416 C   0  0  0  0  0  0  0  0  0  0  0  0
  -17.2564   15.3678  -25.4811 C   0  0  0  0  0  0  0  0  0  0  0  0
  -16.7319   15.3869  -26.8293 C   0  0  0  0  0  0  0  0  0  0  0  0
  -17.3035   16.0026  -28.0226 C   0  0  0  0  0  0  0  0  0  0  0  0
  -15.5785   14.7163  -27.0073 C   0  0  0  0  0  0  0  0  0  0  0  0
  -14.8462   14.5785  -28.2280 C   0  0  0  0  0  0  0  0  0  0  0  0
  -14.8869   13.3999  -28.8755 C   0  0  0  0  0  0  0  0  0  0  0  0
  -14.1360   13.2480  -30.1336 C   0  0  0  0  0  0  0  0  0  0  0  0
  -16.8870    8.7317  -18.7441 C   0  0  0  0  0  0  0  0  0  0  0  0
  -17.3770    9.7277  -19.7254 C   0  0  0  0  0  0  0  0  0  0  0  0
  -22.7465   16.7785  -18.5058 O   0  0  0  0  0  0  0  0  0  0  0  0
  -23.9268   16.1921  -18.1356 C   0  0  0  0  0  0  0  0  0  0  0  0
  -21.3017   18.6546  -15.5984 O   0  0  0  0  0  0  0  0  0  0  0  0
  -20.5528   19.7126  -15.1518 C   0  0  0  0  0  0  0  0  0  0  0  0
 50 51  1  0  0  0
 51  1  1  0  0  0
  1  2  1  0  0  0
  2  3  2  0  0  0
  3  4  1  0  0  0
  3  5  1  0  0  0
  5  6  1  0  0  0
  6  7  1  0  0  0
  6  8  1  0  0  0
  8  9  1  0  0  0
  9 52  1  0  0  0
 52 53  1  0  0  0
  9 10  1  0  0  0
 10 11  1  0  0  0
 11 12  1  0  0  0
 12 13  1  0  0  0
 12 14  1  0  0  0
 14 15  1  0  0  0
 14 16  1  0  0  0
 16 17  1  0  0  0
 17 54  1  0  0  0
 54 55  1  0  0  0
 12 18  1  0  0  0
 18 19  2  0  0  0
 18 20  1  0  0  0
 20 21  2  0  0  0
 20 22  1  0  0  0
 22 23  1  0  0  0
 23 24  1  0  0  0
 24 25  1  0  0  0
 25 26  1  0  0  0
 26 27  1  0  0  0
 27 28  1  0  0  0
 28 29  2  0  0  0
 28 30  1  0  0  0
 30 31  1  0  0  0
 31 32  1  0  0  0
 32 33  1  0  0  0
 32 34  1  0  0  0
 34 35  1  0  0  0
 34 36  1  0  0  0
 36 37  1  0  0  0
 37 38  2  0  0  0
 31 41  1  0  0  0
 41 42  1  0  0  0
 41 43  2  0  0  0
 43 44  1  0  0  0
 44 45  1  0  0  0
 44 46  2  0  0  0
 46 47  1  0  0  0
 47 48  2  0  0  0
 48 49  1  0  0  0
 37  1  1  0  0  0
 17 10  1  0  0  0
 27 22  1  0  0  0
 13 39  1  0  0  0
 35 40  1  0  0  0
M  END
> <minimizedAffinity>
8.55106

> <CNNscore>
0.4044781625

> <CNNaffinity>
7.7632460594

> <CNN_VS>
3.1400635242

> <CNNaffinity_variance>
1.5400820971

$$$$
[H]O[C@@]1([H])C([H])([H])C(=O)[C@]([H])(C([H])([H])C([H])([H])[H])/C([H])=C(\C([H])([H])[H])C([H])([H])[C@]([H])(C([H])([H])[H])C([H])([H])[C@]([H])(OC([H])([H])[H])[C@@]2([H])O[C@@](O[H])(C(=O)C(=O)N3C([H])([H])C([H])([H])C([H])([H])C([H])([H])[C@@]3([H])C(=O)O[C@]([H])(/C(=C([H])/C(=C([H])/C([H])=C(\[H])C([H])([H])[H])C([H])([H])[H])C([H])([H])[H])[C@]1([H])C([H])([H])[H])[C@]([H])(C([H])([H])[H])C([H])([H])[C@]2([H])OC([H])([H])[H]


 55 57  0  0  0  0  0  0  0  0999 V2000
  -22.8658   15.5040  -17.8537 C   0  0  0  0  0  0  0  0  0  0  0  0
  -21.9031   14.9521  -16.9138 C   0  0  0  0  0  0  0  0  0  0  0  0
  -20.7568   14.3358  -17.0664 C   0  0  0  0  0  0  0  0  0  0  0  0
  -20.0103   13.8897  -15.8152 C   0  0  0  0  0  0  0  0  0  0  0  0
  -20.0544   13.9799  -18.3146 C   0  0  0  0  0  0  0  0  0  0  0  0
  -18.5581   14.2416  -18.2626 C   0  0  0  0  0  0  0  0  0  0  0  0
  -18.2346   15.6589  -17.8401 C   0  0  0  0  0  0  0  0  0  0  0  0
  -18.0632   14.0901  -19.6820 C   0  0  0  0  0  0  0  0  0  0  0  0
  -17.0573   12.9280  -19.7091 C   0  0  0  0  0  0  0  0  0  0  0  0
  -17.3334   12.1778  -21.0304 C   0  0  0  0  0  0  0  0  0  0  0  0
  -17.7519   13.1180  -21.9291 O   0  0  0  0  0  0  0  0  0  0  0  0
  -17.7827   12.6420  -23.2272 C   0  0  0  0  0  0  0  0  0  0  0  0
  -18.3023   11.3208  -23.0935 O   0  0  0  0  0  0  0  0  0  0  0  0
  -16.3721   12.4485  -23.6776 C   0  0  0  0  0  0  0  0  0  0  0  0
  -16.2593   11.9575  -25.1117 C   0  0  0  0  0  0  0  0  0  0  0  0
  -15.7169   11.4094  -22.8145 C   0  0  0  0  0  0  0  0  0  0  0  0
  -16.1342   11.3901  -21.3857 C   0  0  0  0  0  0  0  0  0  0  0  0
  -18.6406   13.4444  -24.0963 C   0  0  0  0  0  0  0  0  0  0  0  0
  -19.7834   12.9109  -24.3762 O   0  0  0  0  0  0  0  0  0  0  0  0
  -18.4248   14.7363  -24.6953 C   0  0  0  0  0  0  0  0  0  0  0  0
  -19.0926   15.0288  -25.7938 O   0  0  0  0  0  0  0  0  0  0  0  0
  -17.5868   15.8049  -24.3027 N   0  0  0  0  0  0  0  0  0  0  0  0
  -16.7147   16.3945  -25.3283 C   0  0  0  0  0  0  0  0  0  0  0  0
  -15.2860   16.2490  -24.9135 C   0  0  0  0  0  0  0  0  0  0  0  0
  -15.0076   16.5993  -23.4980 C   0  0  0  0  0  0  0  0  0  0  0  0
  -16.0624   16.2856  -22.5066 C   0  0  0  0  0  0  0  0  0  0  0  0
  -17.4869   16.4155  -23.0008 C   0  0  0  0  0  0  0  0  0  0  0  0
  -17.8882   17.8466  -22.9597 C   0  0  0  0  0  0  0  0  0  0  0  0
  -17.0865   18.6804  -23.4416 O   0  0  0  0  0  0  0  0  0  0  0  0
  -19.0841   18.2137  -22.4112 O   0  0  0  0  0  0  0  0  0  0  0  0
  -20.3878   17.8470  -22.8655 C   0  0  0  0  0  0  0  0  0  0  0  0
  -21.3609   17.5945  -21.7670 C   0  0  0  0  0  0  0  0  0  0  0  0
  -22.4257   18.6277  -21.5804 C   0  0  0  0  0  0  0  0  0  0  0  0
  -20.7043   17.2558  -20.4594 C   0  0  0  0  0  0  0  0  0  0  0  0
  -19.7616   18.2862  -20.1924 O   0  0  0  0  0  0  0  0  0  0  0  0
  -21.6577   17.2746  -19.3283 C   0  0  0  0  0  0  0  0  0  0  0  0
  -22.4725   16.0686  -19.1148 C   0  0  0  0  0  0  0  0  0  0  0  0
  -22.8584   15.4831  -20.1471 O   0  0  0  0  0  0  0  0  0  0  0  0
  -18.4474   10.8866  -23.9496 H   0  0  0  0  0  0  0  0  0  0  0  0
  -20.2099   19.1284  -19.9954 H   0  0  0  0  0  0  0  0  0  0  0  0
  -20.8061   19.0287  -23.7072 C   0  0  0  0  0  0  0  0  0  0  0  0
  -20.0371   20.2822  -23.7045 C   0  0  0  0  0  0  0  0  0  0  0  0
  -21.8450   18.9158  -24.5020 C   0  0  0  0  0  0  0  0  0  0  0  0
  -22.4036   19.9226  -25.3779 C   0  0  0  0  0  0  0  0  0  0  0  0
  -23.1198   21.1443  -25.0249 C   0  0  0  0  0  0  0  0  0  0  0  0
  -22.2712   19.6770  -26.6947 C   0  0  0  0  0  0  0  0  0  0  0  0
  -22.7254   20.5021  -27.7710 C   0  0  0  0  0  0  0  0  0  0  0  0
  -23.2453   19.9112  -28.8621 C   0  0  0  0  0  0  0  0  0  0  0  0
  -23.7158   20.7524  -29.9760 C   0  0  0  0  0  0  0  0  0  0  0  0
  -25.0761   16.7362  -17.9136 C   0  0  0  0  0  0  0  0  0  0  0  0
  -23.8206   16.4975  -17.1641 C   0  0  0  0  0  0  0  0  0  0  0  0
  -15.7892   13.4465  -19.6584 O   0  0  0  0  0  0  0  0  0  0  0  0
  -15.5172   14.4847  -20.5084 C   0  0  0  0  0  0  0  0  0  0  0  0
  -16.4053   10.0320  -21.0802 O   0  0  0  0  0  0  0  0  0  0  0  0
  -17.3422    9.8729  -20.0920 C   0  0  0  0  0  0  0  0  0  0  0  0
 50 51  1  0  0  0
 51  1  1  0  0  0
  1  2  1  0  0  0
  2  3  2  0  0  0
  3  4  1  0  0  0
  3  5  1  0  0  0
  5  6  1  0  0  0
  6  7  1  0  0  0
  6  8  1  0  0  0
  8  9  1  0  0  0
  9 52  1  0  0  0
 52 53  1  0  0  0
  9 10  1  0  0  0
 10 11  1  0  0  0
 11 12  1  0  0  0
 12 13  1  0  0  0
 12 14  1  0  0  0
 14 15  1  0  0  0
 14 16  1  0  0  0
 16 17  1  0  0  0
 17 54  1  0  0  0
 54 55  1  0  0  0
 12 18  1  0  0  0
 18 19  2  0  0  0
 18 20  1  0  0  0
 20 21  2  0  0  0
 20 22  1  0  0  0
 22 23  1  0  0  0
 23 24  1  0  0  0
 24 25  1  0  0  0
 25 26  1  0  0  0
 26 27  1  0  0  0
 27 28  1  0  0  0
 28 29  2  0  0  0
 28 30  1  0  0  0
 30 31  1  0  0  0
 31 32  1  0  0  0
 32 33  1  0  0  0
 32 34  1  0  0  0
 34 35  1  0  0  0
 34 36  1  0  0  0
 36 37  1  0  0  0
 37 38  2  0  0  0
 31 41  1  0  0  0
 41 42  1  0  0  0
 41 43  2  0  0  0
 43 44  1  0  0  0
 44 45  1  0  0  0
 44 46  2  0  0  0
 46 47  1  0  0  0
 47 48  2  0  0  0
 48 49  1  0  0  0
 37  1  1  0  0  0
 17 10  1  0  0  0
 27 22  1  0  0  0
 13 39  1  0  0  0
 35 40  1  0  0  0
M  END
> <minimizedAffinity>
14.95711

> <CNNscore>
0.4028410614

> <CNNaffinity>
7.5162801743

> <CNN_VS>
3.0278663635

> <CNNaffinity_variance>
0.7213813066

$$$$
[H]O[C@@]1([H])C([H])([H])C(=O)[C@]([H])(C([H])([H])C([H])([H])[H])/C([H])=C(\C([H])([H])[H])C([H])([H])[C@]([H])(C([H])([H])[H])C([H])([H])[C@]([H])(OC([H])([H])[H])[C@@]2([H])O[C@@](O[H])(C(=O)C(=O)N3C([H])([H])C([H])([H])C([H])([H])C([H])([H])[C@@]3([H])C(=O)O[C@]([H])(/C(=C([H])/C(=C([H])/C([H])=C(\[H])C([H])([H])[H])C([H])([H])[H])C([H])([H])[H])[C@]1([H])C([H])([H])[H])[C@]([H])(C([H])([H])[H])C([H])([H])[C@]2([H])OC([H])([H])[H]


 55 57  0  0  0  0  0  0  0  0999 V2000
  -23.0291   15.8491  -17.3769 C   0  0  0  0  0  0  0  0  0  0  0  0
  -22.2187   15.2585  -16.3237 C   0  0  0  0  0  0  0  0  0  0  0  0
  -21.1546   14.4940  -16.3367 C   0  0  0  0  0  0  0  0  0  0  0  0
  -20.5669   14.0599  -14.9995 C   0  0  0  0  0  0  0  0  0  0  0  0
  -20.4147   13.9544  -17.4941 C   0  0  0  0  0  0  0  0  0  0  0  0
  -18.9049   14.0307  -17.3361 C   0  0  0  0  0  0  0  0  0  0  0  0
  -18.4311   15.4259  -16.9884 C   0  0  0  0  0  0  0  0  0  0  0  0
  -18.3309   13.7055  -18.6952 C   0  0  0  0  0  0  0  0  0  0  0  0
  -17.4861   12.4287  -18.5569 C   0  0  0  0  0  0  0  0  0  0  0  0
  -17.7597   11.6152  -19.8408 C   0  0  0  0  0  0  0  0  0  0  0  0
  -17.9846   12.5253  -20.8349 O   0  0  0  0  0  0  0  0  0  0  0  0
  -17.9816   11.9543  -22.0946 C   0  0  0  0  0  0  0  0  0  0  0  0
  -18.6777   10.7231  -21.9123 O   0  0  0  0  0  0  0  0  0  0  0  0
  -16.5791   11.5509  -22.4112 C   0  0  0  0  0  0  0  0  0  0  0  0
  -16.4260   10.9364  -23.7930 C   0  0  0  0  0  0  0  0  0  0  0  0
  -16.1305   10.5108  -21.4258 C   0  0  0  0  0  0  0  0  0  0  0  0
  -16.6508   10.6583  -20.0389 C   0  0  0  0  0  0  0  0  0  0  0  0
  -18.6610   12.7852  -23.0861 C   0  0  0  0  0  0  0  0  0  0  0  0
  -19.8399   12.3775  -23.4222 O   0  0  0  0  0  0  0  0  0  0  0  0
  -18.2348   13.9878  -23.7541 C   0  0  0  0  0  0  0  0  0  0  0  0
  -18.7758   14.2723  -24.9222 O   0  0  0  0  0  0  0  0  0  0  0  0
  -17.2955   14.9716  -23.3689 N   0  0  0  0  0  0  0  0  0  0  0  0
  -16.2808   15.3638  -24.3571 C   0  0  0  0  0  0  0  0  0  0  0  0
  -14.9178   15.0750  -23.8155 C   0  0  0  0  0  0  0  0  0  0  0  0
  -14.7010   15.5002  -22.4098 C   0  0  0  0  0  0  0  0  0  0  0  0
  -15.8579   15.4009  -21.4902 C   0  0  0  0  0  0  0  0  0  0  0  0
  -17.2129   15.6673  -22.1092 C   0  0  0  0  0  0  0  0  0  0  0  0
  -17.4258   17.1360  -22.2020 C   0  0  0  0  0  0  0  0  0  0  0  0
  -16.4888   17.8220  -22.6727 O   0  0  0  0  0  0  0  0  0  0  0  0
  -18.6007   17.6921  -21.7821 O   0  0  0  0  0  0  0  0  0  0  0  0
  -19.9041   17.4556  -22.3166 C   0  0  0  0  0  0  0  0  0  0  0  0
  -20.9801   17.4152  -21.2881 C   0  0  0  0  0  0  0  0  0  0  0  0
  -21.9116   18.5847  -21.2636 C   0  0  0  0  0  0  0  0  0  0  0  0
  -20.4714   17.1031  -19.9098 C   0  0  0  0  0  0  0  0  0  0  0  0
  -19.4245   18.0260  -19.6380 O   0  0  0  0  0  0  0  0  0  0  0  0
  -21.4949   17.3313  -18.8661 C   0  0  0  0  0  0  0  0  0  0  0  0
  -22.4737   16.2573  -18.6373 C   0  0  0  0  0  0  0  0  0  0  0  0
  -22.8556   15.6437  -19.6546 O   0  0  0  0  0  0  0  0  0  0  0  0
  -18.8148   10.2433  -22.7450 H   0  0  0  0  0  0  0  0  0  0  0  0
  -19.7722   18.9306  -19.5386 H   0  0  0  0  0  0  0  0  0  0  0  0
  -20.1013   18.6089  -23.2710 C   0  0  0  0  0  0  0  0  0  0  0  0
  -18.9729   19.4461  -23.7051 C   0  0  0  0  0  0  0  0  0  0  0  0
  -21.2951   18.8339  -23.7688 C   0  0  0  0  0  0  0  0  0  0  0  0
  -21.6889   19.8800  -24.6874 C   0  0  0  0  0  0  0  0  0  0  0  0
  -21.8706   21.3042  -24.4255 C   0  0  0  0  0  0  0  0  0  0  0  0
  -21.9547   19.4732  -25.9426 C   0  0  0  0  0  0  0  0  0  0  0  0
  -22.3580   20.2934  -27.0427 C   0  0  0  0  0  0  0  0  0  0  0  0
  -23.2628   19.8078  -27.9120 C   0  0  0  0  0  0  0  0  0  0  0  0
  -23.6845   20.6448  -29.0483 C   0  0  0  0  0  0  0  0  0  0  0  0
  -23.1791   18.3014  -16.7677 C   0  0  0  0  0  0  0  0  0  0  0  0
  -23.8942   17.0059  -16.8406 C   0  0  0  0  0  0  0  0  0  0  0  0
  -16.1683   12.7874  -18.4372 O   0  0  0  0  0  0  0  0  0  0  0  0
  -15.6446   13.5435  -19.4512 C   0  0  0  0  0  0  0  0  0  0  0  0
  -17.1188    9.3734  -19.6627 O   0  0  0  0  0  0  0  0  0  0  0  0
  -18.0549    9.4067  -18.6616 C   0  0  0  0  0  0  0  0  0  0  0  0
 50 51  1  0  0  0
 51  1  1  0  0  0
  1  2  1  0  0  0
  2  3  2  0  0  0
  3  4  1  0  0  0
  3  5  1  0  0  0
  5  6  1  0  0  0
  6  7  1  0  0  0
  6  8  1  0  0  0
  8  9  1  0  0  0
  9 52  1  0  0  0
 52 53  1  0  0  0
  9 10  1  0  0  0
 10 11  1  0  0  0
 11 12  1  0  0  0
 12 13  1  0  0  0
 12 14  1  0  0  0
 14 15  1  0  0  0
 14 16  1  0  0  0
 16 17  1  0  0  0
 17 54  1  0  0  0
 54 55  1  0  0  0
 12 18  1  0  0  0
 18 19  2  0  0  0
 18 20  1  0  0  0
 20 21  2  0  0  0
 20 22  1  0  0  0
 22 23  1  0  0  0
 23 24  1  0  0  0
 24 25  1  0  0  0
 25 26  1  0  0  0
 26 27  1  0  0  0
 27 28  1  0  0  0
 28 29  2  0  0  0
 28 30  1  0  0  0
 30 31  1  0  0  0
 31 32  1  0  0  0
 32 33  1  0  0  0
 32 34  1  0  0  0
 34 35  1  0  0  0
 34 36  1  0  0  0
 36 37  1  0  0  0
 37 38  2  0  0  0
 31 41  1  0  0  0
 41 42  1  0  0  0
 41 43  2  0  0  0
 43 44  1  0  0  0
 44 45  1  0  0  0
 44 46  2  0  0  0
 46 47  1  0  0  0
 47 48  2  0  0  0
 48 49  1  0  0  0
 37  1  1  0  0  0
 17 10  1  0  0  0
 27 22  1  0  0  0
 13 39  1  0  0  0
 35 40  1  0  0  0
M  END
> <minimizedAffinity>
16.29317

> <CNNscore>
0.3992984593

> <CNNaffinity>
7.3273077011

> <CNN_VS>
2.9257826805

> <CNNaffinity_variance>
0.7975789309

$$$$
[H]O[C@@]1([H])C([H])([H])C(=O)[C@]([H])(C([H])([H])C([H])([H])[H])/C([H])=C(\C([H])([H])[H])C([H])([H])[C@]([H])(C([H])([H])[H])C([H])([H])[C@]([H])(OC([H])([H])[H])[C@@]2([H])O[C@@](O[H])(C(=O)C(=O)N3C([H])([H])C([H])([H])C([H])([H])C([H])([H])[C@@]3([H])C(=O)O[C@]([H])(/C(=C([H])/C(=C([H])/C([H])=C(\[H])C([H])([H])[H])C([H])([H])[H])C([H])([H])[H])[C@]1([H])C([H])([H])[H])[C@]([H])(C([H])([H])[H])C([H])([H])[C@]2([H])OC([H])([H])[H]


 55 57  0  0  0  0  0  0  0  0999 V2000
  -21.0047   10.9781  -17.0809 C   0  0  0  0  0  0  0  0  0  0  0  0
  -19.7687   10.2762  -16.7736 C   0  0  0  0  0  0  0  0  0  0  0  0
  -18.6312   10.1478  -17.4113 C   0  0  0  0  0  0  0  0  0  0  0  0
  -17.5352    9.3119  -16.7615 C   0  0  0  0  0  0  0  0  0  0  0  0
  -18.2357   10.6986  -18.7221 C   0  0  0  0  0  0  0  0  0  0  0  0
  -16.8237   11.2607  -18.7412 C   0  0  0  0  0  0  0  0  0  0  0  0
  -16.5879   12.2658  -17.6338 C   0  0  0  0  0  0  0  0  0  0  0  0
  -16.6976   12.0154  -20.0438 C   0  0  0  0  0  0  0  0  0  0  0  0
  -15.5914   11.3431  -20.8730 C   0  0  0  0  0  0  0  0  0  0  0  0
  -16.1005   11.3663  -22.3308 C   0  0  0  0  0  0  0  0  0  0  0  0
  -16.8553   12.4981  -22.4591 O   0  0  0  0  0  0  0  0  0  0  0  0
  -17.1590   12.7930  -23.7757 C   0  0  0  0  0  0  0  0  0  0  0  0
  -17.4510   11.5213  -24.3511 O   0  0  0  0  0  0  0  0  0  0  0  0
  -15.9002   13.2312  -24.4490 C   0  0  0  0  0  0  0  0  0  0  0  0
  -16.0998   13.6224  -25.9043 C   0  0  0  0  0  0  0  0  0  0  0  0
  -14.9154   12.0981  -24.4394 C   0  0  0  0  0  0  0  0  0  0  0  0
  -14.9427   11.2198  -23.2378 C   0  0  0  0  0  0  0  0  0  0  0  0
  -18.3088   13.6865  -23.8971 C   0  0  0  0  0  0  0  0  0  0  0  0
  -19.4062   13.1143  -24.2677 O   0  0  0  0  0  0  0  0  0  0  0  0
  -18.4242   15.1042  -23.6714 C   0  0  0  0  0  0  0  0  0  0  0  0
  -19.3854   15.7546  -24.2970 O   0  0  0  0  0  0  0  0  0  0  0  0
  -17.6585   15.9729  -22.8605 N   0  0  0  0  0  0  0  0  0  0  0  0
  -17.1652   17.2140  -23.4740 C   0  0  0  0  0  0  0  0  0  0  0  0
  -15.6714   17.2372  -23.4236 C   0  0  0  0  0  0  0  0  0  0  0  0
  -15.0840   16.8409  -22.1191 C   0  0  0  0  0  0  0  0  0  0  0  0
  -15.7968   15.7951  -21.3495 C   0  0  0  0  0  0  0  0  0  0  0  0
  -17.3050   15.8024  -21.4735 C   0  0  0  0  0  0  0  0  0  0  0  0
  -17.8635   16.8377  -20.5642 C   0  0  0  0  0  0  0  0  0  0  0  0
  -17.3286   17.9705  -20.5888 O   0  0  0  0  0  0  0  0  0  0  0  0
  -18.9139   16.5422  -19.7425 O   0  0  0  0  0  0  0  0  0  0  0  0
  -20.2320   16.1569  -20.1356 C   0  0  0  0  0  0  0  0  0  0  0  0
  -20.8468   15.1245  -19.2561 C   0  0  0  0  0  0  0  0  0  0  0  0
  -21.9513   15.5931  -18.3636 C   0  0  0  0  0  0  0  0  0  0  0  0
  -19.8361   14.3231  -18.4866 C   0  0  0  0  0  0  0  0  0  0  0  0
  -18.9979   15.2538  -17.8137 O   0  0  0  0  0  0  0  0  0  0  0  0
  -20.4586   13.4980  -17.4280 C   0  0  0  0  0  0  0  0  0  0  0  0
  -21.0275   12.2028  -17.8314 C   0  0  0  0  0  0  0  0  0  0  0  0
  -21.5882   12.1786  -18.9460 O   0  0  0  0  0  0  0  0  0  0  0  0
  -17.7553   11.5869  -25.2707 H   0  0  0  0  0  0  0  0  0  0  0  0
  -19.4848   15.7179  -17.1091 H   0  0  0  0  0  0  0  0  0  0  0  0
  -21.0029   17.4539  -20.0797 C   0  0  0  0  0  0  0  0  0  0  0  0
  -20.9898   18.3022  -18.8785 C   0  0  0  0  0  0  0  0  0  0  0  0
  -21.6522   17.8620  -21.1454 C   0  0  0  0  0  0  0  0  0  0  0  0
  -22.4456   19.0626  -21.2935 C   0  0  0  0  0  0  0  0  0  0  0  0
  -22.5581   20.2002  -20.3862 C   0  0  0  0  0  0  0  0  0  0  0  0
  -23.2056   19.1166  -22.4031 C   0  0  0  0  0  0  0  0  0  0  0  0
  -24.0757   20.1817  -22.7957 C   0  0  0  0  0  0  0  0  0  0  0  0
  -24.4321   20.2801  -24.0893 C   0  0  0  0  0  0  0  0  0  0  0  0
  -25.3278   21.3736  -24.5036 C   0  0  0  0  0  0  0  0  0  0  0  0
  -21.6329   12.4662  -15.1319 C   0  0  0  0  0  0  0  0  0  0  0  0
  -21.8688   11.1757  -15.8205 C   0  0  0  0  0  0  0  0  0  0  0  0
  -14.4314   12.0562  -20.7138 O   0  0  0  0  0  0  0  0  0  0  0  0
  -14.1751   13.0254  -21.6461 C   0  0  0  0  0  0  0  0  0  0  0  0
  -14.9477    9.8900  -23.7307 O   0  0  0  0  0  0  0  0  0  0  0  0
  -15.5760    9.0024  -22.8959 C   0  0  0  0  0  0  0  0  0  0  0  0
 50 51  1  0  0  0
 51  1  1  0  0  0
  1  2  1  0  0  0
  2  3  2  0  0  0
  3  4  1  0  0  0
  3  5  1  0  0  0
  5  6  1  0  0  0
  6  7  1  0  0  0
  6  8  1  0  0  0
  8  9  1  0  0  0
  9 52  1  0  0  0
 52 53  1  0  0  0
  9 10  1  0  0  0
 10 11  1  0  0  0
 11 12  1  0  0  0
 12 13  1  0  0  0
 12 14  1  0  0  0
 14 15  1  0  0  0
 14 16  1  0  0  0
 16 17  1  0  0  0
 17 54  1  0  0  0
 54 55  1  0  0  0
 12 18  1  0  0  0
 18 19  2  0  0  0
 18 20  1  0  0  0
 20 21  2  0  0  0
 20 22  1  0  0  0
 22 23  1  0  0  0
 23 24  1  0  0  0
 24 25  1  0  0  0
 25 26  1  0  0  0
 26 27  1  0  0  0
 27 28  1  0  0  0
 28 29  2  0  0  0
 28 30  1  0  0  0
 30 31  1  0  0  0
 31 32  1  0  0  0
 32 33  1  0  0  0
 32 34  1  0  0  0
 34 35  1  0  0  0
 34 36  1  0  0  0
 36 37  1  0  0  0
 37 38  2  0  0  0
 31 41  1  0  0  0
 41 42  1  0  0  0
 41 43  2  0  0  0
 43 44  1  0  0  0
 44 45  1  0  0  0
 44 46  2  0  0  0
 46 47  1  0  0  0
 47 48  2  0  0  0
 48 49  1  0  0  0
 37  1  1  0  0  0
 17 10  1  0  0  0
 27 22  1  0  0  0
 13 39  1  0  0  0
 35 40  1  0  0  0
M  END
> <minimizedAffinity>
19.55263

> <CNNscore>
0.3842455447

> <CNNaffinity>
7.3136968613

> <CNN_VS>
2.8102555275

> <CNNaffinity_variance>
0.5417089462

$$$$
[H]O[C@@]1([H])C([H])([H])C(=O)[C@]([H])(C([H])([H])C([H])([H])[H])/C([H])=C(\C([H])([H])[H])C([H])([H])[C@]([H])(C([H])([H])[H])C([H])([H])[C@]([H])(OC([H])([H])[H])[C@@]2([H])O[C@@](O[H])(C(=O)C(=O)N3C([H])([H])C([H])([H])C([H])([H])C([H])([H])[C@@]3([H])C(=O)O[C@]([H])(/C(=C([H])/C(=C([H])/C([H])=C(\[H])C([H])([H])[H])C([H])([H])[H])C([H])([H])[H])[C@]1([H])C([H])([H])[H])[C@]([H])(C([H])([H])[H])C([H])([H])[C@]2([H])OC([H])([H])[H]


 55 57  0  0  0  0  0  0  0  0999 V2000
  -23.3303   20.8734  -19.6337 C   0  0  0  0  0  0  0  0  0  0  0  0
  -23.5698   20.7904  -21.0657 C   0  0  0  0  0  0  0  0  0  0  0  0
  -22.9213   20.2161  -22.0489 C   0  0  0  0  0  0  0  0  0  0  0  0
  -23.4897   20.3478  -23.4565 C   0  0  0  0  0  0  0  0  0  0  0  0
  -21.6661   19.4412  -22.0041 C   0  0  0  0  0  0  0  0  0  0  0  0
  -21.6967   18.1894  -22.8656 C   0  0  0  0  0  0  0  0  0  0  0  0
  -22.8914   17.3101  -22.5632 C   0  0  0  0  0  0  0  0  0  0  0  0
  -20.4687   17.3961  -22.4844 C   0  0  0  0  0  0  0  0  0  0  0  0
  -19.5795   17.2749  -23.7326 C   0  0  0  0  0  0  0  0  0  0  0  0
  -18.1308   17.4286  -23.2201 C   0  0  0  0  0  0  0  0  0  0  0  0
  -18.1083   16.9016  -21.9597 O   0  0  0  0  0  0  0  0  0  0  0  0
  -16.8249   16.7269  -21.4749 C   0  0  0  0  0  0  0  0  0  0  0  0
  -16.1354   17.8983  -21.9060 O   0  0  0  0  0  0  0  0  0  0  0  0
  -16.1928   15.6133  -22.2434 C   0  0  0  0  0  0  0  0  0  0  0  0
  -14.7800   15.2905  -21.7848 C   0  0  0  0  0  0  0  0  0  0  0  0
  -16.0966   16.0045  -23.6897 C   0  0  0  0  0  0  0  0  0  0  0  0
  -17.2124   16.8375  -24.2161 C   0  0  0  0  0  0  0  0  0  0  0  0
  -16.7880   16.6173  -20.0183 C   0  0  0  0  0  0  0  0  0  0  0  0
  -16.3679   17.6730  -19.4035 O   0  0  0  0  0  0  0  0  0  0  0  0
  -17.1432   15.5250  -19.1496 C   0  0  0  0  0  0  0  0  0  0  0  0
  -16.5816   15.4737  -17.9578 O   0  0  0  0  0  0  0  0  0  0  0  0
  -18.0295   14.4416  -19.3477 N   0  0  0  0  0  0  0  0  0  0  0  0
  -17.5320   13.0936  -19.0386 C   0  0  0  0  0  0  0  0  0  0  0  0
  -17.5820   12.2477  -20.2701 C   0  0  0  0  0  0  0  0  0  0  0  0
  -18.8436   12.3478  -21.0460 C   0  0  0  0  0  0  0  0  0  0  0  0
  -19.5148   13.6679  -21.0728 C   0  0  0  0  0  0  0  0  0  0  0  0
  -19.3944   14.4911  -19.8086 C   0  0  0  0  0  0  0  0  0  0  0  0
  -20.3959   14.0133  -18.8189 C   0  0  0  0  0  0  0  0  0  0  0  0
  -20.4748   12.7763  -18.6353 O   0  0  0  0  0  0  0  0  0  0  0  0
  -21.1885   14.9040  -18.1525 O   0  0  0  0  0  0  0  0  0  0  0  0
  -20.7637   15.9261  -17.2495 C   0  0  0  0  0  0  0  0  0  0  0  0
  -21.5455   17.1889  -17.3560 C   0  0  0  0  0  0  0  0  0  0  0  0
  -22.4789   17.4826  -16.2253 C   0  0  0  0  0  0  0  0  0  0  0  0
  -22.2364   17.3485  -18.6800 C   0  0  0  0  0  0  0  0  0  0  0  0
  -22.9908   16.1630  -18.8969 O   0  0  0  0  0  0  0  0  0  0  0  0
  -23.2156   18.4576  -18.6747 C   0  0  0  0  0  0  0  0  0  0  0  0
  -22.6956   19.8155  -18.8976 C   0  0  0  0  0  0  0  0  0  0  0  0
  -21.5844   20.0630  -18.3865 O   0  0  0  0  0  0  0  0  0  0  0  0
  -15.2262   17.9437  -21.5685 H   0  0  0  0  0  0  0  0  0  0  0  0
  -23.7358   16.1028  -18.2721 H   0  0  0  0  0  0  0  0  0  0  0  0
  -20.9398   15.2852  -15.8937 C   0  0  0  0  0  0  0  0  0  0  0  0
  -20.0367   15.5965  -14.7757 C   0  0  0  0  0  0  0  0  0  0  0  0
  -21.9547   14.4771  -15.6920 C   0  0  0  0  0  0  0  0  0  0  0  0
  -22.2941   13.7674  -14.4779 C   0  0  0  0  0  0  0  0  0  0  0  0
  -21.9448   12.4047  -14.0890 C   0  0  0  0  0  0  0  0  0  0  0  0
  -23.0637   14.4490  -13.6092 C   0  0  0  0  0  0  0  0  0  0  0  0
  -23.5384   13.9897  -12.3406 C   0  0  0  0  0  0  0  0  0  0  0  0
  -23.8285   12.6841  -12.1943 C   0  0  0  0  0  0  0  0  0  0  0  0
  -24.3181   12.2013  -10.8917 C   0  0  0  0  0  0  0  0  0  0  0  0
  -25.8065   21.3892  -19.7325 C   0  0  0  0  0  0  0  0  0  0  0  0
  -24.6048   21.2855  -18.8722 C   0  0  0  0  0  0  0  0  0  0  0  0
  -19.8019   16.0518  -24.3104 O   0  0  0  0  0  0  0  0  0  0  0  0
  -18.9941   15.0250  -23.9014 C   0  0  0  0  0  0  0  0  0  0  0  0
  -16.5993   17.9038  -24.9222 O   0  0  0  0  0  0  0  0  0  0  0  0
  -15.4048   17.5587  -25.4996 C   0  0  0  0  0  0  0  0  0  0  0  0
 50 51  1  0  0  0
 51  1  1  0  0  0
  1  2  1  0  0  0
  2  3  2  0  0  0
  3  4  1  0  0  0
  3  5  1  0  0  0
  5  6  1  0  0  0
  6  7  1  0  0  0
  6  8  1  0  0  0
  8  9  1  0  0  0
  9 52  1  0  0  0
 52 53  1  0  0  0
  9 10  1  0  0  0
 10 11  1  0  0  0
 11 12  1  0  0  0
 12 13  1  0  0  0
 12 14  1  0  0  0
 14 15  1  0  0  0
 14 16  1  0  0  0
 16 17  1  0  0  0
 17 54  1  0  0  0
 54 55  1  0  0  0
 12 18  1  0  0  0
 18 19  2  0  0  0
 18 20  1  0  0  0
 20 21  2  0  0  0
 20 22  1  0  0  0
 22 23  1  0  0  0
 23 24  1  0  0  0
 24 25  1  0  0  0
 25 26  1  0  0  0
 26 27  1  0  0  0
 27 28  1  0  0  0
 28 29  2  0  0  0
 28 30  1  0  0  0
 30 31  1  0  0  0
 31 32  1  0  0  0
 32 33  1  0  0  0
 32 34  1  0  0  0
 34 35  1  0  0  0
 34 36  1  0  0  0
 36 37  1  0  0  0
 37 38  2  0  0  0
 31 41  1  0  0  0
 41 42  1  0  0  0
 41 43  2  0  0  0
 43 44  1  0  0  0
 44 45  1  0  0  0
 44 46  2  0  0  0
 46 47  1  0  0  0
 47 48  2  0  0  0
 48 49  1  0  0  0
 37  1  1  0  0  0
 17 10  1  0  0  0
 27 22  1  0  0  0
 13 39  1  0  0  0
 35 40  1  0  0  0
M  END
> <minimizedAffinity>
1.45190

> <CNNscore>
0.3715454340

> <CNNaffinity>
7.0726881027

> <CNN_VS>
2.6278250217

> <CNNaffinity_variance>
0.7287982702

$$$$
[H]O[C@@]1([H])C([H])([H])C(=O)[C@]([H])(C([H])([H])C([H])([H])[H])/C([H])=C(\C([H])([H])[H])C([H])([H])[C@]([H])(C([H])([H])[H])C([H])([H])[C@]([H])(OC([H])([H])[H])[C@@]2([H])O[C@@](O[H])(C(=O)C(=O)N3C([H])([H])C([H])([H])C([H])([H])C([H])([H])[C@@]3([H])C(=O)O[C@]([H])(/C(=C([H])/C(=C([H])/C([H])=C(\[H])C([H])([H])[H])C([H])([H])[H])C([H])([H])[H])[C@]1([H])C([H])([H])[H])[C@]([H])(C([H])([H])[H])C([H])([H])[C@]2([H])OC([H])([H])[H]


 55 57  0  0  0  0  0  0  0  0999 V2000
  -17.9668   11.1094  -17.5241 C   0  0  0  0  0  0  0  0  0  0  0  0
  -19.2314   11.1759  -16.8091 C   0  0  0  0  0  0  0  0  0  0  0  0
  -20.0610   12.1562  -16.5491 C   0  0  0  0  0  0  0  0  0  0  0  0
  -21.3193   11.8383  -15.7506 C   0  0  0  0  0  0  0  0  0  0  0  0
  -19.9542   13.5825  -16.9132 C   0  0  0  0  0  0  0  0  0  0  0  0
  -21.2626   14.1819  -17.4020 C   0  0  0  0  0  0  0  0  0  0  0  0
  -21.8816   13.3774  -18.5252 C   0  0  0  0  0  0  0  0  0  0  0  0
  -20.9072   15.5310  -17.9817 C   0  0  0  0  0  0  0  0  0  0  0  0
  -21.6392   16.6047  -17.1604 C   0  0  0  0  0  0  0  0  0  0  0  0
  -20.6367   17.7717  -17.0254 C   0  0  0  0  0  0  0  0  0  0  0  0
  -19.8849   17.7698  -18.1664 O   0  0  0  0  0  0  0  0  0  0  0  0
  -19.1246   18.9163  -18.3087 C   0  0  0  0  0  0  0  0  0  0  0  0
  -18.6461   19.1737  -16.9902 O   0  0  0  0  0  0  0  0  0  0  0  0
  -20.0535   20.0486  -18.6003 C   0  0  0  0  0  0  0  0  0  0  0  0
  -19.3399   21.3733  -18.8159 C   0  0  0  0  0  0  0  0  0  0  0  0
  -20.9768   20.2425  -17.4325 C   0  0  0  0  0  0  0  0  0  0  0  0
  -21.3879   19.0058  -16.7131 C   0  0  0  0  0  0  0  0  0  0  0  0
  -18.0074   18.7345  -19.2328 C   0  0  0  0  0  0  0  0  0  0  0  0
  -16.8512   18.6067  -18.6708 O   0  0  0  0  0  0  0  0  0  0  0  0
  -17.9793   18.6733  -20.6714 C   0  0  0  0  0  0  0  0  0  0  0  0
  -16.8557   18.9926  -21.2829 O   0  0  0  0  0  0  0  0  0  0  0  0
  -18.9852   18.3147  -21.5977 N   0  0  0  0  0  0  0  0  0  0  0  0
  -19.2208   19.2238  -22.7282 C   0  0  0  0  0  0  0  0  0  0  0  0
  -20.6315   19.7167  -22.6877 C   0  0  0  0  0  0  0  0  0  0  0  0
  -21.6520   18.6698  -22.4302 C   0  0  0  0  0  0  0  0  0  0  0  0
  -21.2680   17.5638  -21.5229 C   0  0  0  0  0  0  0  0  0  0  0  0
  -19.8172   17.1377  -21.5851 C   0  0  0  0  0  0  0  0  0  0  0  0
  -19.6241   16.2350  -22.7507 C   0  0  0  0  0  0  0  0  0  0  0  0
  -20.1120   16.6006  -23.8453 O   0  0  0  0  0  0  0  0  0  0  0  0
  -18.9430   15.0594  -22.6092 O   0  0  0  0  0  0  0  0  0  0  0  0
  -17.5726   14.8980  -22.2399 C   0  0  0  0  0  0  0  0  0  0  0  0
  -17.3197   13.7274  -21.3550 C   0  0  0  0  0  0  0  0  0  0  0  0
  -16.6125   12.5687  -21.9823 C   0  0  0  0  0  0  0  0  0  0  0  0
  -18.5417   13.2728  -20.6095 C   0  0  0  0  0  0  0  0  0  0  0  0
  -19.5652   13.0760  -21.5767 O   0  0  0  0  0  0  0  0  0  0  0  0
  -18.3461   11.9615  -19.9528 C   0  0  0  0  0  0  0  0  0  0  0  0
  -17.6719   11.9575  -18.6454 C   0  0  0  0  0  0  0  0  0  0  0  0
  -16.7456   12.7826  -18.5087 O   0  0  0  0  0  0  0  0  0  0  0  0
  -18.0294   19.9227  -16.9549 H   0  0  0  0  0  0  0  0  0  0  0  0
  -19.3656   12.3121  -22.1473 H   0  0  0  0  0  0  0  0  0  0  0  0
  -16.8721   14.7422  -23.5684 C   0  0  0  0  0  0  0  0  0  0  0  0
  -17.5203   14.0658  -24.7020 C   0  0  0  0  0  0  0  0  0  0  0  0
  -15.6822   15.2719  -23.7334 C   0  0  0  0  0  0  0  0  0  0  0  0
  -14.8511   15.2316  -24.9169 C   0  0  0  0  0  0  0  0  0  0  0  0
  -13.4549   14.8245  -25.0385 C   0  0  0  0  0  0  0  0  0  0  0  0
  -15.4405   15.6603  -26.0485 C   0  0  0  0  0  0  0  0  0  0  0  0
  -14.8531   15.7222  -27.3510 C   0  0  0  0  0  0  0  0  0  0  0  0
  -15.6574   15.6374  -28.4262 C   0  0  0  0  0  0  0  0  0  0  0  0
  -15.0621   15.7001  -29.7721 C   0  0  0  0  0  0  0  0  0  0  0  0
  -17.1832    9.5139  -19.3263 C   0  0  0  0  0  0  0  0  0  0  0  0
  -17.6174    9.6611  -17.9175 C   0  0  0  0  0  0  0  0  0  0  0  0
  -22.7770   16.9691  -17.8328 O   0  0  0  0  0  0  0  0  0  0  0  0
  -23.9520   16.8943  -17.1343 C   0  0  0  0  0  0  0  0  0  0  0  0
  -21.2069   19.2823  -15.3339 O   0  0  0  0  0  0  0  0  0  0  0  0
  -21.6418   20.5296  -14.9671 C   0  0  0  0  0  0  0  0  0  0  0  0
 50 51  1  0  0  0
 51  1  1  0  0  0
  1  2  1  0  0  0
  2  3  2  0  0  0
  3  4  1  0  0  0
  3  5  1  0  0  0
  5  6  1  0  0  0
  6  7  1  0  0  0
  6  8  1  0  0  0
  8  9  1  0  0  0
  9 52  1  0  0  0
 52 53  1  0  0  0
  9 10  1  0  0  0
 10 11  1  0  0  0
 11 12  1  0  0  0
 12 13  1  0  0  0
 12 14  1  0  0  0
 14 15  1  0  0  0
 14 16  1  0  0  0
 16 17  1  0  0  0
 17 54  1  0  0  0
 54 55  1  0  0  0
 12 18  1  0  0  0
 18 19  2  0  0  0
 18 20  1  0  0  0
 20 21  2  0  0  0
 20 22  1  0  0  0
 22 23  1  0  0  0
 23 24  1  0  0  0
 24 25  1  0  0  0
 25 26  1  0  0  0
 26 27  1  0  0  0
 27 28  1  0  0  0
 28 29  2  0  0  0
 28 30  1  0  0  0
 30 31  1  0  0  0
 31 32  1  0  0  0
 32 33  1  0  0  0
 32 34  1  0  0  0
 34 35  1  0  0  0
 34 36  1  0  0  0
 36 37  1  0  0  0
 37 38  2  0  0  0
 31 41  1  0  0  0
 41 42  1  0  0  0
 41 43  2  0  0  0
 43 44  1  0  0  0
 44 45  1  0  0  0
 44 46  2  0  0  0
 46 47  1  0  0  0
 47 48  2  0  0  0
 48 49  1  0  0  0
 37  1  1  0  0  0
 17 10  1  0  0  0
 27 22  1  0  0  0
 13 39  1  0  0  0
 35 40  1  0  0  0
M  END
> <minimizedAffinity>
-2.69833

> <CNNscore>
0.3670129180

> <CNNaffinity>
7.5492744446

> <CNN_VS>
2.7706811428

> <CNNaffinity_variance>
0.4771818221

$$$$
[H]O[C@@]1([H])C([H])([H])C(=O)[C@]([H])(C([H])([H])C([H])([H])[H])/C([H])=C(\C([H])([H])[H])C([H])([H])[C@]([H])(C([H])([H])[H])C([H])([H])[C@]([H])(OC([H])([H])[H])[C@@]2([H])O[C@@](O[H])(C(=O)C(=O)N3C([H])([H])C([H])([H])C([H])([H])C([H])([H])[C@@]3([H])C(=O)O[C@]([H])(/C(=C([H])/C(=C([H])/C([H])=C(\[H])C([H])([H])[H])C([H])([H])[H])C([H])([H])[H])[C@]1([H])C([H])([H])[H])[C@]([H])(C([H])([H])[H])C([H])([H])[C@]2([H])OC([H])([H])[H]


 55 57  0  0  0  0  0  0  0  0999 V2000
  -18.2499    9.3749  -18.1607 C   0  0  0  0  0  0  0  0  0  0  0  0
  -18.9569    8.1142  -18.3210 C   0  0  0  0  0  0  0  0  0  0  0  0
  -19.7840    7.4490  -17.5526 C   0  0  0  0  0  0  0  0  0  0  0  0
  -20.3379    6.1272  -18.0702 C   0  0  0  0  0  0  0  0  0  0  0  0
  -20.2715    7.7891  -16.2017 C   0  0  0  0  0  0  0  0  0  0  0  0
  -21.7573    7.5315  -16.0120 C   0  0  0  0  0  0  0  0  0  0  0  0
  -22.5992    8.1980  -17.0792 C   0  0  0  0  0  0  0  0  0  0  0  0
  -22.1252    8.1851  -14.7006 C   0  0  0  0  0  0  0  0  0  0  0  0
  -22.6203    7.0849  -13.7479 C   0  0  0  0  0  0  0  0  0  0  0  0
  -22.0514    7.4569  -12.3613 C   0  0  0  0  0  0  0  0  0  0  0  0
  -21.9952    8.8215  -12.3195 O   0  0  0  0  0  0  0  0  0  0  0  0
  -21.7571    9.3091  -11.0474 C   0  0  0  0  0  0  0  0  0  0  0  0
  -20.7828    8.4136  -10.5160 O   0  0  0  0  0  0  0  0  0  0  0  0
  -22.9806    9.0649  -10.2268 C   0  0  0  0  0  0  0  0  0  0  0  0
  -22.8667    9.5882   -8.8043 C   0  0  0  0  0  0  0  0  0  0  0  0
  -23.2181    7.5861  -10.1233 C   0  0  0  0  0  0  0  0  0  0  0  0
  -22.8583    6.7817  -11.3231 C   0  0  0  0  0  0  0  0  0  0  0  0
  -21.2428   10.6768  -11.0606 C   0  0  0  0  0  0  0  0  0  0  0  0
  -19.9770   10.7847  -10.8259 O   0  0  0  0  0  0  0  0  0  0  0  0
  -21.9135   11.9299  -11.2927 C   0  0  0  0  0  0  0  0  0  0  0  0
  -21.3785   13.0222  -10.7838 O   0  0  0  0  0  0  0  0  0  0  0  0
  -23.1006   12.2213  -12.0030 N   0  0  0  0  0  0  0  0  0  0  0  0
  -24.1055   13.0562  -11.3300 C   0  0  0  0  0  0  0  0  0  0  0  0
  -25.3845   12.2932  -11.2016 C   0  0  0  0  0  0  0  0  0  0  0  0
  -25.8077   11.5720  -12.4282 C   0  0  0  0  0  0  0  0  0  0  0  0
  -24.7362   11.0085  -13.2815 C   0  0  0  0  0  0  0  0  0  0  0  0
  -23.4533   11.8093  -13.3385 C   0  0  0  0  0  0  0  0  0  0  0  0
  -23.6198   12.9279  -14.3038 C   0  0  0  0  0  0  0  0  0  0  0  0
  -24.6641   13.6140  -14.2110 O   0  0  0  0  0  0  0  0  0  0  0  0
  -22.6626   13.1759  -15.2463 O   0  0  0  0  0  0  0  0  0  0  0  0
  -21.3062   13.5594  -15.0149 C   0  0  0  0  0  0  0  0  0  0  0  0
  -20.3359   12.9496  -15.9657 C   0  0  0  0  0  0  0  0  0  0  0  0
  -19.7417   13.8719  -16.9817 C   0  0  0  0  0  0  0  0  0  0  0  0
  -20.8483   11.6945  -16.6122 C   0  0  0  0  0  0  0  0  0  0  0  0
  -22.1149   12.0090  -17.1764 O   0  0  0  0  0  0  0  0  0  0  0  0
  -19.9988   11.2546  -17.7408 C   0  0  0  0  0  0  0  0  0  0  0  0
  -18.7962   10.4734  -17.4133 C   0  0  0  0  0  0  0  0  0  0  0  0
  -18.1943   10.8116  -16.3738 O   0  0  0  0  0  0  0  0  0  0  0  0
  -20.4649    8.6828   -9.6391 H   0  0  0  0  0  0  0  0  0  0  0  0
  -22.0205   12.6163  -17.9322 H   0  0  0  0  0  0  0  0  0  0  0  0
  -21.3423   15.0622  -15.1573 C   0  0  0  0  0  0  0  0  0  0  0  0
  -22.6091   15.8070  -15.1030 C   0  0  0  0  0  0  0  0  0  0  0  0
  -20.2143   15.7237  -15.2743 C   0  0  0  0  0  0  0  0  0  0  0  0
  -20.0364   17.1517  -15.4236 C   0  0  0  0  0  0  0  0  0  0  0  0
  -19.5832   17.8979  -16.5931 C   0  0  0  0  0  0  0  0  0  0  0  0
  -20.2926   17.8815  -14.3220 C   0  0  0  0  0  0  0  0  0  0  0  0
  -20.2011   19.3031  -14.1946 C   0  0  0  0  0  0  0  0  0  0  0  0
  -20.9897   19.9228  -13.2978 C   0  0  0  0  0  0  0  0  0  0  0  0
  -20.9028   21.3866  -13.1591 C   0  0  0  0  0  0  0  0  0  0  0  0
  -16.8860   11.1135  -19.3953 C   0  0  0  0  0  0  0  0  0  0  0  0
  -17.7546    9.9193  -19.5144 C   0  0  0  0  0  0  0  0  0  0  0  0
  -23.9911    7.0767  -13.7646 O   0  0  0  0  0  0  0  0  0  0  0  0
  -24.6073    8.2610  -14.0682 C   0  0  0  0  0  0  0  0  0  0  0  0
  -22.1044    5.6820  -10.8397 O   0  0  0  0  0  0  0  0  0  0  0  0
  -22.4299    5.3202   -9.5580 C   0  0  0  0  0  0  0  0  0  0  0  0
 50 51  1  0  0  0
 51  1  1  0  0  0
  1  2  1  0  0  0
  2  3  2  0  0  0
  3  4  1  0  0  0
  3  5  1  0  0  0
  5  6  1  0  0  0
  6  7  1  0  0  0
  6  8  1  0  0  0
  8  9  1  0  0  0
  9 52  1  0  0  0
 52 53  1  0  0  0
  9 10  1  0  0  0
 10 11  1  0  0  0
 11 12  1  0  0  0
 12 13  1  0  0  0
 12 14  1  0  0  0
 14 15  1  0  0  0
 14 16  1  0  0  0
 16 17  1  0  0  0
 17 54  1  0  0  0
 54 55  1  0  0  0
 12 18  1  0  0  0
 18 19  2  0  0  0
 18 20  1  0  0  0
 20 21  2  0  0  0
 20 22  1  0  0  0
 22 23  1  0  0  0
 23 24  1  0  0  0
 24 25  1  0  0  0
 25 26  1  0  0  0
 26 27  1  0  0  0
 27 28  1  0  0  0
 28 29  2  0  0  0
 28 30  1  0  0  0
 30 31  1  0  0  0
 31 32  1  0  0  0
 32 33  1  0  0  0
 32 34  1  0  0  0
 34 35  1  0  0  0
 34 36  1  0  0  0
 36 37  1  0  0  0
 37 38  2  0  0  0
 31 41  1  0  0  0
 41 42  1  0  0  0
 41 43  2  0  0  0
 43 44  1  0  0  0
 44 45  1  0  0  0
 44 46  2  0  0  0
 46 47  1  0  0  0
 47 48  2  0  0  0
 48 49  1  0  0  0
 37  1  1  0  0  0
 17 10  1  0  0  0
 27 22  1  0  0  0
 13 39  1  0  0  0
 35 40  1  0  0  0
M  END
> <minimizedAffinity>
8.14040

> <CNNscore>
0.3372175097

> <CNNaffinity>
6.4313631058

> <CNN_VS>
2.1687681675

> <CNNaffinity_variance>
0.4726496339

$$$$
[H]O[C@@]1([H])C([H])([H])C(=O)[C@]([H])(C([H])([H])C([H])([H])[H])/C([H])=C(\C([H])([H])[H])C([H])([H])[C@]([H])(C([H])([H])[H])C([H])([H])[C@]([H])(OC([H])([H])[H])[C@@]2([H])O[C@@](O[H])(C(=O)C(=O)N3C([H])([H])C([H])([H])C([H])([H])C([H])([H])[C@@]3([H])C(=O)O[C@]([H])(/C(=C([H])/C(=C([H])/C([H])=C(\[H])C([H])([H])[H])C([H])([H])[H])C([H])([H])[H])[C@]1([H])C([H])([H])[H])[C@]([H])(C([H])([H])[H])C([H])([H])[C@]2([H])OC([H])([H])[H]


 55 57  0  0  0  0  0  0  0  0999 V2000
  -18.4890   13.0706  -17.7094 C   0  0  0  0  0  0  0  0  0  0  0  0
  -19.3426   12.2612  -16.8544 C   0  0  0  0  0  0  0  0  0  0  0  0
  -20.2549   12.5594  -15.9624 C   0  0  0  0  0  0  0  0  0  0  0  0
  -20.9593   11.4135  -15.2463 C   0  0  0  0  0  0  0  0  0  0  0  0
  -20.7150   13.8884  -15.5151 C   0  0  0  0  0  0  0  0  0  0  0  0
  -22.2236   13.9849  -15.3571 C   0  0  0  0  0  0  0  0  0  0  0  0
  -22.9635   13.5420  -16.6014 C   0  0  0  0  0  0  0  0  0  0  0  0
  -22.5262   15.4537  -15.1742 C   0  0  0  0  0  0  0  0  0  0  0  0
  -23.1647   15.6344  -13.7875 C   0  0  0  0  0  0  0  0  0  0  0  0
  -22.5730   16.9483  -13.2320 C   0  0  0  0  0  0  0  0  0  0  0  0
  -22.3510   17.7587  -14.3095 O   0  0  0  0  0  0  0  0  0  0  0  0
  -22.0719   19.0645  -13.9492 C   0  0  0  0  0  0  0  0  0  0  0  0
  -21.2215   18.9300  -12.8124 O   0  0  0  0  0  0  0  0  0  0  0  0
  -23.3269   19.6693  -13.4115 C   0  0  0  0  0  0  0  0  0  0  0  0
  -23.1688   21.1261  -13.0072 C   0  0  0  0  0  0  0  0  0  0  0  0
  -23.7447   18.9234  -12.1774 C   0  0  0  0  0  0  0  0  0  0  0  0
  -23.4700   17.4604  -12.1747 C   0  0  0  0  0  0  0  0  0  0  0  0
  -21.3942   19.8044  -15.0114 C   0  0  0  0  0  0  0  0  0  0  0  0
  -20.1279   19.9829  -14.8280 O   0  0  0  0  0  0  0  0  0  0  0  0
  -21.9036   20.3700  -16.2340 C   0  0  0  0  0  0  0  0  0  0  0  0
  -21.2459   21.3789  -16.7707 O   0  0  0  0  0  0  0  0  0  0  0  0
  -23.0366   20.0256  -17.0060 N   0  0  0  0  0  0  0  0  0  0  0  0
  -23.9408   21.1132  -17.4055 C   0  0  0  0  0  0  0  0  0  0  0  0
  -25.3051   20.8585  -16.8501 C   0  0  0  0  0  0  0  0  0  0  0  0
  -25.7969   19.4675  -17.0146 C   0  0  0  0  0  0  0  0  0  0  0  0
  -24.7911   18.3834  -16.9319 C   0  0  0  0  0  0  0  0  0  0  0  0
  -23.4194   18.7180  -17.4765 C   0  0  0  0  0  0  0  0  0  0  0  0
  -23.4351   18.5766  -18.9565 C   0  0  0  0  0  0  0  0  0  0  0  0
  -24.3888   19.1066  -19.5725 O   0  0  0  0  0  0  0  0  0  0  0  0
  -22.4423   17.8899  -19.5959 O   0  0  0  0  0  0  0  0  0  0  0  0
  -21.0524   18.2179  -19.6284 C   0  0  0  0  0  0  0  0  0  0  0  0
  -20.1514   17.0335  -19.5749 C   0  0  0  0  0  0  0  0  0  0  0  0
  -19.4355   16.6933  -20.8430 C   0  0  0  0  0  0  0  0  0  0  0  0
  -20.8047   15.8178  -18.9826 C   0  0  0  0  0  0  0  0  0  0  0  0
  -22.0157   15.6107  -19.6982 O   0  0  0  0  0  0  0  0  0  0  0  0
  -20.0005   14.5921  -19.1822 C   0  0  0  0  0  0  0  0  0  0  0  0
  -18.9068   14.3424  -18.2307 C   0  0  0  0  0  0  0  0  0  0  0  0
  -18.2819   15.3508  -17.8435 O   0  0  0  0  0  0  0  0  0  0  0  0
  -20.8848   19.7828  -12.4932 H   0  0  0  0  0  0  0  0  0  0  0  0
  -21.8378   15.3334  -20.6149 H   0  0  0  0  0  0  0  0  0  0  0  0
  -20.9026   18.9619  -20.9337 C   0  0  0  0  0  0  0  0  0  0  0  0
  -19.5919   19.4420  -21.3962 C   0  0  0  0  0  0  0  0  0  0  0  0
  -21.9550   19.1338  -21.6996 C   0  0  0  0  0  0  0  0  0  0  0  0
  -22.0211   19.8154  -22.9740 C   0  0  0  0  0  0  0  0  0  0  0  0
  -22.2300   21.2351  -23.2403 C   0  0  0  0  0  0  0  0  0  0  0  0
  -21.9076   19.0235  -24.0564 C   0  0  0  0  0  0  0  0  0  0  0  0
  -21.9348   19.4341  -25.4262 C   0  0  0  0  0  0  0  0  0  0  0  0
  -23.1236   19.7034  -25.9957 C   0  0  0  0  0  0  0  0  0  0  0  0
  -23.1621   20.1270  -27.4059 C   0  0  0  0  0  0  0  0  0  0  0  0
  -16.9378   11.2126  -18.4506 C   0  0  0  0  0  0  0  0  0  0  0  0
  -17.9130   12.2440  -18.8753 C   0  0  0  0  0  0  0  0  0  0  0  0
  -24.5259   15.6975  -13.9380 O   0  0  0  0  0  0  0  0  0  0  0  0
  -25.1276   14.6191  -14.5289 C   0  0  0  0  0  0  0  0  0  0  0  0
  -22.8627   17.1831  -10.9235 O   0  0  0  0  0  0  0  0  0  0  0  0
  -22.8779   18.2500  -10.0627 C   0  0  0  0  0  0  0  0  0  0  0  0
 50 51  1  0  0  0
 51  1  1  0  0  0
  1  2  1  0  0  0
  2  3  2  0  0  0
  3  4  1  0  0  0
  3  5  1  0  0  0
  5  6  1  0  0  0
  6  7  1  0  0  0
  6  8  1  0  0  0
  8  9  1  0  0  0
  9 52  1  0  0  0
 52 53  1  0  0  0
  9 10  1  0  0  0
 10 11  1  0  0  0
 11 12  1  0  0  0
 12 13  1  0  0  0
 12 14  1  0  0  0
 14 15  1  0  0  0
 14 16  1  0  0  0
 16 17  1  0  0  0
 17 54  1  0  0  0
 54 55  1  0  0  0
 12 18  1  0  0  0
 18 19  2  0  0  0
 18 20  1  0  0  0
 20 21  2  0  0  0
 20 22  1  0  0  0
 22 23  1  0  0  0
 23 24  1  0  0  0
 24 25  1  0  0  0
 25 26  1  0  0  0
 26 27  1  0  0  0
 27 28  1  0  0  0
 28 29  2  0  0  0
 28 30  1  0  0  0
 30 31  1  0  0  0
 31 32  1  0  0  0
 32 33  1  0  0  0
 32 34  1  0  0  0
 34 35  1  0  0  0
 34 36  1  0  0  0
 36 37  1  0  0  0
 37 38  2  0  0  0
 31 41  1  0  0  0
 41 42  1  0  0  0
 41 43  2  0  0  0
 43 44  1  0  0  0
 44 45  1  0  0  0
 44 46  2  0  0  0
 46 47  1  0  0  0
 47 48  2  0  0  0
 48 49  1  0  0  0
 37  1  1  0  0  0
 17 10  1  0  0  0
 27 22  1  0  0  0
 13 39  1  0  0  0
 35 40  1  0  0  0
M  END
> <minimizedAffinity>
-3.31294

> <CNNscore>
0.3139055967

> <CNNaffinity>
6.9026288986

> <CNN_VS>
2.1667737961

> <CNNaffinity_variance>
0.4032691419

$$$$
[H]O[C@@]1([H])C([H])([H])C(=O)[C@]([H])(C([H])([H])C([H])([H])[H])/C([H])=C(\C([H])([H])[H])C([H])([H])[C@]([H])(C([H])([H])[H])C([H])([H])[C@]([H])(OC([H])([H])[H])[C@@]2([H])O[C@@](O[H])(C(=O)C(=O)N3C([H])([H])C([H])([H])C([H])([H])C([H])([H])[C@@]3([H])C(=O)O[C@]([H])(/C(=C([H])/C(=C([H])/C([H])=C(\[H])C([H])([H])[H])C([H])([H])[H])C([H])([H])[H])[C@]1([H])C([H])([H])[H])[C@]([H])(C([H])([H])[H])C([H])([H])[C@]2([H])OC([H])([H])[H]


 55 57  0  0  0  0  0  0  0  0999 V2000
  -20.3735   11.3627  -17.0699 C   0  0  0  0  0  0  0  0  0  0  0  0
  -19.0398   11.1793  -17.6197 C   0  0  0  0  0  0  0  0  0  0  0  0
  -18.3421   11.8381  -18.5120 C   0  0  0  0  0  0  0  0  0  0  0  0
  -16.9421   11.3352  -18.8419 C   0  0  0  0  0  0  0  0  0  0  0  0
  -18.7235   13.0333  -19.2894 C   0  0  0  0  0  0  0  0  0  0  0  0
  -17.6149   14.0680  -19.3912 C   0  0  0  0  0  0  0  0  0  0  0  0
  -17.0590   14.4532  -18.0368 C   0  0  0  0  0  0  0  0  0  0  0  0
  -18.2601   15.3090  -19.9623 C   0  0  0  0  0  0  0  0  0  0  0  0
  -17.5858   15.6134  -21.3099 C   0  0  0  0  0  0  0  0  0  0  0  0
  -18.7242   16.0861  -22.2402 C   0  0  0  0  0  0  0  0  0  0  0  0
  -19.6332   16.7255  -21.4454 O   0  0  0  0  0  0  0  0  0  0  0  0
  -20.5748   17.4329  -22.1705 C   0  0  0  0  0  0  0  0  0  0  0  0
  -20.8786   16.5719  -23.2659 O   0  0  0  0  0  0  0  0  0  0  0  0
  -19.8887   18.6050  -22.7915 C   0  0  0  0  0  0  0  0  0  0  0  0
  -20.8236   19.4944  -23.5949 C   0  0  0  0  0  0  0  0  0  0  0  0
  -18.8380   18.1135  -23.7446 C   0  0  0  0  0  0  0  0  0  0  0  0
  -18.1344   16.8619  -23.3516 C   0  0  0  0  0  0  0  0  0  0  0  0
  -21.7791   17.7183  -21.3937 C   0  0  0  0  0  0  0  0  0  0  0  0
  -22.8010   16.9831  -21.6838 O   0  0  0  0  0  0  0  0  0  0  0  0
  -22.0185   18.6858  -20.3541 C   0  0  0  0  0  0  0  0  0  0  0  0
  -23.2585   19.0871  -20.1553 O   0  0  0  0  0  0  0  0  0  0  0  0
  -21.1238   19.3172  -19.4600 N   0  0  0  0  0  0  0  0  0  0  0  0
  -21.2088   20.7791  -19.3355 C   0  0  0  0  0  0  0  0  0  0  0  0
  -19.9024   21.3909  -19.7273 C   0  0  0  0  0  0  0  0  0  0  0  0
  -18.7047   20.7263  -19.1553 C   0  0  0  0  0  0  0  0  0  0  0  0
  -18.7683   19.2566  -18.9822 C   0  0  0  0  0  0  0  0  0  0  0  0
  -20.1275   18.6963  -18.6234 C   0  0  0  0  0  0  0  0  0  0  0  0
  -20.3554   18.8678  -17.1642 C   0  0  0  0  0  0  0  0  0  0  0  0
  -20.1045   19.9931  -16.6736 O   0  0  0  0  0  0  0  0  0  0  0  0
  -20.8161   17.8266  -16.4095 O   0  0  0  0  0  0  0  0  0  0  0  0
  -22.0715   17.1579  -16.5408 C   0  0  0  0  0  0  0  0  0  0  0  0
  -22.0006   15.6892  -16.3063 C   0  0  0  0  0  0  0  0  0  0  0  0
  -22.6077   15.1960  -15.0318 C   0  0  0  0  0  0  0  0  0  0  0  0
  -20.6228   15.1236  -16.5006 C   0  0  0  0  0  0  0  0  0  0  0  0
  -19.7425   15.8967  -15.6951 O   0  0  0  0  0  0  0  0  0  0  0  0
  -20.5094   13.7335  -16.0071 C   0  0  0  0  0  0  0  0  0  0  0  0
  -20.9655   12.6612  -16.9049 C   0  0  0  0  0  0  0  0  0  0  0  0
  -21.9762   12.9188  -17.5901 O   0  0  0  0  0  0  0  0  0  0  0  0
  -21.5911   16.9172  -23.8277 H   0  0  0  0  0  0  0  0  0  0  0  0
  -19.9067   15.7406  -14.7477 H   0  0  0  0  0  0  0  0  0  0  0  0
  -22.9354   17.8371  -15.5053 C   0  0  0  0  0  0  0  0  0  0  0  0
  -24.3545   18.1261  -15.7611 C   0  0  0  0  0  0  0  0  0  0  0  0
  -22.4245   18.1240  -14.3304 C   0  0  0  0  0  0  0  0  0  0  0  0
  -23.0790   18.7707  -13.2140 C   0  0  0  0  0  0  0  0  0  0  0  0
  -23.1650   20.1948  -12.9062 C   0  0  0  0  0  0  0  0  0  0  0  0
  -23.6554   17.9402  -12.3254 C   0  0  0  0  0  0  0  0  0  0  0  0
  -24.3672   18.3108  -11.1415 C   0  0  0  0  0  0  0  0  0  0  0  0
  -24.1945   17.5758  -10.0280 C   0  0  0  0  0  0  0  0  0  0  0  0
  -24.9231   17.9494   -8.8035 C   0  0  0  0  0  0  0  0  0  0  0  0
  -20.3244    9.1290  -15.8801 C   0  0  0  0  0  0  0  0  0  0  0  0
  -20.5505   10.5874  -15.7501 C   0  0  0  0  0  0  0  0  0  0  0  0
  -16.6355   16.5819  -21.1141 O   0  0  0  0  0  0  0  0  0  0  0  0
  -16.6268   17.1931  -19.8891 C   0  0  0  0  0  0  0  0  0  0  0  0
  -18.1415   16.0359  -24.5044 O   0  0  0  0  0  0  0  0  0  0  0  0
  -16.8875   15.6656  -24.9165 C   0  0  0  0  0  0  0  0  0  0  0  0
 50 51  1  0  0  0
 51  1  1  0  0  0
  1  2  1  0  0  0
  2  3  2  0  0  0
  3  4  1  0  0  0
  3  5  1  0  0  0
  5  6  1  0  0  0
  6  7  1  0  0  0
  6  8  1  0  0  0
  8  9  1  0  0  0
  9 52  1  0  0  0
 52 53  1  0  0  0
  9 10  1  0  0  0
 10 11  1  0  0  0
 11 12  1  0  0  0
 12 13  1  0  0  0
 12 14  1  0  0  0
 14 15  1  0  0  0
 14 16  1  0  0  0
 16 17  1  0  0  0
 17 54  1  0  0  0
 54 55  1  0  0  0
 12 18  1  0  0  0
 18 19  2  0  0  0
 18 20  1  0  0  0
 20 21  2  0  0  0
 20 22  1  0  0  0
 22 23  1  0  0  0
 23 24  1  0  0  0
 24 25  1  0  0  0
 25 26  1  0  0  0
 26 27  1  0  0  0
 27 28  1  0  0  0
 28 29  2  0  0  0
 28 30  1  0  0  0
 30 31  1  0  0  0
 31 32  1  0  0  0
 32 33  1  0  0  0
 32 34  1  0  0  0
 34 35  1  0  0  0
 34 36  1  0  0  0
 36 37  1  0  0  0
 37 38  2  0  0  0
 31 41  1  0  0  0
 41 42  1  0  0  0
 41 43  2  0  0  0
 43 44  1  0  0  0
 44 45  1  0  0  0
 44 46  2  0  0  0
 46 47  1  0  0  0
 47 48  2  0  0  0
 48 49  1  0  0  0
 37  1  1  0  0  0
 17 10  1  0  0  0
 27 22  1  0  0  0
 13 39  1  0  0  0
 35 40  1  0  0  0
M  END
> <minimizedAffinity>
-4.75090

> <CNNscore>
0.2717606425

> <CNNaffinity>
7.1201820374

> <CNN_VS>
1.9349852800

> <CNNaffinity_variance>
0.2108738124

$$$$
[H]OC([H])([H])[C@@]1([H])N(C(=O)c2c([H])c(C(=O)N([H])S(=O)(=O)c3c([H])c([H])c4c([H])c([H])c([H])c([H])c4c3[H])c([H])c([H])c2-n2nc(C(=O)N(C([H])([H])C([H])([H])C([H])([H])C([H])([H])[H])C([H])([H])C([H])([H])C([H])([H])C([H])([H])[H])c(Cl)c2C([H])([H])[H])C([H])([H])c2c([H])c([H])c([H])c([H])c2C1([H])[H]


 56 61  0  0  0  0  0  0  0  0999 V2000
  -19.0366   12.2349  -18.9324 C   0  0  0  0  0  0  0  0  0  0  0  0
  -18.6455   11.1270  -18.1649 C   0  0  0  0  0  0  0  0  0  0  0  0
  -19.2730   10.8286  -16.9830 C   0  0  0  0  0  0  0  0  0  0  0  0
  -20.3122   11.6044  -16.5016 C   0  0  0  0  0  0  0  0  0  0  0  0
  -20.6737   12.6828  -17.2718 C   0  0  0  0  0  0  0  0  0  0  0  0
  -20.0553   13.0003  -18.4619 C   0  0  0  0  0  0  0  0  0  0  0  0
  -20.4980   14.1774  -19.1824 C   0  0  0  0  0  0  0  0  0  0  0  0
  -21.4292   13.8957  -20.0271 O   0  0  0  0  0  0  0  0  0  0  0  0
  -20.0554   15.4915  -19.0634 N   0  0  0  0  0  0  0  0  0  0  0  0
  -20.7143   16.4763  -19.9684 C   0  0  0  0  0  0  0  0  0  0  0  0
  -21.1043   17.6748  -19.1727 C   0  0  0  0  0  0  0  0  0  0  0  0
  -21.8615   18.6511  -19.7768 C   0  0  0  0  0  0  0  0  0  0  0  0
  -22.2581   19.7968  -19.0956 C   0  0  0  0  0  0  0  0  0  0  0  0
  -21.8831   19.9510  -17.7921 C   0  0  0  0  0  0  0  0  0  0  0  0
  -21.1143   18.9543  -17.1848 C   0  0  0  0  0  0  0  0  0  0  0  0
  -20.7195   17.8233  -17.8494 C   0  0  0  0  0  0  0  0  0  0  0  0
  -19.9005   16.8198  -17.1185 C   0  0  0  0  0  0  0  0  0  0  0  0
  -19.1024   16.0905  -18.2171 C   0  0  0  0  0  0  0  0  0  0  0  0
  -17.9738   15.3175  -17.6820 C   0  0  0  0  0  0  0  0  0  0  0  0
  -18.3159   14.8869  -16.3613 O   0  0  0  0  0  0  0  0  0  0  0  0
  -18.5595   13.9497  -16.3372 H   0  0  0  0  0  0  0  0  0  0  0  0
  -17.5472   13.1091  -22.1123 C   0  0  0  0  0  0  0  0  0  0  0  0
  -18.4893   13.2843  -21.1479 N   0  0  0  0  0  0  0  0  0  0  0  0
  -18.3451   12.4303  -20.1888 N   0  0  0  0  0  0  0  0  0  0  0  0
  -17.2884   11.6370  -20.4779 C   0  0  0  0  0  0  0  0  0  0  0  0
  -16.7254   10.5112  -19.6552 C   0  0  0  0  0  0  0  0  0  0  0  0
  -16.7659   12.0415  -21.6854 C   0  0  0  0  0  0  0  0  0  0  0  0
  -15.3699   11.3099  -22.4960 Cl  0  0  0  0  0  0  0  0  0  0  0  0
  -16.7030   15.1201  -23.4561 N   0  0  0  0  0  0  0  0  0  0  0  0
  -17.2829   13.8483  -23.3246 C   0  0  0  0  0  0  0  0  0  0  0  0
  -17.6143   13.2672  -24.4276 O   0  0  0  0  0  0  0  0  0  0  0  0
  -16.2924   16.0153  -22.4258 C   0  0  0  0  0  0  0  0  0  0  0  0
  -17.3914   16.6641  -21.6301 C   0  0  0  0  0  0  0  0  0  0  0  0
  -17.7020   18.7445  -20.3251 C   0  0  0  0  0  0  0  0  0  0  0  0
  -16.6963   17.6566  -20.6873 C   0  0  0  0  0  0  0  0  0  0  0  0
  -16.3883   15.5323  -24.8341 C   0  0  0  0  0  0  0  0  0  0  0  0
  -14.9502   15.3254  -25.1242 C   0  0  0  0  0  0  0  0  0  0  0  0
  -14.5981   15.7968  -26.5387 C   0  0  0  0  0  0  0  0  0  0  0  0
  -15.6925   15.4486  -27.5029 C   0  0  0  0  0  0  0  0  0  0  0  0
  -20.9723   11.2692  -15.2377 C   0  0  0  0  0  0  0  0  0  0  0  0
  -22.2315   11.3051  -15.2029 O   0  0  0  0  0  0  0  0  0  0  0  0
  -20.2555   10.9132  -14.0762 N   0  0  0  0  0  0  0  0  0  0  0  0
  -19.1965   10.8892  -14.1585 H   0  0  0  0  0  0  0  0  0  0  0  0
  -20.9036   10.5099  -12.5513 S   0  0  0  0  0  0  0  0  0  0  0  0
  -21.8481    9.3267  -12.6401 O   0  0  0  0  0  0  0  0  0  0  0  0
  -21.7096   11.6478  -11.9717 O   0  0  0  0  0  0  0  0  0  0  0  0
  -19.6229   10.0380  -11.4662 C   0  0  0  0  0  0  0  0  0  0  0  0
  -19.1428   10.8672  -10.4709 C   0  0  0  0  0  0  0  0  0  0  0  0
  -18.1385   10.4668   -9.6082 C   0  0  0  0  0  0  0  0  0  0  0  0
  -17.5658    9.2039   -9.7069 C   0  0  0  0  0  0  0  0  0  0  0  0
  -16.5691    8.7925   -8.8492 C   0  0  0  0  0  0  0  0  0  0  0  0
  -16.0079    7.5170   -8.9586 C   0  0  0  0  0  0  0  0  0  0  0  0
  -16.4853    6.6872   -9.9529 C   0  0  0  0  0  0  0  0  0  0  0  0
  -17.4813    7.1109  -10.8037 C   0  0  0  0  0  0  0  0  0  0  0  0
  -18.0323    8.3706  -10.6909 C   0  0  0  0  0  0  0  0  0  0  0  0
  -19.0493    8.7871  -11.5581 C   0  0  0  0  0  0  0  0  0  0  0  0
 34 35  1  0  0  0
 35 33  1  0  0  0
 33 32  1  0  0  0
 32 29  1  0  0  0
 29 36  1  0  0  0
 36 37  1  0  0  0
 37 38  1  0  0  0
 38 39  1  0  0  0
 29 30  1  0  0  0
 30 31  2  0  0  0
 30 22  1  0  0  0
 22 23  2  0  0  0
 23 24  1  0  0  0
 24 25  1  0  0  0
 25 26  1  0  0  0
 25 27  2  0  0  0
 27 28  1  0  0  0
 24  1  1  0  0  0
  1  2  2  0  0  0
  2  3  1  0  0  0
  3  4  2  0  0  0
  4  5  1  0  0  0
  5  6  2  0  0  0
  6  7  1  0  0  0
  7  8  2  0  0  0
  7  9  1  0  0  0
  9 10  1  0  0  0
 10 11  1  0  0  0
 11 12  2  0  0  0
 12 13  1  0  0  0
 13 14  2  0  0  0
 14 15  1  0  0  0
 15 16  2  0  0  0
 16 17  1  0  0  0
 17 18  1  0  0  0
 18 19  1  0  0  0
 19 20  1  0  0  0
  4 40  1  0  0  0
 40 41  2  0  0  0
 40 42  1  0  0  0
 42 44  1  0  0  0
 44 45  2  0  0  0
 44 46  2  0  0  0
 44 47  1  0  0  0
 47 48  2  0  0  0
 48 49  1  0  0  0
 49 50  2  0  0  0
 50 51  1  0  0  0
 51 52  2  0  0  0
 52 53  1  0  0  0
 53 54  2  0  0  0
 54 55  1  0  0  0
 55 56  2  0  0  0
 27 22  1  0  0  0
  6  1  1  0  0  0
 18  9  1  0  0  0
 56 47  1  0  0  0
 16 11  1  0  0  0
 55 50  1  0  0  0
 20 21  1  0  0  0
 42 43  1  0  0  0
M  END
> <minimizedAffinity>
-10.42518

> <CNNscore>
0.3292813599

> <CNNaffinity>
7.8559827805

> <CNN_VS>
2.5868287086

> <CNNaffinity_variance>
0.4764096737

$$$$
[H]OC([H])([H])[C@@]1([H])N(C(=O)c2c([H])c(C(=O)N([H])S(=O)(=O)c3c([H])c([H])c4c([H])c([H])c([H])c([H])c4c3[H])c([H])c([H])c2-n2nc(C(=O)N(C([H])([H])C([H])([H])C([H])([H])C([H])([H])[H])C([H])([H])C([H])([H])C([H])([H])C([H])([H])[H])c(Cl)c2C([H])([H])[H])C([H])([H])c2c([H])c([H])c([H])c([H])c2C1([H])[H]


 56 61  0  0  0  0  0  0  0  0999 V2000
  -19.2523   12.1602  -18.5065 C   0  0  0  0  0  0  0  0  0  0  0  0
  -19.0647   11.0973  -17.6095 C   0  0  0  0  0  0  0  0  0  0  0  0
  -19.8496   10.9674  -16.4930 C   0  0  0  0  0  0  0  0  0  0  0  0
  -20.8535   11.8750  -16.2068 C   0  0  0  0  0  0  0  0  0  0  0  0
  -21.0145   12.9058  -17.1005 C   0  0  0  0  0  0  0  0  0  0  0  0
  -20.2357   13.0546  -18.2278 C   0  0  0  0  0  0  0  0  0  0  0  0
  -20.4727   14.1952  -19.0902 C   0  0  0  0  0  0  0  0  0  0  0  0
  -21.3520   13.9330  -19.9946 O   0  0  0  0  0  0  0  0  0  0  0  0
  -19.8922   15.4593  -19.0449 N   0  0  0  0  0  0  0  0  0  0  0  0
  -20.3492   16.4145  -20.0946 C   0  0  0  0  0  0  0  0  0  0  0  0
  -20.6656   17.7212  -19.4509 C   0  0  0  0  0  0  0  0  0  0  0  0
  -21.2473   18.7084  -20.2112 C   0  0  0  0  0  0  0  0  0  0  0  0
  -21.5664   19.9522  -19.6770 C   0  0  0  0  0  0  0  0  0  0  0  0
  -21.2927   20.1937  -18.3616 C   0  0  0  0  0  0  0  0  0  0  0  0
  -20.7020   19.1854  -17.5951 C   0  0  0  0  0  0  0  0  0  0  0  0
  -20.3846   17.9580  -18.1144 C   0  0  0  0  0  0  0  0  0  0  0  0
  -19.7561   16.9497  -17.2198 C   0  0  0  0  0  0  0  0  0  0  0  0
  -18.9545   16.0332  -18.1649 C   0  0  0  0  0  0  0  0  0  0  0  0
  -17.9754   15.2001  -17.4542 C   0  0  0  0  0  0  0  0  0  0  0  0
  -18.4862   14.9324  -16.1449 O   0  0  0  0  0  0  0  0  0  0  0  0
  -18.8352   14.0320  -16.0690 H   0  0  0  0  0  0  0  0  0  0  0  0
  -17.3011   12.6154  -21.5197 C   0  0  0  0  0  0  0  0  0  0  0  0
  -18.2983   12.9923  -20.6760 N   0  0  0  0  0  0  0  0  0  0  0  0
  -18.4059   12.1752  -19.6805 N   0  0  0  0  0  0  0  0  0  0  0  0
  -17.4746   11.2046  -19.8213 C   0  0  0  0  0  0  0  0  0  0  0  0
  -17.2035   10.0438  -18.9046 C   0  0  0  0  0  0  0  0  0  0  0  0
  -16.7635   11.4561  -20.9727 C   0  0  0  0  0  0  0  0  0  0  0  0
  -15.4329   10.4639  -21.5942 Cl  0  0  0  0  0  0  0  0  0  0  0  0
  -16.7158   14.6080  -23.0197 N   0  0  0  0  0  0  0  0  0  0  0  0
  -16.7855   13.2390  -22.7161 C   0  0  0  0  0  0  0  0  0  0  0  0
  -16.3244   12.4411  -23.6187 O   0  0  0  0  0  0  0  0  0  0  0  0
  -17.1925   15.7094  -22.2508 C   0  0  0  0  0  0  0  0  0  0  0  0
  -16.2506   16.2545  -21.2129 C   0  0  0  0  0  0  0  0  0  0  0  0
  -17.6739   18.1782  -21.8463 C   0  0  0  0  0  0  0  0  0  0  0  0
  -16.9001   17.5455  -20.6944 C   0  0  0  0  0  0  0  0  0  0  0  0
  -15.9637   14.9480  -24.2389 C   0  0  0  0  0  0  0  0  0  0  0  0
  -16.8770   15.0601  -25.4002 C   0  0  0  0  0  0  0  0  0  0  0  0
  -16.0929   15.2139  -26.7073 C   0  0  0  0  0  0  0  0  0  0  0  0
  -14.7091   15.7257  -26.4401 C   0  0  0  0  0  0  0  0  0  0  0  0
  -21.6837   11.7192  -15.0101 C   0  0  0  0  0  0  0  0  0  0  0  0
  -22.8750   11.3382  -15.1649 O   0  0  0  0  0  0  0  0  0  0  0  0
  -21.2008   11.9779  -13.7104 N   0  0  0  0  0  0  0  0  0  0  0  0
  -20.1878   12.2885  -13.6315 H   0  0  0  0  0  0  0  0  0  0  0  0
  -22.0646   11.8406  -12.2465 S   0  0  0  0  0  0  0  0  0  0  0  0
  -23.2750   12.7541  -12.2233 O   0  0  0  0  0  0  0  0  0  0  0  0
  -21.2165   12.2376  -11.0617 O   0  0  0  0  0  0  0  0  0  0  0  0
  -22.6697   10.2157  -12.0626 C   0  0  0  0  0  0  0  0  0  0  0  0
  -23.9215    9.9378  -11.5482 C   0  0  0  0  0  0  0  0  0  0  0  0
  -24.3903    8.6421  -11.4279 C   0  0  0  0  0  0  0  0  0  0  0  0
  -23.6160    7.5569  -11.8223 C   0  0  0  0  0  0  0  0  0  0  0  0
  -24.0752    6.2625  -11.7124 C   0  0  0  0  0  0  0  0  0  0  0  0
  -23.2859    5.1830  -12.1190 C   0  0  0  0  0  0  0  0  0  0  0  0
  -22.0346    5.4581  -12.6321 C   0  0  0  0  0  0  0  0  0  0  0  0
  -21.5876    6.7561  -12.7360 C   0  0  0  0  0  0  0  0  0  0  0  0
  -22.3709    7.8181  -12.3339 C   0  0  0  0  0  0  0  0  0  0  0  0
  -21.9075    9.1339  -12.4510 C   0  0  0  0  0  0  0  0  0  0  0  0
 34 35  1  0  0  0
 35 33  1  0  0  0
 33 32  1  0  0  0
 32 29  1  0  0  0
 29 36  1  0  0  0
 36 37  1  0  0  0
 37 38  1  0  0  0
 38 39  1  0  0  0
 29 30  1  0  0  0
 30 31  2  0  0  0
 30 22  1  0  0  0
 22 23  2  0  0  0
 23 24  1  0  0  0
 24 25  1  0  0  0
 25 26  1  0  0  0
 25 27  2  0  0  0
 27 28  1  0  0  0
 24  1  1  0  0  0
  1  2  2  0  0  0
  2  3  1  0  0  0
  3  4  2  0  0  0
  4  5  1  0  0  0
  5  6  2  0  0  0
  6  7  1  0  0  0
  7  8  2  0  0  0
  7  9  1  0  0  0
  9 10  1  0  0  0
 10 11  1  0  0  0
 11 12  2  0  0  0
 12 13  1  0  0  0
 13 14  2  0  0  0
 14 15  1  0  0  0
 15 16  2  0  0  0
 16 17  1  0  0  0
 17 18  1  0  0  0
 18 19  1  0  0  0
 19 20  1  0  0  0
  4 40  1  0  0  0
 40 41  2  0  0  0
 40 42  1  0  0  0
 42 44  1  0  0  0
 44 45  2  0  0  0
 44 46  2  0  0  0
 44 47  1  0  0  0
 47 48  2  0  0  0
 48 49  1  0  0  0
 49 50  2  0  0  0
 50 51  1  0  0  0
 51 52  2  0  0  0
 52 53  1  0  0  0
 53 54  2  0  0  0
 54 55  1  0  0  0
 55 56  2  0  0  0
 27 22  1  0  0  0
  6  1  1  0  0  0
 18  9  1  0  0  0
 56 47  1  0  0  0
 16 11  1  0  0  0
 55 50  1  0  0  0
 20 21  1  0  0  0
 42 43  1  0  0  0
M  END
> <minimizedAffinity>
-8.56903

> <CNNscore>
0.3058314919

> <CNNaffinity>
7.7515654564

> <CNN_VS>
2.3706729412

> <CNNaffinity_variance>
0.4017835557

$$$$
[H]OC([H])([H])[C@@]1([H])N(C(=O)c2c([H])c(C(=O)N([H])S(=O)(=O)c3c([H])c([H])c4c([H])c([H])c([H])c([H])c4c3[H])c([H])c([H])c2-n2nc(C(=O)N(C([H])([H])C([H])([H])C([H])([H])C([H])([H])[H])C([H])([H])C([H])([H])C([H])([H])C([H])([H])[H])c(Cl)c2C([H])([H])[H])C([H])([H])c2c([H])c([H])c([H])c([H])c2C1([H])[H]


 56 61  0  0  0  0  0  0  0  0999 V2000
  -18.6744   11.7949  -18.5644 C   0  0  0  0  0  0  0  0  0  0  0  0
  -18.9311   10.4520  -18.2477 C   0  0  0  0  0  0  0  0  0  0  0  0
  -19.4483   10.0996  -17.0279 C   0  0  0  0  0  0  0  0  0  0  0  0
  -19.7366   11.0495  -16.0645 C   0  0  0  0  0  0  0  0  0  0  0  0
  -19.4747   12.3555  -16.4003 C   0  0  0  0  0  0  0  0  0  0  0  0
  -18.9542   12.7303  -17.6202 C   0  0  0  0  0  0  0  0  0  0  0  0
  -18.6903   14.1350  -17.8608 C   0  0  0  0  0  0  0  0  0  0  0  0
  -17.4279   14.3916  -17.8433 O   0  0  0  0  0  0  0  0  0  0  0  0
  -19.5958   15.1654  -18.0963 N   0  0  0  0  0  0  0  0  0  0  0  0
  -18.9955   16.5155  -18.2962 C   0  0  0  0  0  0  0  0  0  0  0  0
  -19.6193   17.1467  -19.4938 C   0  0  0  0  0  0  0  0  0  0  0  0
  -19.1104   18.3390  -19.9527 C   0  0  0  0  0  0  0  0  0  0  0  0
  -19.6452   18.9852  -21.0621 C   0  0  0  0  0  0  0  0  0  0  0  0
  -20.7036   18.4155  -21.7092 C   0  0  0  0  0  0  0  0  0  0  0  0
  -21.2149   17.2034  -21.2374 C   0  0  0  0  0  0  0  0  0  0  0  0
  -20.6937   16.5613  -20.1452 C   0  0  0  0  0  0  0  0  0  0  0  0
  -21.3077   15.2760  -19.7174 C   0  0  0  0  0  0  0  0  0  0  0  0
  -20.9993   15.1770  -18.2104 C   0  0  0  0  0  0  0  0  0  0  0  0
  -21.8224   14.1709  -17.5264 C   0  0  0  0  0  0  0  0  0  0  0  0
  -22.8034   14.8567  -16.7428 O   0  0  0  0  0  0  0  0  0  0  0  0
  -23.6792   14.8326  -17.1561 H   0  0  0  0  0  0  0  0  0  0  0  0
  -17.7742   12.7686  -21.9312 C   0  0  0  0  0  0  0  0  0  0  0  0
  -18.6385   12.7631  -20.8819 N   0  0  0  0  0  0  0  0  0  0  0  0
  -18.1785   12.0636  -19.8974 N   0  0  0  0  0  0  0  0  0  0  0  0
  -16.9733   11.5641  -20.2541 C   0  0  0  0  0  0  0  0  0  0  0  0
  -16.0494   10.7056  -19.4351 C   0  0  0  0  0  0  0  0  0  0  0  0
  -16.6928   11.9917  -21.5320 C   0  0  0  0  0  0  0  0  0  0  0  0
  -15.2263   11.5992  -22.4466 Cl  0  0  0  0  0  0  0  0  0  0  0  0
  -17.8629   14.8290  -23.4510 N   0  0  0  0  0  0  0  0  0  0  0  0
  -17.8339   13.4471  -23.2049 C   0  0  0  0  0  0  0  0  0  0  0  0
  -17.8575   12.6915  -24.2501 O   0  0  0  0  0  0  0  0  0  0  0  0
  -17.9034   15.8947  -22.5053 C   0  0  0  0  0  0  0  0  0  0  0  0
  -16.7827   15.9392  -21.5034 C   0  0  0  0  0  0  0  0  0  0  0  0
  -15.7436   17.8655  -20.3470 C   0  0  0  0  0  0  0  0  0  0  0  0
  -16.0825   17.2887  -21.7176 C   0  0  0  0  0  0  0  0  0  0  0  0
  -17.7317   15.2228  -24.8636 C   0  0  0  0  0  0  0  0  0  0  0  0
  -16.4031   15.8289  -25.1142 C   0  0  0  0  0  0  0  0  0  0  0  0
  -15.3545   14.7549  -25.4208 C   0  0  0  0  0  0  0  0  0  0  0  0
  -14.1705   14.8931  -24.5112 C   0  0  0  0  0  0  0  0  0  0  0  0
  -20.2908   10.6546  -14.7673 C   0  0  0  0  0  0  0  0  0  0  0  0
  -20.9715    9.5953  -14.7152 O   0  0  0  0  0  0  0  0  0  0  0  0
  -20.0907   11.4099  -13.5931 N   0  0  0  0  0  0  0  0  0  0  0  0
  -19.5030   12.2900  -13.6869 H   0  0  0  0  0  0  0  0  0  0  0  0
  -20.6849   11.0616  -12.0330 S   0  0  0  0  0  0  0  0  0  0  0  0
  -21.8535   10.0963  -12.0820 O   0  0  0  0  0  0  0  0  0  0  0  0
  -21.1954   12.3041  -11.3429 O   0  0  0  0  0  0  0  0  0  0  0  0
  -19.4448   10.2867  -11.0831 C   0  0  0  0  0  0  0  0  0  0  0  0
  -18.8336   10.9014  -10.0074 C   0  0  0  0  0  0  0  0  0  0  0  0
  -17.8648   10.2622   -9.2550 C   0  0  0  0  0  0  0  0  0  0  0  0
  -17.4625    8.9651   -9.5516 C   0  0  0  0  0  0  0  0  0  0  0  0
  -16.5027    8.3167   -8.8053 C   0  0  0  0  0  0  0  0  0  0  0  0
  -16.1138    7.0101   -9.1137 C   0  0  0  0  0  0  0  0  0  0  0  0
  -16.7223    6.3944  -10.1887 C   0  0  0  0  0  0  0  0  0  0  0  0
  -17.6796    7.0537  -10.9265 C   0  0  0  0  0  0  0  0  0  0  0  0
  -18.0604    8.3431  -10.6174 C   0  0  0  0  0  0  0  0  0  0  0  0
  -19.0399    9.0002  -11.3714 C   0  0  0  0  0  0  0  0  0  0  0  0
 34 35  1  0  0  0
 35 33  1  0  0  0
 33 32  1  0  0  0
 32 29  1  0  0  0
 29 36  1  0  0  0
 36 37  1  0  0  0
 37 38  1  0  0  0
 38 39  1  0  0  0
 29 30  1  0  0  0
 30 31  2  0  0  0
 30 22  1  0  0  0
 22 23  2  0  0  0
 23 24  1  0  0  0
 24 25  1  0  0  0
 25 26  1  0  0  0
 25 27  2  0  0  0
 27 28  1  0  0  0
 24  1  1  0  0  0
  1  2  2  0  0  0
  2  3  1  0  0  0
  3  4  2  0  0  0
  4  5  1  0  0  0
  5  6  2  0  0  0
  6  7  1  0  0  0
  7  8  2  0  0  0
  7  9  1  0  0  0
  9 10  1  0  0  0
 10 11  1  0  0  0
 11 12  2  0  0  0
 12 13  1  0  0  0
 13 14  2  0  0  0
 14 15  1  0  0  0
 15 16  2  0  0  0
 16 17  1  0  0  0
 17 18  1  0  0  0
 18 19  1  0  0  0
 19 20  1  0  0  0
  4 40  1  0  0  0
 40 41  2  0  0  0
 40 42  1  0  0  0
 42 44  1  0  0  0
 44 45  2  0  0  0
 44 46  2  0  0  0
 44 47  1  0  0  0
 47 48  2  0  0  0
 48 49  1  0  0  0
 49 50  2  0  0  0
 50 51  1  0  0  0
 51 52  2  0  0  0
 52 53  1  0  0  0
 53 54  2  0  0  0
 54 55  1  0  0  0
 55 56  2  0  0  0
 27 22  1  0  0  0
  6  1  1  0  0  0
 18  9  1  0  0  0
 56 47  1  0  0  0
 16 11  1  0  0  0
 55 50  1  0  0  0
 20 21  1  0  0  0
 42 43  1  0  0  0
M  END
> <minimizedAffinity>
-9.44238

> <CNNscore>
0.2571390271

> <CNNaffinity>
7.8525214195

> <CNN_VS>
2.0191898346

> <CNNaffinity_variance>
0.2837517858

$$$$
[H]OC([H])([H])[C@@]1([H])N(C(=O)c2c([H])c(C(=O)N([H])S(=O)(=O)c3c([H])c([H])c4c([H])c([H])c([H])c([H])c4c3[H])c([H])c([H])c2-n2nc(C(=O)N(C([H])([H])C([H])([H])C([H])([H])C([H])([H])[H])C([H])([H])C([H])([H])C([H])([H])C([H])([H])[H])c(Cl)c2C([H])([H])[H])C([H])([H])c2c([H])c([H])c([H])c([H])c2C1([H])[H]


 56 61  0  0  0  0  0  0  0  0999 V2000
  -19.3010   12.2014  -18.4315 C   0  0  0  0  0  0  0  0  0  0  0  0
  -19.1208   11.1687  -17.4984 C   0  0  0  0  0  0  0  0  0  0  0  0
  -19.9184   11.0724  -16.3875 C   0  0  0  0  0  0  0  0  0  0  0  0
  -20.9285   11.9853  -16.1428 C   0  0  0  0  0  0  0  0  0  0  0  0
  -21.0821   12.9860  -17.0712 C   0  0  0  0  0  0  0  0  0  0  0  0
  -20.2904   13.1010  -18.1935 C   0  0  0  0  0  0  0  0  0  0  0  0
  -20.5207   14.2121  -19.0952 C   0  0  0  0  0  0  0  0  0  0  0  0
  -21.3810   13.9145  -20.0069 O   0  0  0  0  0  0  0  0  0  0  0  0
  -19.9514   15.4821  -19.0788 N   0  0  0  0  0  0  0  0  0  0  0  0
  -20.3966   16.4003  -20.1658 C   0  0  0  0  0  0  0  0  0  0  0  0
  -20.7355   17.7235  -19.5689 C   0  0  0  0  0  0  0  0  0  0  0  0
  -21.3111   18.6816  -20.3701 C   0  0  0  0  0  0  0  0  0  0  0  0
  -21.6501   19.9385  -19.8807 C   0  0  0  0  0  0  0  0  0  0  0  0
  -21.4027   20.2231  -18.5688 C   0  0  0  0  0  0  0  0  0  0  0  0
  -20.8181   19.2441  -17.7606 C   0  0  0  0  0  0  0  0  0  0  0  0
  -20.4812   18.0040  -18.2356 C   0  0  0  0  0  0  0  0  0  0  0  0
  -19.8611   17.0295  -17.2987 C   0  0  0  0  0  0  0  0  0  0  0  0
  -19.0348   16.0911  -18.2001 C   0  0  0  0  0  0  0  0  0  0  0  0
  -18.0623   15.2890  -17.4461 C   0  0  0  0  0  0  0  0  0  0  0  0
  -18.5416   15.1540  -16.1049 O   0  0  0  0  0  0  0  0  0  0  0  0
  -18.9173   14.2763  -15.9408 H   0  0  0  0  0  0  0  0  0  0  0  0
  -17.3089   12.5693  -21.4298 C   0  0  0  0  0  0  0  0  0  0  0  0
  -18.3108   12.9763  -20.6060 N   0  0  0  0  0  0  0  0  0  0  0  0
  -18.4408   12.1813  -19.5954 N   0  0  0  0  0  0  0  0  0  0  0  0
  -17.5209   11.1960  -19.7052 C   0  0  0  0  0  0  0  0  0  0  0  0
  -17.2758   10.0508  -18.7618 C   0  0  0  0  0  0  0  0  0  0  0  0
  -16.7931   11.4145  -20.8530 C   0  0  0  0  0  0  0  0  0  0  0  0
  -15.4686   10.3926  -21.4381 Cl  0  0  0  0  0  0  0  0  0  0  0  0
  -16.7157   14.5205  -22.9803 N   0  0  0  0  0  0  0  0  0  0  0  0
  -16.7711   13.1614  -22.6324 C   0  0  0  0  0  0  0  0  0  0  0  0
  -16.2724   12.3419  -23.4948 O   0  0  0  0  0  0  0  0  0  0  0  0
  -17.2313   15.6385  -22.2621 C   0  0  0  0  0  0  0  0  0  0  0  0
  -16.4874   16.0296  -21.0149 C   0  0  0  0  0  0  0  0  0  0  0  0
  -17.2176   18.3292  -20.4615 C   0  0  0  0  0  0  0  0  0  0  0  0
  -16.1452   17.5172  -21.1802 C   0  0  0  0  0  0  0  0  0  0  0  0
  -15.9362   14.8325  -24.1897 C   0  0  0  0  0  0  0  0  0  0  0  0
  -16.8241   15.3235  -25.2694 C   0  0  0  0  0  0  0  0  0  0  0  0
  -16.0364   15.5840  -26.5573 C   0  0  0  0  0  0  0  0  0  0  0  0
  -14.5642   15.6394  -26.2781 C   0  0  0  0  0  0  0  0  0  0  0  0
  -21.7723   11.8655  -14.9515 C   0  0  0  0  0  0  0  0  0  0  0  0
  -21.2021   11.7059  -13.8390 O   0  0  0  0  0  0  0  0  0  0  0  0
  -23.1805   11.9218  -15.0081 N   0  0  0  0  0  0  0  0  0  0  0  0
  -23.6135   12.0660  -15.9676 H   0  0  0  0  0  0  0  0  0  0  0  0
  -24.2681   11.7898  -13.7012 S   0  0  0  0  0  0  0  0  0  0  0  0
  -24.0300   10.5237  -12.9010 O   0  0  0  0  0  0  0  0  0  0  0  0
  -25.7005   11.7238  -14.1750 O   0  0  0  0  0  0  0  0  0  0  0  0
  -24.0377   13.1207  -12.5984 C   0  0  0  0  0  0  0  0  0  0  0  0
  -24.0422   12.9636  -11.2258 C   0  0  0  0  0  0  0  0  0  0  0  0
  -23.8390   14.0296  -10.3683 C   0  0  0  0  0  0  0  0  0  0  0  0
  -23.6200   15.3133  -10.8549 C   0  0  0  0  0  0  0  0  0  0  0  0
  -23.4105   16.3813  -10.0100 C   0  0  0  0  0  0  0  0  0  0  0  0
  -23.1861   17.6648  -10.5160 C   0  0  0  0  0  0  0  0  0  0  0  0
  -23.1822   17.8243  -11.8869 C   0  0  0  0  0  0  0  0  0  0  0  0
  -23.3934   16.7488  -12.7200 C   0  0  0  0  0  0  0  0  0  0  0  0
  -23.6137   15.4839  -12.2154 C   0  0  0  0  0  0  0  0  0  0  0  0
  -23.8204   14.3971  -13.0733 C   0  0  0  0  0  0  0  0  0  0  0  0
 34 35  1  0  0  0
 35 33  1  0  0  0
 33 32  1  0  0  0
 32 29  1  0  0  0
 29 36  1  0  0  0
 36 37  1  0  0  0
 37 38  1  0  0  0
 38 39  1  0  0  0
 29 30  1  0  0  0
 30 31  2  0  0  0
 30 22  1  0  0  0
 22 23  2  0  0  0
 23 24  1  0  0  0
 24 25  1  0  0  0
 25 26  1  0  0  0
 25 27  2  0  0  0
 27 28  1  0  0  0
 24  1  1  0  0  0
  1  2  2  0  0  0
  2  3  1  0  0  0
  3  4  2  0  0  0
  4  5  1  0  0  0
  5  6  2  0  0  0
  6  7  1  0  0  0
  7  8  2  0  0  0
  7  9  1  0  0  0
  9 10  1  0  0  0
 10 11  1  0  0  0
 11 12  2  0  0  0
 12 13  1  0  0  0
 13 14  2  0  0  0
 14 15  1  0  0  0
 15 16  2  0  0  0
 16 17  1  0  0  0
 17 18  1  0  0  0
 18 19  1  0  0  0
 19 20  1  0  0  0
  4 40  1  0  0  0
 40 41  2  0  0  0
 40 42  1  0  0  0
 42 44  1  0  0  0
 44 45  2  0  0  0
 44 46  2  0  0  0
 44 47  1  0  0  0
 47 48  2  0  0  0
 48 49  1  0  0  0
 49 50  2  0  0  0
 50 51  1  0  0  0
 51 52  2  0  0  0
 52 53  1  0  0  0
 53 54  2  0  0  0
 54 55  1  0  0  0
 55 56  2  0  0  0
 27 22  1  0  0  0
  6  1  1  0  0  0
 18  9  1  0  0  0
 56 47  1  0  0  0
 16 11  1  0  0  0
 55 50  1  0  0  0
 20 21  1  0  0  0
 42 43  1  0  0  0
M  END
> <minimizedAffinity>
-8.86020

> <CNNscore>
0.2366540581

> <CNNaffinity>
7.7941727638

> <CNN_VS>
1.8445225954

> <CNNaffinity_variance>
0.3370634317

$$$$
[H]OC([H])([H])[C@@]1([H])N(C(=O)c2c([H])c(C(=O)N([H])S(=O)(=O)c3c([H])c([H])c4c([H])c([H])c([H])c([H])c4c3[H])c([H])c([H])c2-n2nc(C(=O)N(C([H])([H])C([H])([H])C([H])([H])C([H])([H])[H])C([H])([H])C([H])([H])C([H])([H])C([H])([H])[H])c(Cl)c2C([H])([H])[H])C([H])([H])c2c([H])c([H])c([H])c([H])c2C1([H])[H]


 56 61  0  0  0  0  0  0  0  0999 V2000
  -18.8914   12.1158  -18.1074 C   0  0  0  0  0  0  0  0  0  0  0  0
  -19.0932   10.7278  -18.0592 C   0  0  0  0  0  0  0  0  0  0  0  0
  -19.5451   10.1183  -16.9174 C   0  0  0  0  0  0  0  0  0  0  0  0
  -19.8192   10.8437  -15.7719 C   0  0  0  0  0  0  0  0  0  0  0  0
  -19.6120   12.1996  -15.8464 C   0  0  0  0  0  0  0  0  0  0  0  0
  -19.1574   12.8313  -16.9839 C   0  0  0  0  0  0  0  0  0  0  0  0
  -18.9470   14.2648  -16.9454 C   0  0  0  0  0  0  0  0  0  0  0  0
  -17.7228   14.5729  -17.2030 O   0  0  0  0  0  0  0  0  0  0  0  0
  -19.8668   15.2753  -16.6808 N   0  0  0  0  0  0  0  0  0  0  0  0
  -19.3223   16.6630  -16.7065 C   0  0  0  0  0  0  0  0  0  0  0  0
  -20.2361   17.5235  -17.5105 C   0  0  0  0  0  0  0  0  0  0  0  0
  -19.8517   18.8137  -17.7914 C   0  0  0  0  0  0  0  0  0  0  0  0
  -20.6558   19.6725  -18.5330 C   0  0  0  0  0  0  0  0  0  0  0  0
  -21.8579   19.2169  -18.9922 C   0  0  0  0  0  0  0  0  0  0  0  0
  -22.2414   17.9044  -18.7033 C   0  0  0  0  0  0  0  0  0  0  0  0
  -21.4549   17.0528  -17.9733 C   0  0  0  0  0  0  0  0  0  0  0  0
  -21.9503   15.6742  -17.7157 C   0  0  0  0  0  0  0  0  0  0  0  0
  -21.2488   15.2431  -16.4126 C   0  0  0  0  0  0  0  0  0  0  0  0
  -21.8722   14.0658  -15.7938 C   0  0  0  0  0  0  0  0  0  0  0  0
  -21.9489   14.2927  -14.3834 O   0  0  0  0  0  0  0  0  0  0  0  0
  -22.8466   14.5234  -14.1016 H   0  0  0  0  0  0  0  0  0  0  0  0
  -18.0305   13.8735  -21.1510 C   0  0  0  0  0  0  0  0  0  0  0  0
  -18.7331   13.7691  -19.9918 N   0  0  0  0  0  0  0  0  0  0  0  0
  -18.4632   12.6654  -19.3761 N   0  0  0  0  0  0  0  0  0  0  0  0
  -17.5593   11.9766  -20.1095 C   0  0  0  0  0  0  0  0  0  0  0  0
  -16.9322   10.6470  -19.7925 C   0  0  0  0  0  0  0  0  0  0  0  0
  -17.2684   12.7139  -21.2348 C   0  0  0  0  0  0  0  0  0  0  0  0
  -16.1373   12.2338  -22.5120 Cl  0  0  0  0  0  0  0  0  0  0  0  0
  -17.1194   16.0573  -22.1328 N   0  0  0  0  0  0  0  0  0  0  0  0
  -17.9645   14.9362  -22.1269 C   0  0  0  0  0  0  0  0  0  0  0  0
  -18.7787   14.8435  -23.1231 O   0  0  0  0  0  0  0  0  0  0  0  0
  -16.1671   16.4517  -21.1483 C   0  0  0  0  0  0  0  0  0  0  0  0
  -16.1191   17.9180  -20.8177 C   0  0  0  0  0  0  0  0  0  0  0  0
  -18.1286   19.3469  -21.0358 C   0  0  0  0  0  0  0  0  0  0  0  0
  -17.4818   18.2518  -20.1941 C   0  0  0  0  0  0  0  0  0  0  0  0
  -17.1532   16.8684  -23.3610 C   0  0  0  0  0  0  0  0  0  0  0  0
  -15.8555   16.7919  -24.0719 C   0  0  0  0  0  0  0  0  0  0  0  0
  -15.6354   15.3996  -24.6721 C   0  0  0  0  0  0  0  0  0  0  0  0
  -14.2812   14.8706  -24.3052 C   0  0  0  0  0  0  0  0  0  0  0  0
  -20.3034   10.1756  -14.5616 C   0  0  0  0  0  0  0  0  0  0  0  0
  -20.5552   10.8904  -13.5546 O   0  0  0  0  0  0  0  0  0  0  0  0
  -20.4940    8.7801  -14.4877 N   0  0  0  0  0  0  0  0  0  0  0  0
  -20.2759    8.2222  -15.3652 H   0  0  0  0  0  0  0  0  0  0  0  0
  -21.0435    7.8873  -13.1426 S   0  0  0  0  0  0  0  0  0  0  0  0
  -21.6059    6.5411  -13.5566 O   0  0  0  0  0  0  0  0  0  0  0  0
  -22.1586    8.6035  -12.4186 O   0  0  0  0  0  0  0  0  0  0  0  0
  -19.7135    7.5557  -12.0648 C   0  0  0  0  0  0  0  0  0  0  0  0
  -19.2097    6.2844  -11.8682 C   0  0  0  0  0  0  0  0  0  0  0  0
  -18.1416    6.0450  -11.0227 C   0  0  0  0  0  0  0  0  0  0  0  0
  -17.5254    7.0810  -10.3302 C   0  0  0  0  0  0  0  0  0  0  0  0
  -16.4570    6.8548   -9.4900 C   0  0  0  0  0  0  0  0  0  0  0  0
  -15.8453    7.9088   -8.8055 C   0  0  0  0  0  0  0  0  0  0  0  0
  -16.3475    9.1796   -8.9996 C   0  0  0  0  0  0  0  0  0  0  0  0
  -17.4160    9.3918   -9.8415 C   0  0  0  0  0  0  0  0  0  0  0  0
  -18.0157    8.3481  -10.5153 C   0  0  0  0  0  0  0  0  0  0  0  0
  -19.0973    8.5780  -11.3739 C   0  0  0  0  0  0  0  0  0  0  0  0
 34 35  1  0  0  0
 35 33  1  0  0  0
 33 32  1  0  0  0
 32 29  1  0  0  0
 29 36  1  0  0  0
 36 37  1  0  0  0
 37 38  1  0  0  0
 38 39  1  0  0  0
 29 30  1  0  0  0
 30 31  2  0  0  0
 30 22  1  0  0  0
 22 23  2  0  0  0
 23 24  1  0  0  0
 24 25  1  0  0  0
 25 26  1  0  0  0
 25 27  2  0  0  0
 27 28  1  0  0  0
 24  1  1  0  0  0
  1  2  2  0  0  0
  2  3  1  0  0  0
  3  4  2  0  0  0
  4  5  1  0  0  0
  5  6  2  0  0  0
  6  7  1  0  0  0
  7  8  2  0  0  0
  7  9  1  0  0  0
  9 10  1  0  0  0
 10 11  1  0  0  0
 11 12  2  0  0  0
 12 13  1  0  0  0
 13 14  2  0  0  0
 14 15  1  0  0  0
 15 16  2  0  0  0
 16 17  1  0  0  0
 17 18  1  0  0  0
 18 19  1  0  0  0
 19 20  1  0  0  0
  4 40  1  0  0  0
 40 41  2  0  0  0
 40 42  1  0  0  0
 42 44  1  0  0  0
 44 45  2  0  0  0
 44 46  2  0  0  0
 44 47  1  0  0  0
 47 48  2  0  0  0
 48 49  1  0  0  0
 49 50  2  0  0  0
 50 51  1  0  0  0
 51 52  2  0  0  0
 52 53  1  0  0  0
 53 54  2  0  0  0
 54 55  1  0  0  0
 55 56  2  0  0  0
 27 22  1  0  0  0
  6  1  1  0  0  0
 18  9  1  0  0  0
 56 47  1  0  0  0
 16 11  1  0  0  0
 55 50  1  0  0  0
 20 21  1  0  0  0
 42 43  1  0  0  0
M  END
> <minimizedAffinity>
-9.54194

> <CNNscore>
0.1845585257

> <CNNaffinity>
7.4978532791

> <CNN_VS>
1.3837927580

> <CNNaffinity_variance>
0.5246219039

$$$$
[H]OC([H])([H])[C@@]1([H])N(C(=O)c2c([H])c(C(=O)N([H])S(=O)(=O)c3c([H])c([H])c4c([H])c([H])c([H])c([H])c4c3[H])c([H])c([H])c2-n2nc(C(=O)N(C([H])([H])C([H])([H])C([H])([H])C([H])([H])[H])C([H])([H])C([H])([H])C([H])([H])C([H])([H])[H])c(Cl)c2C([H])([H])[H])C([H])([H])c2c([H])c([H])c([H])c([H])c2C1([H])[H]


 56 61  0  0  0  0  0  0  0  0999 V2000
  -18.7504   12.0603  -18.4435 C   0  0  0  0  0  0  0  0  0  0  0  0
  -19.0228   10.7576  -17.9981 C   0  0  0  0  0  0  0  0  0  0  0  0
  -19.5787   10.5338  -16.7650 C   0  0  0  0  0  0  0  0  0  0  0  0
  -19.8920   11.5784  -15.9141 C   0  0  0  0  0  0  0  0  0  0  0  0
  -19.6140   12.8424  -16.3745 C   0  0  0  0  0  0  0  0  0  0  0  0
  -19.0547   13.0886  -17.6099 C   0  0  0  0  0  0  0  0  0  0  0  0
  -18.7772   14.4605  -17.9858 C   0  0  0  0  0  0  0  0  0  0  0  0
  -17.5113   14.6810  -18.0806 O   0  0  0  0  0  0  0  0  0  0  0  0
  -19.6737   15.4941  -18.2412 N   0  0  0  0  0  0  0  0  0  0  0  0
  -19.0590   16.8052  -18.5963 C   0  0  0  0  0  0  0  0  0  0  0  0
  -19.7551   17.3539  -19.7947 C   0  0  0  0  0  0  0  0  0  0  0  0
  -19.2543   18.4893  -20.3873 C   0  0  0  0  0  0  0  0  0  0  0  0
  -19.8547   19.0576  -21.5057 C   0  0  0  0  0  0  0  0  0  0  0  0
  -20.9709   18.4678  -22.0251 C   0  0  0  0  0  0  0  0  0  0  0  0
  -21.4736   17.3138  -21.4177 C   0  0  0  0  0  0  0  0  0  0  0  0
  -20.8879   16.7485  -20.3159 C   0  0  0  0  0  0  0  0  0  0  0  0
  -21.4979   15.5210  -19.7388 C   0  0  0  0  0  0  0  0  0  0  0  0
  -21.0812   15.5370  -18.2548 C   0  0  0  0  0  0  0  0  0  0  0  0
  -21.8742   14.6147  -17.4315 C   0  0  0  0  0  0  0  0  0  0  0  0
  -23.0252   15.3195  -16.9569 O   0  0  0  0  0  0  0  0  0  0  0  0
  -23.8266   15.0737  -17.4425 H   0  0  0  0  0  0  0  0  0  0  0  0
  -17.7228   12.7039  -21.8529 C   0  0  0  0  0  0  0  0  0  0  0  0
  -18.6041   12.8401  -20.8267 N   0  0  0  0  0  0  0  0  0  0  0  0
  -18.2127   12.1893  -19.7811 N   0  0  0  0  0  0  0  0  0  0  0  0
  -17.0397   11.5812  -20.0702 C   0  0  0  0  0  0  0  0  0  0  0  0
  -16.1939   10.7272  -19.1664 C   0  0  0  0  0  0  0  0  0  0  0  0
  -16.7066   11.8874  -21.3702 C   0  0  0  0  0  0  0  0  0  0  0  0
  -15.2554   11.3242  -22.2174 Cl  0  0  0  0  0  0  0  0  0  0  0  0
  -17.7603   14.6418  -23.5281 N   0  0  0  0  0  0  0  0  0  0  0  0
  -17.7113   13.2836  -23.1757 C   0  0  0  0  0  0  0  0  0  0  0  0
  -17.6409   12.4521  -24.1594 O   0  0  0  0  0  0  0  0  0  0  0  0
  -17.8960   15.7729  -22.6715 C   0  0  0  0  0  0  0  0  0  0  0  0
  -16.8754   15.9043  -21.5748 C   0  0  0  0  0  0  0  0  0  0  0  0
  -15.8541   17.8540  -20.4420 C   0  0  0  0  0  0  0  0  0  0  0  0
  -16.1839   17.2556  -21.8055 C   0  0  0  0  0  0  0  0  0  0  0  0
  -17.5409   14.9334  -24.9544 C   0  0  0  0  0  0  0  0  0  0  0  0
  -16.2590   15.6507  -25.1483 C   0  0  0  0  0  0  0  0  0  0  0  0
  -15.0915   14.6684  -25.2873 C   0  0  0  0  0  0  0  0  0  0  0  0
  -14.2152   14.7089  -24.0713 C   0  0  0  0  0  0  0  0  0  0  0  0
  -20.4875   11.3203  -14.6009 C   0  0  0  0  0  0  0  0  0  0  0  0
  -21.7410   11.3983  -14.4967 O   0  0  0  0  0  0  0  0  0  0  0  0
  -19.7155   10.9927  -13.4668 N   0  0  0  0  0  0  0  0  0  0  0  0
  -18.6642   10.9310  -13.6076 H   0  0  0  0  0  0  0  0  0  0  0  0
  -20.2860   10.6776  -11.8909 S   0  0  0  0  0  0  0  0  0  0  0  0
  -21.1467   11.8125  -11.3702 O   0  0  0  0  0  0  0  0  0  0  0  0
  -19.1491   10.5279  -10.9082 O   0  0  0  0  0  0  0  0  0  0  0  0
  -21.2954    9.2558  -11.8966 C   0  0  0  0  0  0  0  0  0  0  0  0
  -21.0823    8.1911  -12.7508 C   0  0  0  0  0  0  0  0  0  0  0  0
  -21.8836    7.0639  -12.7266 C   0  0  0  0  0  0  0  0  0  0  0  0
  -22.9448    6.9541  -11.8354 C   0  0  0  0  0  0  0  0  0  0  0  0
  -23.7457    5.8335  -11.7986 C   0  0  0  0  0  0  0  0  0  0  0  0
  -24.8052    5.7368  -10.8921 C   0  0  0  0  0  0  0  0  0  0  0  0
  -25.0207    6.7998  -10.0385 C   0  0  0  0  0  0  0  0  0  0  0  0
  -24.2133    7.9139  -10.0860 C   0  0  0  0  0  0  0  0  0  0  0  0
  -23.1684    8.0039  -10.9821 C   0  0  0  0  0  0  0  0  0  0  0  0
  -22.3503    9.1395  -11.0158 C   0  0  0  0  0  0  0  0  0  0  0  0
 34 35  1  0  0  0
 35 33  1  0  0  0
 33 32  1  0  0  0
 32 29  1  0  0  0
 29 36  1  0  0  0
 36 37  1  0  0  0
 37 38  1  0  0  0
 38 39  1  0  0  0
 29 30  1  0  0  0
 30 31  2  0  0  0
 30 22  1  0  0  0
 22 23  2  0  0  0
 23 24  1  0  0  0
 24 25  1  0  0  0
 25 26  1  0  0  0
 25 27  2  0  0  0
 27 28  1  0  0  0
 24  1  1  0  0  0
  1  2  2  0  0  0
  2  3  1  0  0  0
  3  4  2  0  0  0
  4  5  1  0  0  0
  5  6  2  0  0  0
  6  7  1  0  0  0
  7  8  2  0  0  0
  7  9  1  0  0  0
  9 10  1  0  0  0
 10 11  1  0  0  0
 11 12  2  0  0  0
 12 13  1  0  0  0
 13 14  2  0  0  0
 14 15  1  0  0  0
 15 16  2  0  0  0
 16 17  1  0  0  0
 17 18  1  0  0  0
 18 19  1  0  0  0
 19 20  1  0  0  0
  4 40  1  0  0  0
 40 41  2  0  0  0
 40 42  1  0  0  0
 42 44  1  0  0  0
 44 45  2  0  0  0
 44 46  2  0  0  0
 44 47  1  0  0  0
 47 48  2  0  0  0
 48 49  1  0  0  0
 49 50  2  0  0  0
 50 51  1  0  0  0
 51 52  2  0  0  0
 52 53  1  0  0  0
 53 54  2  0  0  0
 54 55  1  0  0  0
 55 56  2  0  0  0
 27 22  1  0  0  0
  6  1  1  0  0  0
 18  9  1  0  0  0
 56 47  1  0  0  0
 16 11  1  0  0  0
 55 50  1  0  0  0
 20 21  1  0  0  0
 42 43  1  0  0  0
M  END
> <minimizedAffinity>
-8.18404

> <CNNscore>
0.1716630310

> <CNNaffinity>
7.4552474022

> <CNN_VS>
1.2797904015

> <CNNaffinity_variance>
0.4571171701

$$$$
[H]OC([H])([H])[C@@]1([H])N(C(=O)c2c([H])c(C(=O)N([H])S(=O)(=O)c3c([H])c([H])c4c([H])c([H])c([H])c([H])c4c3[H])c([H])c([H])c2-n2nc(C(=O)N(C([H])([H])C([H])([H])C([H])([H])C([H])([H])[H])C([H])([H])C([H])([H])C([H])([H])C([H])([H])[H])c(Cl)c2C([H])([H])[H])C([H])([H])c2c([H])c([H])c([H])c([H])c2C1([H])[H]


 56 61  0  0  0  0  0  0  0  0999 V2000
  -18.9341   12.3766  -19.2684 C   0  0  0  0  0  0  0  0  0  0  0  0
  -18.4036   11.2105  -18.6955 C   0  0  0  0  0  0  0  0  0  0  0  0
  -18.9262   10.6895  -17.5400 C   0  0  0  0  0  0  0  0  0  0  0  0
  -19.9926   11.2899  -16.8952 C   0  0  0  0  0  0  0  0  0  0  0  0
  -20.4914   12.4301  -17.4768 C   0  0  0  0  0  0  0  0  0  0  0  0
  -19.9800   12.9702  -18.6371 C   0  0  0  0  0  0  0  0  0  0  0  0
  -20.5644   14.1930  -19.1506 C   0  0  0  0  0  0  0  0  0  0  0  0
  -21.5055   13.9516  -19.9968 O   0  0  0  0  0  0  0  0  0  0  0  0
  -20.2403   15.5113  -18.8439 N   0  0  0  0  0  0  0  0  0  0  0  0
  -21.0310   16.5515  -19.5623 C   0  0  0  0  0  0  0  0  0  0  0  0
  -21.4913   17.5712  -18.5773 C   0  0  0  0  0  0  0  0  0  0  0  0
  -22.3642   18.5477  -18.9965 C   0  0  0  0  0  0  0  0  0  0  0  0
  -22.8317   19.5322  -18.1326 C   0  0  0  0  0  0  0  0  0  0  0  0
  -22.4097   19.5237  -16.8344 C   0  0  0  0  0  0  0  0  0  0  0  0
  -21.5231   18.5278  -16.4156 C   0  0  0  0  0  0  0  0  0  0  0  0
  -21.0580   17.5551  -17.2608 C   0  0  0  0  0  0  0  0  0  0  0  0
  -20.1148   16.5388  -16.7227 C   0  0  0  0  0  0  0  0  0  0  0  0
  -19.3070   16.0668  -17.9477 C   0  0  0  0  0  0  0  0  0  0  0  0
  -18.0868   15.3375  -17.5776 C   0  0  0  0  0  0  0  0  0  0  0  0
  -18.2946   14.7465  -16.2914 O   0  0  0  0  0  0  0  0  0  0  0  0
  -18.4658   13.7950  -16.3529 H   0  0  0  0  0  0  0  0  0  0  0  0
  -17.7186   13.8389  -22.3472 C   0  0  0  0  0  0  0  0  0  0  0  0
  -18.5966   13.8007  -21.3099 N   0  0  0  0  0  0  0  0  0  0  0  0
  -18.3441   12.8126  -20.5162 N   0  0  0  0  0  0  0  0  0  0  0  0
  -17.2746   12.1394  -20.9982 C   0  0  0  0  0  0  0  0  0  0  0  0
  -16.6018   10.9300  -20.4099 C   0  0  0  0  0  0  0  0  0  0  0  0
  -16.8594   12.7636  -22.1526 C   0  0  0  0  0  0  0  0  0  0  0  0
  -15.4920   12.2554  -23.1590 Cl  0  0  0  0  0  0  0  0  0  0  0  0
  -17.1315   16.1089  -23.3792 N   0  0  0  0  0  0  0  0  0  0  0  0
  -17.5768   14.7786  -23.4347 C   0  0  0  0  0  0  0  0  0  0  0  0
  -17.8920   14.3421  -24.6070 O   0  0  0  0  0  0  0  0  0  0  0  0
  -16.7715   16.8735  -22.2313 C   0  0  0  0  0  0  0  0  0  0  0  0
  -17.8991   17.2871  -21.3262 C   0  0  0  0  0  0  0  0  0  0  0  0
  -18.3934   19.1479  -19.7703 C   0  0  0  0  0  0  0  0  0  0  0  0
  -17.2817   18.2482  -20.3002 C   0  0  0  0  0  0  0  0  0  0  0  0
  -16.9136   16.7579  -24.6826 C   0  0  0  0  0  0  0  0  0  0  0  0
  -15.4659   16.9461  -24.9354 C   0  0  0  0  0  0  0  0  0  0  0  0
  -14.9362   15.8993  -25.9208 C   0  0  0  0  0  0  0  0  0  0  0  0
  -14.1830   14.8225  -25.1985 C   0  0  0  0  0  0  0  0  0  0  0  0
  -20.5393   10.7179  -15.6625 C   0  0  0  0  0  0  0  0  0  0  0  0
  -21.7883   10.7552  -15.4989 O   0  0  0  0  0  0  0  0  0  0  0  0
  -19.7258   10.1361  -14.6680 N   0  0  0  0  0  0  0  0  0  0  0  0
  -18.6802   10.1212  -14.8561 H   0  0  0  0  0  0  0  0  0  0  0  0
  -20.2378    9.4460  -13.1949 S   0  0  0  0  0  0  0  0  0  0  0  0
  -21.4488   10.1643  -12.6316 O   0  0  0  0  0  0  0  0  0  0  0  0
  -19.1650    9.5378  -12.1360 O   0  0  0  0  0  0  0  0  0  0  0  0
  -20.7211    7.7901  -13.4497 C   0  0  0  0  0  0  0  0  0  0  0  0
  -20.8281    6.8756  -12.4196 C   0  0  0  0  0  0  0  0  0  0  0  0
  -21.2313    5.5711  -12.6403 C   0  0  0  0  0  0  0  0  0  0  0  0
  -21.5482    5.1219  -13.9171 C   0  0  0  0  0  0  0  0  0  0  0  0
  -21.9566    3.8263  -14.1477 C   0  0  0  0  0  0  0  0  0  0  0  0
  -22.2770    3.3924  -15.4371 C   0  0  0  0  0  0  0  0  0  0  0  0
  -22.1698    4.3039  -16.4680 C   0  0  0  0  0  0  0  0  0  0  0  0
  -21.7600    5.5954  -16.2240 C   0  0  0  0  0  0  0  0  0  0  0  0
  -21.4457    6.0188  -14.9493 C   0  0  0  0  0  0  0  0  0  0  0  0
  -21.0366    7.3367  -14.7134 C   0  0  0  0  0  0  0  0  0  0  0  0
 34 35  1  0  0  0
 35 33  1  0  0  0
 33 32  1  0  0  0
 32 29  1  0  0  0
 29 36  1  0  0  0
 36 37  1  0  0  0
 37 38  1  0  0  0
 38 39  1  0  0  0
 29 30  1  0  0  0
 30 31  2  0  0  0
 30 22  1  0  0  0
 22 23  2  0  0  0
 23 24  1  0  0  0
 24 25  1  0  0  0
 25 26  1  0  0  0
 25 27  2  0  0  0
 27 28  1  0  0  0
 24  1  1  0  0  0
  1  2  2  0  0  0
  2  3  1  0  0  0
  3  4  2  0  0  0
  4  5  1  0  0  0
  5  6  2  0  0  0
  6  7  1  0  0  0
  7  8  2  0  0  0
  7  9  1  0  0  0
  9 10  1  0  0  0
 10 11  1  0  0  0
 11 12  2  0  0  0
 12 13  1  0  0  0
 13 14  2  0  0  0
 14 15  1  0  0  0
 15 16  2  0  0  0
 16 17  1  0  0  0
 17 18  1  0  0  0
 18 19  1  0  0  0
 19 20  1  0  0  0
  4 40  1  0  0  0
 40 41  2  0  0  0
 40 42  1  0  0  0
 42 44  1  0  0  0
 44 45  2  0  0  0
 44 46  2  0  0  0
 44 47  1  0  0  0
 47 48  2  0  0  0
 48 49  1  0  0  0
 49 50  2  0  0  0
 50 51  1  0  0  0
 51 52  2  0  0  0
 52 53  1  0  0  0
 53 54  2  0  0  0
 54 55  1  0  0  0
 55 56  2  0  0  0
 27 22  1  0  0  0
  6  1  1  0  0  0
 18  9  1  0  0  0
 56 47  1  0  0  0
 16 11  1  0  0  0
 55 50  1  0  0  0
 20 21  1  0  0  0
 42 43  1  0  0  0
M  END
> <minimizedAffinity>
-9.18092

> <CNNscore>
0.1671561897

> <CNNaffinity>
7.6315979958

> <CNN_VS>
1.2756688595

> <CNNaffinity_variance>
0.4294652343

$$$$
[H]OC([H])([H])[C@@]1([H])N(C(=O)c2c([H])c(C(=O)N([H])S(=O)(=O)c3c([H])c([H])c4c([H])c([H])c([H])c([H])c4c3[H])c([H])c([H])c2-n2nc(C(=O)N(C([H])([H])C([H])([H])C([H])([H])C([H])([H])[H])C([H])([H])C([H])([H])C([H])([H])C([H])([H])[H])c(Cl)c2C([H])([H])[H])C([H])([H])c2c([H])c([H])c([H])c([H])c2C1([H])[H]


 56 61  0  0  0  0  0  0  0  0999 V2000
  -18.8152   12.0306  -18.2780 C   0  0  0  0  0  0  0  0  0  0  0  0
  -19.0674   10.6651  -18.0743 C   0  0  0  0  0  0  0  0  0  0  0  0
  -19.5598   10.2076  -16.8794 C   0  0  0  0  0  0  0  0  0  0  0  0
  -19.8267   11.0698  -15.8312 C   0  0  0  0  0  0  0  0  0  0  0  0
  -19.5698   12.4002  -16.0572 C   0  0  0  0  0  0  0  0  0  0  0  0
  -19.0741   12.8800  -17.2503 C   0  0  0  0  0  0  0  0  0  0  0  0
  -18.8131   14.3004  -17.3731 C   0  0  0  0  0  0  0  0  0  0  0  0
  -17.5578   14.5654  -17.2541 O   0  0  0  0  0  0  0  0  0  0  0  0
  -19.7143   15.3376  -17.5944 N   0  0  0  0  0  0  0  0  0  0  0  0
  -19.1196   16.7034  -17.6582 C   0  0  0  0  0  0  0  0  0  0  0  0
  -19.6719   17.4134  -18.8469 C   0  0  0  0  0  0  0  0  0  0  0  0
  -19.1494   18.6395  -19.1856 C   0  0  0  0  0  0  0  0  0  0  0  0
  -19.6188   19.3588  -20.2795 C   0  0  0  0  0  0  0  0  0  0  0  0
  -20.6253   18.8283  -21.0338 C   0  0  0  0  0  0  0  0  0  0  0  0
  -21.1508   17.5815  -20.6836 C   0  0  0  0  0  0  0  0  0  0  0  0
  -20.6938   16.8673  -19.6076 C   0  0  0  0  0  0  0  0  0  0  0  0
  -21.3179   15.5497  -19.3133 C   0  0  0  0  0  0  0  0  0  0  0  0
  -21.1074   15.3459  -17.8000 C   0  0  0  0  0  0  0  0  0  0  0  0
  -21.9604   14.2869  -17.2447 C   0  0  0  0  0  0  0  0  0  0  0  0
  -22.9816   14.9056  -16.4564 O   0  0  0  0  0  0  0  0  0  0  0  0
  -23.8355   14.9171  -16.9137 H   0  0  0  0  0  0  0  0  0  0  0  0
  -17.9252   13.3468  -21.5291 C   0  0  0  0  0  0  0  0  0  0  0  0
  -18.7234   13.3249  -20.4288 N   0  0  0  0  0  0  0  0  0  0  0  0
  -18.3465   12.4145  -19.5925 N   0  0  0  0  0  0  0  0  0  0  0  0
  -17.2686   11.7805  -20.1077 C   0  0  0  0  0  0  0  0  0  0  0  0
  -16.4723   10.6629  -19.4927 C   0  0  0  0  0  0  0  0  0  0  0  0
  -16.9806   12.3470  -21.3287 C   0  0  0  0  0  0  0  0  0  0  0  0
  -15.6546   11.8594  -22.3988 Cl  0  0  0  0  0  0  0  0  0  0  0  0
  -17.7232   15.6026  -22.7265 N   0  0  0  0  0  0  0  0  0  0  0  0
  -17.9269   14.2141  -22.6841 C   0  0  0  0  0  0  0  0  0  0  0  0
  -18.1351   13.6437  -23.8221 O   0  0  0  0  0  0  0  0  0  0  0  0
  -17.5280   16.5012  -21.6374 C   0  0  0  0  0  0  0  0  0  0  0  0
  -16.5497   16.0655  -20.5815 C   0  0  0  0  0  0  0  0  0  0  0  0
  -16.1060   18.4564  -21.0447 C   0  0  0  0  0  0  0  0  0  0  0  0
  -15.9610   17.3575  -19.9971 C   0  0  0  0  0  0  0  0  0  0  0  0
  -17.5943   16.1820  -24.0739 C   0  0  0  0  0  0  0  0  0  0  0  0
  -16.2372   16.7424  -24.2723 C   0  0  0  0  0  0  0  0  0  0  0  0
  -15.3703   15.8048  -25.1189 C   0  0  0  0  0  0  0  0  0  0  0  0
  -14.4273   15.0253  -24.2520 C   0  0  0  0  0  0  0  0  0  0  0  0
  -20.3547   10.5633  -14.5622 C   0  0  0  0  0  0  0  0  0  0  0  0
  -21.5775   10.2626  -14.5107 O   0  0  0  0  0  0  0  0  0  0  0  0
  -19.5516   10.4039  -13.4137 N   0  0  0  0  0  0  0  0  0  0  0  0
  -18.5257   10.6631  -13.5099 H   0  0  0  0  0  0  0  0  0  0  0  0
  -20.0459    9.8333  -11.8846 S   0  0  0  0  0  0  0  0  0  0  0  0
  -18.8746    9.3048  -11.0792 O   0  0  0  0  0  0  0  0  0  0  0  0
  -21.0215    8.6872  -12.0082 O   0  0  0  0  0  0  0  0  0  0  0  0
  -20.7337   11.1390  -10.9559 C   0  0  0  0  0  0  0  0  0  0  0  0
  -20.2937   11.4673   -9.6881 C   0  0  0  0  0  0  0  0  0  0  0  0
  -20.8403   12.5192   -8.9752 C   0  0  0  0  0  0  0  0  0  0  0  0
  -21.8626   13.2958   -9.5082 C   0  0  0  0  0  0  0  0  0  0  0  0
  -22.4102   14.3495   -8.8094 C   0  0  0  0  0  0  0  0  0  0  0  0
  -23.4339   15.1241   -9.3624 C   0  0  0  0  0  0  0  0  0  0  0  0
  -23.8758   14.7972  -10.6285 C   0  0  0  0  0  0  0  0  0  0  0  0
  -23.3203   13.7415  -11.3158 C   0  0  0  0  0  0  0  0  0  0  0  0
  -22.3096   12.9807  -10.7656 C   0  0  0  0  0  0  0  0  0  0  0  0
  -21.7485   11.9138  -11.4775 C   0  0  0  0  0  0  0  0  0  0  0  0
 34 35  1  0  0  0
 35 33  1  0  0  0
 33 32  1  0  0  0
 32 29  1  0  0  0
 29 36  1  0  0  0
 36 37  1  0  0  0
 37 38  1  0  0  0
 38 39  1  0  0  0
 29 30  1  0  0  0
 30 31  2  0  0  0
 30 22  1  0  0  0
 22 23  2  0  0  0
 23 24  1  0  0  0
 24 25  1  0  0  0
 25 26  1  0  0  0
 25 27  2  0  0  0
 27 28  1  0  0  0
 24  1  1  0  0  0
  1  2  2  0  0  0
  2  3  1  0  0  0
  3  4  2  0  0  0
  4  5  1  0  0  0
  5  6  2  0  0  0
  6  7  1  0  0  0
  7  8  2  0  0  0
  7  9  1  0  0  0
  9 10  1  0  0  0
 10 11  1  0  0  0
 11 12  2  0  0  0
 12 13  1  0  0  0
 13 14  2  0  0  0
 14 15  1  0  0  0
 15 16  2  0  0  0
 16 17  1  0  0  0
 17 18  1  0  0  0
 18 19  1  0  0  0
 19 20  1  0  0  0
  4 40  1  0  0  0
 40 41  2  0  0  0
 40 42  1  0  0  0
 42 44  1  0  0  0
 44 45  2  0  0  0
 44 46  2  0  0  0
 44 47  1  0  0  0
 47 48  2  0  0  0
 48 49  1  0  0  0
 49 50  2  0  0  0
 50 51  1  0  0  0
 51 52  2  0  0  0
 52 53  1  0  0  0
 53 54  2  0  0  0
 54 55  1  0  0  0
 55 56  2  0  0  0
 27 22  1  0  0  0
  6  1  1  0  0  0
 18  9  1  0  0  0
 56 47  1  0  0  0
 16 11  1  0  0  0
 55 50  1  0  0  0
 20 21  1  0  0  0
 42 43  1  0  0  0
M  END
> <minimizedAffinity>
-8.54081

> <CNNscore>
0.1588008255

> <CNNaffinity>
7.6381711960

> <CNN_VS>
1.2129478455

> <CNNaffinity_variance>
0.3094993234

$$$$
[H]OC([H])([H])[C@@]1([H])N(C(=O)c2c([H])c(C(=O)N([H])S(=O)(=O)c3c([H])c([H])c4c([H])c([H])c([H])c([H])c4c3[H])c([H])c([H])c2-n2nc(C(=O)N(C([H])([H])C([H])([H])C([H])([H])C([H])([H])[H])C([H])([H])C([H])([H])C([H])([H])C([H])([H])[H])c(Cl)c2C([H])([H])[H])C([H])([H])c2c([H])c([H])c([H])c([H])c2C1([H])[H]


 56 61  0  0  0  0  0  0  0  0999 V2000
  -19.3234   13.7324  -18.7947 C   0  0  0  0  0  0  0  0  0  0  0  0
  -18.5807   12.7107  -18.1830 C   0  0  0  0  0  0  0  0  0  0  0  0
  -19.0760   12.0257  -17.1037 C   0  0  0  0  0  0  0  0  0  0  0  0
  -20.3221   12.3130  -16.5763 C   0  0  0  0  0  0  0  0  0  0  0  0
  -21.0268   13.3178  -17.1933 C   0  0  0  0  0  0  0  0  0  0  0  0
  -20.5466   14.0188  -18.2784 C   0  0  0  0  0  0  0  0  0  0  0  0
  -21.3618   15.0793  -18.8364 C   0  0  0  0  0  0  0  0  0  0  0  0
  -21.8650   14.7440  -19.9741 O   0  0  0  0  0  0  0  0  0  0  0  0
  -21.6421   16.3355  -18.3068 N   0  0  0  0  0  0  0  0  0  0  0  0
  -22.5148   17.2065  -19.1451 C   0  0  0  0  0  0  0  0  0  0  0  0
  -23.5764   17.7974  -18.2815 C   0  0  0  0  0  0  0  0  0  0  0  0
  -24.5847   18.5200  -18.8751 C   0  0  0  0  0  0  0  0  0  0  0  0
  -25.6051   19.1018  -18.1305 C   0  0  0  0  0  0  0  0  0  0  0  0
  -25.6007   18.9478  -16.7741 C   0  0  0  0  0  0  0  0  0  0  0  0
  -24.5731   18.2116  -16.1781 C   0  0  0  0  0  0  0  0  0  0  0  0
  -23.5645   17.6359  -16.9049 C   0  0  0  0  0  0  0  0  0  0  0  0
  -22.5136   16.8729  -16.1801 C   0  0  0  0  0  0  0  0  0  0  0  0
  -21.2743   16.9486  -17.0936 C   0  0  0  0  0  0  0  0  0  0  0  0
  -20.0341   16.5734  -16.4017 C   0  0  0  0  0  0  0  0  0  0  0  0
  -20.2831   16.6055  -14.9933 O   0  0  0  0  0  0  0  0  0  0  0  0
  -20.3859   15.7163  -14.6229 H   0  0  0  0  0  0  0  0  0  0  0  0
  -18.1171   15.0222  -21.9531 C   0  0  0  0  0  0  0  0  0  0  0  0
  -18.8136   14.1093  -21.2252 N   0  0  0  0  0  0  0  0  0  0  0  0
  -18.7319   14.3560  -19.9593 N   0  0  0  0  0  0  0  0  0  0  0  0
  -17.9652   15.4568  -19.7867 C   0  0  0  0  0  0  0  0  0  0  0  0
  -17.5999   16.1357  -18.4956 C   0  0  0  0  0  0  0  0  0  0  0  0
  -17.5629   15.8982  -21.0269 C   0  0  0  0  0  0  0  0  0  0  0  0
  -16.5373   17.3114  -21.3300 Cl  0  0  0  0  0  0  0  0  0  0  0  0
  -17.2167   14.3924  -24.2673 N   0  0  0  0  0  0  0  0  0  0  0  0
  -17.9673   15.1810  -23.3808 C   0  0  0  0  0  0  0  0  0  0  0  0
  -18.6072   16.1667  -23.9127 O   0  0  0  0  0  0  0  0  0  0  0  0
  -16.3725   13.2840  -23.9665 C   0  0  0  0  0  0  0  0  0  0  0  0
  -14.9600   13.6117  -23.5672 C   0  0  0  0  0  0  0  0  0  0  0  0
  -13.7378   14.9015  -25.2906 C   0  0  0  0  0  0  0  0  0  0  0  0
  -14.6894   15.0241  -24.1051 C   0  0  0  0  0  0  0  0  0  0  0  0
  -17.4104   14.6885  -25.6964 C   0  0  0  0  0  0  0  0  0  0  0  0
  -17.1348   13.4876  -26.5193 C   0  0  0  0  0  0  0  0  0  0  0  0
  -16.5173   13.8713  -27.8679 C   0  0  0  0  0  0  0  0  0  0  0  0
  -16.3079   15.3536  -27.9541 C   0  0  0  0  0  0  0  0  0  0  0  0
  -20.8360   11.5692  -15.4238 C   0  0  0  0  0  0  0  0  0  0  0  0
  -21.2604   10.3988  -15.6194 O   0  0  0  0  0  0  0  0  0  0  0  0
  -20.8709   12.1120  -14.1224 N   0  0  0  0  0  0  0  0  0  0  0  0
  -20.4942   13.0987  -14.0074 H   0  0  0  0  0  0  0  0  0  0  0  0
  -21.4472   11.3542  -12.7075 S   0  0  0  0  0  0  0  0  0  0  0  0
  -22.6944   10.5355  -12.9797 O   0  0  0  0  0  0  0  0  0  0  0  0
  -21.8303   12.3648  -11.6528 O   0  0  0  0  0  0  0  0  0  0  0  0
  -20.2504   10.2418  -12.0986 C   0  0  0  0  0  0  0  0  0  0  0  0
  -20.0733    8.9749  -12.6204 C   0  0  0  0  0  0  0  0  0  0  0  0
  -19.1053    8.1141  -12.1352 C   0  0  0  0  0  0  0  0  0  0  0  0
  -18.2639    8.4903  -11.0945 C   0  0  0  0  0  0  0  0  0  0  0  0
  -17.2925    7.6433  -10.6074 C   0  0  0  0  0  0  0  0  0  0  0  0
  -16.4508    8.0394   -9.5641 C   0  0  0  0  0  0  0  0  0  0  0  0
  -16.6267    9.3043   -9.0405 C   0  0  0  0  0  0  0  0  0  0  0  0
  -17.6015   10.1406   -9.5361 C   0  0  0  0  0  0  0  0  0  0  0  0
  -18.4291    9.7449  -10.5665 C   0  0  0  0  0  0  0  0  0  0  0  0
  -19.4123   10.6073  -11.0661 C   0  0  0  0  0  0  0  0  0  0  0  0
 34 35  1  0  0  0
 35 33  1  0  0  0
 33 32  1  0  0  0
 32 29  1  0  0  0
 29 36  1  0  0  0
 36 37  1  0  0  0
 37 38  1  0  0  0
 38 39  1  0  0  0
 29 30  1  0  0  0
 30 31  2  0  0  0
 30 22  1  0  0  0
 22 23  2  0  0  0
 23 24  1  0  0  0
 24 25  1  0  0  0
 25 26  1  0  0  0
 25 27  2  0  0  0
 27 28  1  0  0  0
 24  1  1  0  0  0
  1  2  2  0  0  0
  2  3  1  0  0  0
  3  4  2  0  0  0
  4  5  1  0  0  0
  5  6  2  0  0  0
  6  7  1  0  0  0
  7  8  2  0  0  0
  7  9  1  0  0  0
  9 10  1  0  0  0
 10 11  1  0  0  0
 11 12  2  0  0  0
 12 13  1  0  0  0
 13 14  2  0  0  0
 14 15  1  0  0  0
 15 16  2  0  0  0
 16 17  1  0  0  0
 17 18  1  0  0  0
 18 19  1  0  0  0
 19 20  1  0  0  0
  4 40  1  0  0  0
 40 41  2  0  0  0
 40 42  1  0  0  0
 42 44  1  0  0  0
 44 45  2  0  0  0
 44 46  2  0  0  0
 44 47  1  0  0  0
 47 48  2  0  0  0
 48 49  1  0  0  0
 49 50  2  0  0  0
 50 51  1  0  0  0
 51 52  2  0  0  0
 52 53  1  0  0  0
 53 54  2  0  0  0
 54 55  1  0  0  0
 55 56  2  0  0  0
 27 22  1  0  0  0
  6  1  1  0  0  0
 18  9  1  0  0  0
 56 47  1  0  0  0
 16 11  1  0  0  0
 55 50  1  0  0  0
 20 21  1  0  0  0
 42 43  1  0  0  0
M  END
> <minimizedAffinity>
-9.51536

> <CNNscore>
0.1438648105

> <CNNaffinity>
7.0548810959

> <CNN_VS>
1.0149490833

> <CNNaffinity_variance>
0.6952382922

$$$$
[H]c1c([H])c([H])c2c(c1[H])c1c3c(c4c5c([H])c([H])c([H])c([H])c5n5c4c1n2[C@@]1([H])O[C@@]5(C([H])([H])[H])[C@]([H])(OC([H])([H])[H])[C@]([H])(OC([H])([H])[H])C1([H])[H])C([H])([H])N([H])C3=O


 36 43  0  0  0  0  0  0  0  0999 V2000
  -20.5697   16.3944  -18.3958 C   0  0  0  0  0  0  0  0  0  0  0  0
  -21.3476   15.9048  -17.1502 C   0  0  0  0  0  0  0  0  0  0  0  0
  -21.1400   14.3749  -16.8751 C   0  0  0  0  0  0  0  0  0  0  0  0
  -20.4216   13.9764  -17.9782 C   0  0  0  0  0  0  0  0  0  0  0  0
  -21.2191   14.3203  -19.0605 O   0  0  0  0  0  0  0  0  0  0  0  0
  -20.6728   15.5488  -19.5663 C   0  0  0  0  0  0  0  0  0  0  0  0
  -21.8539   15.9918  -20.4938 C   0  0  0  0  0  0  0  0  0  0  0  0
  -19.5585   15.1506  -20.3787 N   0  0  0  0  0  0  0  0  0  0  0  0
  -19.1263   15.8407  -21.4472 C   0  0  0  0  0  0  0  0  0  0  0  0
  -19.4273   17.0645  -21.9974 C   0  0  0  0  0  0  0  0  0  0  0  0
  -18.7785   17.5224  -23.1441 C   0  0  0  0  0  0  0  0  0  0  0  0
  -17.8077   16.7848  -23.7869 C   0  0  0  0  0  0  0  0  0  0  0  0
  -17.5005   15.5567  -23.2399 C   0  0  0  0  0  0  0  0  0  0  0  0
  -18.1451   15.1174  -22.1122 C   0  0  0  0  0  0  0  0  0  0  0  0
  -17.9688   13.9600  -21.4331 C   0  0  0  0  0  0  0  0  0  0  0  0
  -17.1969   12.8136  -21.5698 C   0  0  0  0  0  0  0  0  0  0  0  0
  -16.1970   12.4969  -22.6007 C   0  0  0  0  0  0  0  0  0  0  0  0
  -15.7081   11.1929  -22.2700 N   0  0  0  0  0  0  0  0  0  0  0  0
  -16.3711   10.7102  -21.0777 C   0  0  0  0  0  0  0  0  0  0  0  0
  -16.0821    9.5960  -20.6291 O   0  0  0  0  0  0  0  0  0  0  0  0
  -17.2774   11.7329  -20.6776 C   0  0  0  0  0  0  0  0  0  0  0  0
  -18.1497   11.7857  -19.6068 C   0  0  0  0  0  0  0  0  0  0  0  0
  -18.4624   10.9986  -18.5439 C   0  0  0  0  0  0  0  0  0  0  0  0
  -18.0491    9.7585  -18.1281 C   0  0  0  0  0  0  0  0  0  0  0  0
  -18.5649    9.2091  -16.9700 C   0  0  0  0  0  0  0  0  0  0  0  0
  -19.4984    9.9101  -16.2302 C   0  0  0  0  0  0  0  0  0  0  0  0
  -19.9403   11.1763  -16.6272 C   0  0  0  0  0  0  0  0  0  0  0  0
  -19.3978   11.7019  -17.8033 C   0  0  0  0  0  0  0  0  0  0  0  0
  -19.6647   12.8643  -18.3616 N   0  0  0  0  0  0  0  0  0  0  0  0
  -18.9003   12.9281  -19.4931 C   0  0  0  0  0  0  0  0  0  0  0  0
  -18.8161   13.9951  -20.3953 C   0  0  0  0  0  0  0  0  0  0  0  0
  -14.9805   10.6902  -22.8258 H   0  0  0  0  0  0  0  0  0  0  0  0
  -19.2242   18.3012  -18.5509 C   0  0  0  0  0  0  0  0  0  0  0  0
  -19.3884   17.0256  -18.0978 O   0  0  0  0  0  0  0  0  0  0  0  0
  -20.9115   16.6493  -16.0605 O   0  0  0  0  0  0  0  0  0  0  0  0
  -21.7992   16.5082  -14.9688 C   0  0  0  0  0  0  0  0  0  0  0  0
 33 34  1  0  0  0
 34  1  1  0  0  0
  1  2  1  0  0  0
  2  3  1  0  0  0
  3  4  1  0  0  0
  4  5  1  0  0  0
  5  6  1  0  0  0
  6  7  1  0  0  0
  6  8  1  0  0  0
  8  9  1  0  0  0
  9 10  2  0  0  0
 10 11  1  0  0  0
 11 12  2  0  0  0
 12 13  1  0  0  0
 13 14  2  0  0  0
 14 15  1  0  0  0
 15 16  2  0  0  0
 16 17  1  0  0  0
 17 18  1  0  0  0
 18 19  1  0  0  0
 19 20  2  0  0  0
 19 21  1  0  0  0
 21 22  2  0  0  0
 22 23  1  0  0  0
 23 24  2  0  0  0
 24 25  1  0  0  0
 25 26  2  0  0  0
 26 27  1  0  0  0
 27 28  2  0  0  0
 28 29  1  0  0  0
 29 30  1  0  0  0
 30 31  2  0  0  0
  2 35  1  0  0  0
 35 36  1  0  0  0
  6  1  1  0  0  0
 31  8  1  0  0  0
 29  4  1  0  0  0
 14  9  1  0  0  0
 31 15  1  0  0  0
 21 16  1  0  0  0
 30 22  1  0  0  0
 28 23  1  0  0  0
 18 32  1  0  0  0
M  END
> <minimizedAffinity>
-11.02323

> <CNNscore>
0.8954308033

> <CNNaffinity>
7.1020555496

> <CNN_VS>
6.3593993187

> <CNNaffinity_variance>
0.0518592224

$$$$
[H]c1c([H])c([H])c2c(c1[H])c1c3c(c4c5c([H])c([H])c([H])c([H])c5n5c4c1n2[C@@]1([H])O[C@@]5(C([H])([H])[H])[C@]([H])(OC([H])([H])[H])[C@]([H])(OC([H])([H])[H])C1([H])[H])C([H])([H])N([H])C3=O


 36 43  0  0  0  0  0  0  0  0999 V2000
  -20.3017   17.2215  -20.3705 C   0  0  0  0  0  0  0  0  0  0  0  0
  -19.7395   18.2075  -21.4232 C   0  0  0  0  0  0  0  0  0  0  0  0
  -18.4824   17.6385  -22.1684 C   0  0  0  0  0  0  0  0  0  0  0  0
  -18.2403   16.4722  -21.4805 C   0  0  0  0  0  0  0  0  0  0  0  0
  -18.0658   16.8707  -20.1629 O   0  0  0  0  0  0  0  0  0  0  0  0
  -19.3167   16.6008  -19.5102 C   0  0  0  0  0  0  0  0  0  0  0  0
  -19.1022   17.4227  -18.1950 C   0  0  0  0  0  0  0  0  0  0  0  0
  -19.2780   15.1994  -19.2026 N   0  0  0  0  0  0  0  0  0  0  0  0
  -19.9104   14.6448  -18.1551 C   0  0  0  0  0  0  0  0  0  0  0  0
  -20.8112   15.0936  -17.2181 C   0  0  0  0  0  0  0  0  0  0  0  0
  -21.3084   14.2469  -16.2275 C   0  0  0  0  0  0  0  0  0  0  0  0
  -20.9315   12.9247  -16.1297 C   0  0  0  0  0  0  0  0  0  0  0  0
  -20.0288   12.4679  -17.0668 C   0  0  0  0  0  0  0  0  0  0  0  0
  -19.5471   13.3098  -18.0359 C   0  0  0  0  0  0  0  0  0  0  0  0
  -18.6762   13.0392  -19.0358 C   0  0  0  0  0  0  0  0  0  0  0  0
  -17.9281   11.9482  -19.4591 C   0  0  0  0  0  0  0  0  0  0  0  0
  -17.8836   10.5906  -18.8954 C   0  0  0  0  0  0  0  0  0  0  0  0
  -16.9518    9.8703  -19.7089 N   0  0  0  0  0  0  0  0  0  0  0  0
  -16.4335   10.7386  -20.7441 C   0  0  0  0  0  0  0  0  0  0  0  0
  -15.6112   10.2974  -21.5536 O   0  0  0  0  0  0  0  0  0  0  0  0
  -17.0564   12.0054  -20.5578 C   0  0  0  0  0  0  0  0  0  0  0  0
  -16.9196   13.1822  -21.2696 C   0  0  0  0  0  0  0  0  0  0  0  0
  -16.2465   13.5995  -22.3741 C   0  0  0  0  0  0  0  0  0  0  0  0
  -15.3552   12.9975  -23.2253 C   0  0  0  0  0  0  0  0  0  0  0  0
  -14.8302   13.7035  -24.2906 C   0  0  0  0  0  0  0  0  0  0  0  0
  -15.2038   15.0178  -24.4984 C   0  0  0  0  0  0  0  0  0  0  0  0
  -16.1102   15.6602  -23.6487 C   0  0  0  0  0  0  0  0  0  0  0  0
  -16.6215   14.9166  -22.5813 C   0  0  0  0  0  0  0  0  0  0  0  0
  -17.4793   15.3129  -21.6642 N   0  0  0  0  0  0  0  0  0  0  0  0
  -17.6690   14.2446  -20.8327 C   0  0  0  0  0  0  0  0  0  0  0  0
  -18.5282   14.1762  -19.7296 C   0  0  0  0  0  0  0  0  0  0  0  0
  -16.7032    8.8677  -19.5537 H   0  0  0  0  0  0  0  0  0  0  0  0
  -22.5732   16.7065  -20.1569 C   0  0  0  0  0  0  0  0  0  0  0  0
  -21.3903   16.5086  -20.8059 O   0  0  0  0  0  0  0  0  0  0  0  0
  -20.7539   18.4757  -22.3347 O   0  0  0  0  0  0  0  0  0  0  0  0
  -20.2607   19.2246  -23.4282 C   0  0  0  0  0  0  0  0  0  0  0  0
 33 34  1  0  0  0
 34  1  1  0  0  0
  1  2  1  0  0  0
  2  3  1  0  0  0
  3  4  1  0  0  0
  4  5  1  0  0  0
  5  6  1  0  0  0
  6  7  1  0  0  0
  6  8  1  0  0  0
  8  9  1  0  0  0
  9 10  2  0  0  0
 10 11  1  0  0  0
 11 12  2  0  0  0
 12 13  1  0  0  0
 13 14  2  0  0  0
 14 15  1  0  0  0
 15 16  2  0  0  0
 16 17  1  0  0  0
 17 18  1  0  0  0
 18 19  1  0  0  0
 19 20  2  0  0  0
 19 21  1  0  0  0
 21 22  2  0  0  0
 22 23  1  0  0  0
 23 24  2  0  0  0
 24 25  1  0  0  0
 25 26  2  0  0  0
 26 27  1  0  0  0
 27 28  2  0  0  0
 28 29  1  0  0  0
 29 30  1  0  0  0
 30 31  2  0  0  0
  2 35  1  0  0  0
 35 36  1  0  0  0
  6  1  1  0  0  0
 31  8  1  0  0  0
 29  4  1  0  0  0
 14  9  1  0  0  0
 31 15  1  0  0  0
 21 16  1  0  0  0
 30 22  1  0  0  0
 28 23  1  0  0  0
 18 32  1  0  0  0
M  END
> <minimizedAffinity>
-9.96108

> <CNNscore>
0.5422006249

> <CNNaffinity>
6.9345040321

> <CNN_VS>
3.7598924637

> <CNNaffinity_variance>
0.1743580401

$$$$
[H]c1c([H])c([H])c2c(c1[H])c1c3c(c4c5c([H])c([H])c([H])c([H])c5n5c4c1n2[C@@]1([H])O[C@@]5(C([H])([H])[H])[C@]([H])(OC([H])([H])[H])[C@]([H])(OC([H])([H])[H])C1([H])[H])C([H])([H])N([H])C3=O


 36 43  0  0  0  0  0  0  0  0999 V2000
  -21.3399   17.9255  -21.4201 C   0  0  0  0  0  0  0  0  0  0  0  0
  -20.9078   18.5513  -22.7684 C   0  0  0  0  0  0  0  0  0  0  0  0
  -19.7351   17.7629  -23.4485 C   0  0  0  0  0  0  0  0  0  0  0  0
  -19.4064   16.8409  -22.4822 C   0  0  0  0  0  0  0  0  0  0  0  0
  -19.0913   17.6000  -21.3642 O   0  0  0  0  0  0  0  0  0  0  0  0
  -20.2595   17.5588  -20.5292 C   0  0  0  0  0  0  0  0  0  0  0  0
  -19.9092   18.7215  -19.5408 C   0  0  0  0  0  0  0  0  0  0  0  0
  -20.1725   16.3061  -19.8340 N   0  0  0  0  0  0  0  0  0  0  0  0
  -20.6794   16.0930  -18.6082 C   0  0  0  0  0  0  0  0  0  0  0  0
  -21.4756   16.8141  -17.7497 C   0  0  0  0  0  0  0  0  0  0  0  0
  -21.8515   16.3020  -16.5080 C   0  0  0  0  0  0  0  0  0  0  0  0
  -21.4525   15.0567  -16.0720 C   0  0  0  0  0  0  0  0  0  0  0  0
  -20.6543   14.3280  -16.9285 C   0  0  0  0  0  0  0  0  0  0  0  0
  -20.2915   14.8421  -18.1468 C   0  0  0  0  0  0  0  0  0  0  0  0
  -19.5338   14.2739  -19.1136 C   0  0  0  0  0  0  0  0  0  0  0  0
  -18.8259   13.0907  -19.2807 C   0  0  0  0  0  0  0  0  0  0  0  0
  -18.7054   11.9540  -18.3554 C   0  0  0  0  0  0  0  0  0  0  0  0
  -17.8619   11.0083  -19.0209 N   0  0  0  0  0  0  0  0  0  0  0  0
  -17.4703   11.5276  -20.3137 C   0  0  0  0  0  0  0  0  0  0  0  0
  -16.7381   10.8525  -21.0446 O   0  0  0  0  0  0  0  0  0  0  0  0
  -18.0817   12.8076  -20.4367 C   0  0  0  0  0  0  0  0  0  0  0  0
  -18.0367   13.7244  -21.4700 C   0  0  0  0  0  0  0  0  0  0  0  0
  -17.4943   13.7887  -22.7144 C   0  0  0  0  0  0  0  0  0  0  0  0
  -16.6964   12.9461  -23.4459 C   0  0  0  0  0  0  0  0  0  0  0  0
  -16.2998   13.3013  -24.7209 C   0  0  0  0  0  0  0  0  0  0  0  0
  -16.7077   14.5070  -25.2594 C   0  0  0  0  0  0  0  0  0  0  0  0
  -17.5210   15.3881  -24.5395 C   0  0  0  0  0  0  0  0  0  0  0  0
  -17.9034   14.9972  -23.2531 C   0  0  0  0  0  0  0  0  0  0  0  0
  -18.6585   15.6614  -22.4029 N   0  0  0  0  0  0  0  0  0  0  0  0
  -18.7441   14.8843  -21.2815 C   0  0  0  0  0  0  0  0  0  0  0  0
  -19.4752   15.1576  -20.1195 C   0  0  0  0  0  0  0  0  0  0  0  0
  -17.5874   10.0883  -18.6093 H   0  0  0  0  0  0  0  0  0  0  0  0
  -23.5657   17.5408  -20.8134 C   0  0  0  0  0  0  0  0  0  0  0  0
  -22.4627   17.1416  -21.5085 O   0  0  0  0  0  0  0  0  0  0  0  0
  -22.0195   18.5667  -23.6024 O   0  0  0  0  0  0  0  0  0  0  0  0
  -22.1033   19.7914  -24.3044 C   0  0  0  0  0  0  0  0  0  0  0  0
 33 34  1  0  0  0
 34  1  1  0  0  0
  1  2  1  0  0  0
  2  3  1  0  0  0
  3  4  1  0  0  0
  4  5  1  0  0  0
  5  6  1  0  0  0
  6  7  1  0  0  0
  6  8  1  0  0  0
  8  9  1  0  0  0
  9 10  2  0  0  0
 10 11  1  0  0  0
 11 12  2  0  0  0
 12 13  1  0  0  0
 13 14  2  0  0  0
 14 15  1  0  0  0
 15 16  2  0  0  0
 16 17  1  0  0  0
 17 18  1  0  0  0
 18 19  1  0  0  0
 19 20  2  0  0  0
 19 21  1  0  0  0
 21 22  2  0  0  0
 22 23  1  0  0  0
 23 24  2  0  0  0
 24 25  1  0  0  0
 25 26  2  0  0  0
 26 27  1  0  0  0
 27 28  2  0  0  0
 28 29  1  0  0  0
 29 30  1  0  0  0
 30 31  2  0  0  0
  2 35  1  0  0  0
 35 36  1  0  0  0
  6  1  1  0  0  0
 31  8  1  0  0  0
 29  4  1  0  0  0
 14  9  1  0  0  0
 31 15  1  0  0  0
 21 16  1  0  0  0
 30 22  1  0  0  0
 28 23  1  0  0  0
 18 32  1  0  0  0
M  END
> <minimizedAffinity>
-9.90717

> <CNNscore>
0.4470067918

> <CNNaffinity>
6.5631699562

> <CNN_VS>
2.9337816238

> <CNNaffinity_variance>
0.2245248109

$$$$
[H]c1c([H])c([H])c2c(c1[H])c1c3c(c4c5c([H])c([H])c([H])c([H])c5n5c4c1n2[C@@]1([H])O[C@@]5(C([H])([H])[H])[C@]([H])(OC([H])([H])[H])[C@]([H])(OC([H])([H])[H])C1([H])[H])C([H])([H])N([H])C3=O


 36 43  0  0  0  0  0  0  0  0999 V2000
  -20.2038   18.2052  -21.7508 C   0  0  0  0  0  0  0  0  0  0  0  0
  -19.5839   19.2286  -22.7330 C   0  0  0  0  0  0  0  0  0  0  0  0
  -18.2664   18.7001  -23.3994 C   0  0  0  0  0  0  0  0  0  0  0  0
  -18.0546   17.5190  -22.7270 C   0  0  0  0  0  0  0  0  0  0  0  0
  -17.9831   17.8832  -21.3900 O   0  0  0  0  0  0  0  0  0  0  0  0
  -19.2731   17.5760  -20.8378 C   0  0  0  0  0  0  0  0  0  0  0  0
  -19.1689   18.3642  -19.4890 C   0  0  0  0  0  0  0  0  0  0  0  0
  -19.2324   16.1673  -20.5656 N   0  0  0  0  0  0  0  0  0  0  0  0
  -19.9293   15.5740  -19.5823 C   0  0  0  0  0  0  0  0  0  0  0  0
  -20.9034   15.9826  -18.7018 C   0  0  0  0  0  0  0  0  0  0  0  0
  -21.4564   15.1010  -17.7731 C   0  0  0  0  0  0  0  0  0  0  0  0
  -21.0646   13.7826  -17.6833 C   0  0  0  0  0  0  0  0  0  0  0  0
  -20.0884   13.3661  -18.5639 C   0  0  0  0  0  0  0  0  0  0  0  0
  -19.5525   14.2421  -19.4725 C   0  0  0  0  0  0  0  0  0  0  0  0
  -18.6067   14.0128  -20.4131 C   0  0  0  0  0  0  0  0  0  0  0  0
  -17.8110   12.9458  -20.8096 C   0  0  0  0  0  0  0  0  0  0  0  0
  -17.7839   11.5738  -20.2806 C   0  0  0  0  0  0  0  0  0  0  0  0
  -16.7831   10.8910  -21.0427 N   0  0  0  0  0  0  0  0  0  0  0  0
  -16.2063   11.7957  -22.0138 C   0  0  0  0  0  0  0  0  0  0  0  0
  -15.3199   11.3899  -22.7726 O   0  0  0  0  0  0  0  0  0  0  0  0
  -16.8630   13.0470  -21.8398 C   0  0  0  0  0  0  0  0  0  0  0  0
  -16.6955   14.2452  -22.5081 C   0  0  0  0  0  0  0  0  0  0  0  0
  -15.9515   14.7034  -23.5490 C   0  0  0  0  0  0  0  0  0  0  0  0
  -14.9904   14.1392  -24.3486 C   0  0  0  0  0  0  0  0  0  0  0  0
  -14.4020   14.8826  -25.3536 C   0  0  0  0  0  0  0  0  0  0  0  0
  -14.7824   16.1963  -25.5530 C   0  0  0  0  0  0  0  0  0  0  0  0
  -15.7590   16.8007  -24.7549 C   0  0  0  0  0  0  0  0  0  0  0  0
  -16.3334   16.0198  -23.7479 C   0  0  0  0  0  0  0  0  0  0  0  0
  -17.2622   16.3771  -22.8855 N   0  0  0  0  0  0  0  0  0  0  0  0
  -17.4931   15.2833  -22.0988 C   0  0  0  0  0  0  0  0  0  0  0  0
  -18.4287   15.1709  -21.0637 C   0  0  0  0  0  0  0  0  0  0  0  0
  -16.5290    9.8884  -20.8966 H   0  0  0  0  0  0  0  0  0  0  0  0
  -22.4488   17.5577  -21.6459 C   0  0  0  0  0  0  0  0  0  0  0  0
  -21.2454   17.4880  -22.2833 O   0  0  0  0  0  0  0  0  0  0  0  0
  -20.5341   19.5065  -23.7086 O   0  0  0  0  0  0  0  0  0  0  0  0
  -20.5105   20.8772  -24.0559 C   0  0  0  0  0  0  0  0  0  0  0  0
 33 34  1  0  0  0
 34  1  1  0  0  0
  1  2  1  0  0  0
  2  3  1  0  0  0
  3  4  1  0  0  0
  4  5  1  0  0  0
  5  6  1  0  0  0
  6  7  1  0  0  0
  6  8  1  0  0  0
  8  9  1  0  0  0
  9 10  2  0  0  0
 10 11  1  0  0  0
 11 12  2  0  0  0
 12 13  1  0  0  0
 13 14  2  0  0  0
 14 15  1  0  0  0
 15 16  2  0  0  0
 16 17  1  0  0  0
 17 18  1  0  0  0
 18 19  1  0  0  0
 19 20  2  0  0  0
 19 21  1  0  0  0
 21 22  2  0  0  0
 22 23  1  0  0  0
 23 24  2  0  0  0
 24 25  1  0  0  0
 25 26  2  0  0  0
 26 27  1  0  0  0
 27 28  2  0  0  0
 28 29  1  0  0  0
 29 30  1  0  0  0
 30 31  2  0  0  0
  2 35  1  0  0  0
 35 36  1  0  0  0
  6  1  1  0  0  0
 31  8  1  0  0  0
 29  4  1  0  0  0
 14  9  1  0  0  0
 31 15  1  0  0  0
 21 16  1  0  0  0
 30 22  1  0  0  0
 28 23  1  0  0  0
 18 32  1  0  0  0
M  END
> <minimizedAffinity>
-10.16131

> <CNNscore>
0.3550545275

> <CNNaffinity>
6.6067528725

> <CNN_VS>
2.3457574844

> <CNNaffinity_variance>
0.2122823000

$$$$
[H]c1c([H])c([H])c2c(c1[H])c1c3c(c4c5c([H])c([H])c([H])c([H])c5n5c4c1n2[C@@]1([H])O[C@@]5(C([H])([H])[H])[C@]([H])(OC([H])([H])[H])[C@]([H])(OC([H])([H])[H])C1([H])[H])C([H])([H])N([H])C3=O


 36 43  0  0  0  0  0  0  0  0999 V2000
  -18.3113   17.5218  -20.5334 C   0  0  0  0  0  0  0  0  0  0  0  0
  -19.3988   18.1455  -19.6253 C   0  0  0  0  0  0  0  0  0  0  0  0
  -20.1282   17.0762  -18.7400 C   0  0  0  0  0  0  0  0  0  0  0  0
  -19.6082   15.8973  -19.2212 C   0  0  0  0  0  0  0  0  0  0  0  0
  -19.9096   15.9067  -20.5756 O   0  0  0  0  0  0  0  0  0  0  0  0
  -18.7021   16.3180  -21.2360 C   0  0  0  0  0  0  0  0  0  0  0  0
  -19.2827   16.6421  -22.6535 C   0  0  0  0  0  0  0  0  0  0  0  0
  -17.9010   15.1296  -21.3145 N   0  0  0  0  0  0  0  0  0  0  0  0
  -17.0079   14.8915  -22.2894 C   0  0  0  0  0  0  0  0  0  0  0  0
  -16.4871   15.6273  -23.3278 C   0  0  0  0  0  0  0  0  0  0  0  0
  -15.5367   15.0865  -24.1936 C   0  0  0  0  0  0  0  0  0  0  0  0
  -15.0675   13.7972  -24.0618 C   0  0  0  0  0  0  0  0  0  0  0  0
  -15.5852   13.0539  -23.0219 C   0  0  0  0  0  0  0  0  0  0  0  0
  -16.5190   13.5967  -22.1773 C   0  0  0  0  0  0  0  0  0  0  0  0
  -17.1227   13.0302  -21.1065 C   0  0  0  0  0  0  0  0  0  0  0  0
  -17.1177   11.7908  -20.4798 C   0  0  0  0  0  0  0  0  0  0  0  0
  -16.3328   10.5939  -20.8176 C   0  0  0  0  0  0  0  0  0  0  0  0
  -16.7140    9.6041  -19.8564 N   0  0  0  0  0  0  0  0  0  0  0  0
  -17.6964   10.1569  -18.9490 C   0  0  0  0  0  0  0  0  0  0  0  0
  -18.1510    9.4529  -18.0413 O   0  0  0  0  0  0  0  0  0  0  0  0
  -17.9183   11.5007  -19.3639 C   0  0  0  0  0  0  0  0  0  0  0  0
  -18.7531   12.4711  -18.8428 C   0  0  0  0  0  0  0  0  0  0  0  0
  -19.6024   12.5850  -17.7879 C   0  0  0  0  0  0  0  0  0  0  0  0
  -20.0216   11.7191  -16.8102 C   0  0  0  0  0  0  0  0  0  0  0  0
  -20.9167   12.1433  -15.8469 C   0  0  0  0  0  0  0  0  0  0  0  0
  -21.3900   13.4416  -15.8689 C   0  0  0  0  0  0  0  0  0  0  0  0
  -20.9821   14.3487  -16.8523 C   0  0  0  0  0  0  0  0  0  0  0  0
  -20.0762   13.8862  -17.8109 C   0  0  0  0  0  0  0  0  0  0  0  0
  -19.5608   14.5582  -18.8194 N   0  0  0  0  0  0  0  0  0  0  0  0
  -18.7396   13.6865  -19.4784 C   0  0  0  0  0  0  0  0  0  0  0  0
  -17.9425   13.9595  -20.5962 C   0  0  0  0  0  0  0  0  0  0  0  0
  -16.3235    8.6354  -19.8381 H   0  0  0  0  0  0  0  0  0  0  0  0
  -16.1061   18.2312  -20.8563 C   0  0  0  0  0  0  0  0  0  0  0  0
  -17.0369   17.6560  -20.0427 O   0  0  0  0  0  0  0  0  0  0  0  0
  -18.7818   19.0935  -18.8177 O   0  0  0  0  0  0  0  0  0  0  0  0
  -19.5303   19.3109  -17.6376 C   0  0  0  0  0  0  0  0  0  0  0  0
 33 34  1  0  0  0
 34  1  1  0  0  0
  1  2  1  0  0  0
  2  3  1  0  0  0
  3  4  1  0  0  0
  4  5  1  0  0  0
  5  6  1  0  0  0
  6  7  1  0  0  0
  6  8  1  0  0  0
  8  9  1  0  0  0
  9 10  2  0  0  0
 10 11  1  0  0  0
 11 12  2  0  0  0
 12 13  1  0  0  0
 13 14  2  0  0  0
 14 15  1  0  0  0
 15 16  2  0  0  0
 16 17  1  0  0  0
 17 18  1  0  0  0
 18 19  1  0  0  0
 19 20  2  0  0  0
 19 21  1  0  0  0
 21 22  2  0  0  0
 22 23  1  0  0  0
 23 24  2  0  0  0
 24 25  1  0  0  0
 25 26  2  0  0  0
 26 27  1  0  0  0
 27 28  2  0  0  0
 28 29  1  0  0  0
 29 30  1  0  0  0
 30 31  2  0  0  0
  2 35  1  0  0  0
 35 36  1  0  0  0
  6  1  1  0  0  0
 31  8  1  0  0  0
 29  4  1  0  0  0
 14  9  1  0  0  0
 31 15  1  0  0  0
 21 16  1  0  0  0
 30 22  1  0  0  0
 28 23  1  0  0  0
 18 32  1  0  0  0
M  END
> <minimizedAffinity>
-10.44858

> <CNNscore>
0.3187679052

> <CNNaffinity>
6.6404218674

> <CNN_VS>
2.1167533398

> <CNNaffinity_variance>
0.2186152935

$$$$
[H]c1c([H])c([H])c2c(c1[H])c1c3c(c4c5c([H])c([H])c([H])c([H])c5n5c4c1n2[C@@]1([H])O[C@@]5(C([H])([H])[H])[C@]([H])(OC([H])([H])[H])[C@]([H])(OC([H])([H])[H])C1([H])[H])C([H])([H])N([H])C3=O


 36 43  0  0  0  0  0  0  0  0999 V2000
  -20.3759   16.6706  -18.2960 C   0  0  0  0  0  0  0  0  0  0  0  0
  -20.7798   15.6689  -17.1870 C   0  0  0  0  0  0  0  0  0  0  0  0
  -20.2603   14.2167  -17.4708 C   0  0  0  0  0  0  0  0  0  0  0  0
  -19.7317   14.3392  -18.7347 C   0  0  0  0  0  0  0  0  0  0  0  0
  -20.7851   14.7959  -19.5139 O   0  0  0  0  0  0  0  0  0  0  0  0
  -20.5756   16.2101  -19.6538 C   0  0  0  0  0  0  0  0  0  0  0  0
  -21.9828   16.6249  -20.2008 C   0  0  0  0  0  0  0  0  0  0  0  0
  -19.6050   16.3376  -20.7035 N   0  0  0  0  0  0  0  0  0  0  0  0
  -19.5309   17.3934  -21.5309 C   0  0  0  0  0  0  0  0  0  0  0  0
  -20.1456   18.6220  -21.5922 C   0  0  0  0  0  0  0  0  0  0  0  0
  -19.8398   19.5354  -22.6010 C   0  0  0  0  0  0  0  0  0  0  0  0
  -18.9136   19.2649  -23.5853 C   0  0  0  0  0  0  0  0  0  0  0  0
  -18.2929   18.0347  -23.5293 C   0  0  0  0  0  0  0  0  0  0  0  0
  -18.6019   17.1452  -22.5326 C   0  0  0  0  0  0  0  0  0  0  0  0
  -18.0917   15.9113  -22.3112 C   0  0  0  0  0  0  0  0  0  0  0  0
  -17.1808   15.0661  -22.9317 C   0  0  0  0  0  0  0  0  0  0  0  0
  -16.3801   15.3078  -24.1414 C   0  0  0  0  0  0  0  0  0  0  0  0
  -15.6169   14.1130  -24.3383 N   0  0  0  0  0  0  0  0  0  0  0  0
  -15.9225   13.1598  -23.2933 C   0  0  0  0  0  0  0  0  0  0  0  0
  -15.3596   12.0602  -23.2885 O   0  0  0  0  0  0  0  0  0  0  0  0
  -16.8863   13.7812  -22.4493 C   0  0  0  0  0  0  0  0  0  0  0  0
  -17.5107   13.3126  -21.3088 C   0  0  0  0  0  0  0  0  0  0  0  0
  -17.4542   12.1960  -20.5361 C   0  0  0  0  0  0  0  0  0  0  0  0
  -16.7568   11.0179  -20.6216 C   0  0  0  0  0  0  0  0  0  0  0  0
  -16.9166   10.0468  -19.6519 C   0  0  0  0  0  0  0  0  0  0  0  0
  -17.7802   10.2631  -18.5947 C   0  0  0  0  0  0  0  0  0  0  0  0
  -18.5056   11.4532  -18.4789 C   0  0  0  0  0  0  0  0  0  0  0  0
  -18.3199   12.4137  -19.4772 C   0  0  0  0  0  0  0  0  0  0  0  0
  -18.8929   13.5956  -19.5715 N   0  0  0  0  0  0  0  0  0  0  0  0
  -18.4051   14.1657  -20.7141 C   0  0  0  0  0  0  0  0  0  0  0  0
  -18.6959   15.4417  -21.2110 C   0  0  0  0  0  0  0  0  0  0  0  0
  -14.9467   13.9787  -25.1283 H   0  0  0  0  0  0  0  0  0  0  0  0
  -19.4462   18.7924  -17.9735 C   0  0  0  0  0  0  0  0  0  0  0  0
  -19.2842   17.4385  -17.9773 O   0  0  0  0  0  0  0  0  0  0  0  0
  -20.2591   16.1361  -15.9861 O   0  0  0  0  0  0  0  0  0  0  0  0
  -21.2631   16.7672  -15.2156 C   0  0  0  0  0  0  0  0  0  0  0  0
 33 34  1  0  0  0
 34  1  1  0  0  0
  1  2  1  0  0  0
  2  3  1  0  0  0
  3  4  1  0  0  0
  4  5  1  0  0  0
  5  6  1  0  0  0
  6  7  1  0  0  0
  6  8  1  0  0  0
  8  9  1  0  0  0
  9 10  2  0  0  0
 10 11  1  0  0  0
 11 12  2  0  0  0
 12 13  1  0  0  0
 13 14  2  0  0  0
 14 15  1  0  0  0
 15 16  2  0  0  0
 16 17  1  0  0  0
 17 18  1  0  0  0
 18 19  1  0  0  0
 19 20  2  0  0  0
 19 21  1  0  0  0
 21 22  2  0  0  0
 22 23  1  0  0  0
 23 24  2  0  0  0
 24 25  1  0  0  0
 25 26  2  0  0  0
 26 27  1  0  0  0
 27 28  2  0  0  0
 28 29  1  0  0  0
 29 30  1  0  0  0
 30 31  2  0  0  0
  2 35  1  0  0  0
 35 36  1  0  0  0
  6  1  1  0  0  0
 31  8  1  0  0  0
 29  4  1  0  0  0
 14  9  1  0  0  0
 31 15  1  0  0  0
 21 16  1  0  0  0
 30 22  1  0  0  0
 28 23  1  0  0  0
 18 32  1  0  0  0
M  END
> <minimizedAffinity>
-10.60222

> <CNNscore>
0.3071080148

> <CNNaffinity>
6.4759435654

> <CNN_VS>
1.9888141155

> <CNNaffinity_variance>
0.2482734025

$$$$
[H]c1c([H])c([H])c2c(c1[H])c1c3c(c4c5c([H])c([H])c([H])c([H])c5n5c4c1n2[C@@]1([H])O[C@@]5(C([H])([H])[H])[C@]([H])(OC([H])([H])[H])[C@]([H])(OC([H])([H])[H])C1([H])[H])C([H])([H])N([H])C3=O


 36 43  0  0  0  0  0  0  0  0999 V2000
  -17.7411   16.5334  -22.6823 C   0  0  0  0  0  0  0  0  0  0  0  0
  -16.8195   15.5730  -23.4726 C   0  0  0  0  0  0  0  0  0  0  0  0
  -16.5628   14.2254  -22.7128 C   0  0  0  0  0  0  0  0  0  0  0  0
  -17.1640   14.4582  -21.4978 C   0  0  0  0  0  0  0  0  0  0  0  0
  -16.5327   15.5909  -21.0040 O   0  0  0  0  0  0  0  0  0  0  0  0
  -17.4283   16.6804  -21.2766 C   0  0  0  0  0  0  0  0  0  0  0  0
  -16.4549   17.8810  -21.0265 C   0  0  0  0  0  0  0  0  0  0  0  0
  -18.3998   16.6328  -20.2211 N   0  0  0  0  0  0  0  0  0  0  0  0
  -19.0448   17.7119  -19.7476 C   0  0  0  0  0  0  0  0  0  0  0  0
  -19.1303   19.0321  -20.1226 C   0  0  0  0  0  0  0  0  0  0  0  0
  -19.9165   19.9379  -19.4106 C   0  0  0  0  0  0  0  0  0  0  0  0
  -20.6469   19.5683  -18.3016 C   0  0  0  0  0  0  0  0  0  0  0  0
  -20.5661   18.2455  -17.9205 C   0  0  0  0  0  0  0  0  0  0  0  0
  -19.7899   17.3644  -18.6285 C   0  0  0  0  0  0  0  0  0  0  0  0
  -19.6009   16.0415  -18.4144 C   0  0  0  0  0  0  0  0  0  0  0  0
  -20.0074   15.0992  -17.4785 C   0  0  0  0  0  0  0  0  0  0  0  0
  -20.8995   15.2779  -16.3231 C   0  0  0  0  0  0  0  0  0  0  0  0
  -20.9763   13.9923  -15.6984 N   0  0  0  0  0  0  0  0  0  0  0  0
  -20.1680   13.0429  -16.4327 C   0  0  0  0  0  0  0  0  0  0  0  0
  -20.1058   11.8705  -16.0483 O   0  0  0  0  0  0  0  0  0  0  0  0
  -19.5893   13.7598  -17.5183 C   0  0  0  0  0  0  0  0  0  0  0  0
  -18.7409   13.3314  -18.5217 C   0  0  0  0  0  0  0  0  0  0  0  0
  -18.1820   12.1556  -18.9118 C   0  0  0  0  0  0  0  0  0  0  0  0
  -18.2028   10.8813  -18.4044 C   0  0  0  0  0  0  0  0  0  0  0  0
  -17.5166    9.8689  -19.0471 C   0  0  0  0  0  0  0  0  0  0  0  0
  -16.8085   10.1409  -20.2025 C   0  0  0  0  0  0  0  0  0  0  0  0
  -16.7674   11.4293  -20.7451 C   0  0  0  0  0  0  0  0  0  0  0  0
  -17.4727   12.4292  -20.0694 C   0  0  0  0  0  0  0  0  0  0  0  0
  -17.5731   13.7012  -20.3948 N   0  0  0  0  0  0  0  0  0  0  0  0
  -18.3543   14.2800  -19.4338 C   0  0  0  0  0  0  0  0  0  0  0  0
  -18.7720   15.6149  -19.3773 C   0  0  0  0  0  0  0  0  0  0  0  0
  -21.5405   13.7990  -14.8407 H   0  0  0  0  0  0  0  0  0  0  0  0
  -19.6055   17.7124  -23.4598 C   0  0  0  0  0  0  0  0  0  0  0  0
  -19.0466   16.5204  -23.1048 O   0  0  0  0  0  0  0  0  0  0  0  0
  -17.4234   15.3221  -24.6990 O   0  0  0  0  0  0  0  0  0  0  0  0
  -16.9400   14.1168  -25.2590 C   0  0  0  0  0  0  0  0  0  0  0  0
 33 34  1  0  0  0
 34  1  1  0  0  0
  1  2  1  0  0  0
  2  3  1  0  0  0
  3  4  1  0  0  0
  4  5  1  0  0  0
  5  6  1  0  0  0
  6  7  1  0  0  0
  6  8  1  0  0  0
  8  9  1  0  0  0
  9 10  2  0  0  0
 10 11  1  0  0  0
 11 12  2  0  0  0
 12 13  1  0  0  0
 13 14  2  0  0  0
 14 15  1  0  0  0
 15 16  2  0  0  0
 16 17  1  0  0  0
 17 18  1  0  0  0
 18 19  1  0  0  0
 19 20  2  0  0  0
 19 21  1  0  0  0
 21 22  2  0  0  0
 22 23  1  0  0  0
 23 24  2  0  0  0
 24 25  1  0  0  0
 25 26  2  0  0  0
 26 27  1  0  0  0
 27 28  2  0  0  0
 28 29  1  0  0  0
 29 30  1  0  0  0
 30 31  2  0  0  0
  2 35  1  0  0  0
 35 36  1  0  0  0
  6  1  1  0  0  0
 31  8  1  0  0  0
 29  4  1  0  0  0
 14  9  1  0  0  0
 31 15  1  0  0  0
 21 16  1  0  0  0
 30 22  1  0  0  0
 28 23  1  0  0  0
 18 32  1  0  0  0
M  END
> <minimizedAffinity>
-9.94893

> <CNNscore>
0.2337544411

> <CNNaffinity>
6.1940336227

> <CNN_VS>
1.4478828907

> <CNNaffinity_variance>
0.6233081222

$$$$
[H]c1c([H])c([H])c2c(c1[H])c1c3c(c4c5c([H])c([H])c([H])c([H])c5n5c4c1n2[C@@]1([H])O[C@@]5(C([H])([H])[H])[C@]([H])(OC([H])([H])[H])[C@]([H])(OC([H])([H])[H])C1([H])[H])C([H])([H])N([H])C3=O


 36 43  0  0  0  0  0  0  0  0999 V2000
  -17.4475   16.1929  -22.1284 C   0  0  0  0  0  0  0  0  0  0  0  0
  -18.2975   17.4825  -22.2320 C   0  0  0  0  0  0  0  0  0  0  0  0
  -19.5603   17.4462  -21.3028 C   0  0  0  0  0  0  0  0  0  0  0  0
  -19.5272   16.1594  -20.8182 C   0  0  0  0  0  0  0  0  0  0  0  0
  -19.5531   15.3564  -21.9496 O   0  0  0  0  0  0  0  0  0  0  0  0
  -18.1919   14.9519  -22.1658 C   0  0  0  0  0  0  0  0  0  0  0  0
  -18.3173   14.4002  -23.6258 C   0  0  0  0  0  0  0  0  0  0  0  0
  -17.9847   13.8554  -21.2631 N   0  0  0  0  0  0  0  0  0  0  0  0
  -17.1278   12.8468  -21.4942 C   0  0  0  0  0  0  0  0  0  0  0  0
  -16.1672   12.5891  -22.4438 C   0  0  0  0  0  0  0  0  0  0  0  0
  -15.4100   11.4183  -22.4090 C   0  0  0  0  0  0  0  0  0  0  0  0
  -15.5767   10.4605  -21.4320 C   0  0  0  0  0  0  0  0  0  0  0  0
  -16.5381   10.7130  -20.4760 C   0  0  0  0  0  0  0  0  0  0  0  0
  -17.2762   11.8677  -20.5207 C   0  0  0  0  0  0  0  0  0  0  0  0
  -18.2423   12.2881  -19.6713 C   0  0  0  0  0  0  0  0  0  0  0  0
  -18.8843   11.7932  -18.5435 C   0  0  0  0  0  0  0  0  0  0  0  0
  -18.6498   10.5261  -17.8349 C   0  0  0  0  0  0  0  0  0  0  0  0
  -19.5835   10.5174  -16.7501 N   0  0  0  0  0  0  0  0  0  0  0  0
  -20.3712   11.7312  -16.7734 C   0  0  0  0  0  0  0  0  0  0  0  0
  -21.2367   11.9121  -15.9106 O   0  0  0  0  0  0  0  0  0  0  0  0
  -19.9127   12.4887  -17.8884 C   0  0  0  0  0  0  0  0  0  0  0  0
  -20.3215   13.7216  -18.3606 C   0  0  0  0  0  0  0  0  0  0  0  0
  -21.2074   14.6819  -17.9862 C   0  0  0  0  0  0  0  0  0  0  0  0
  -22.1239   14.7825  -16.9707 C   0  0  0  0  0  0  0  0  0  0  0  0
  -22.8998   15.9192  -16.8484 C   0  0  0  0  0  0  0  0  0  0  0  0
  -22.7519   16.9557  -17.7506 C   0  0  0  0  0  0  0  0  0  0  0  0
  -21.8266   16.8839  -18.7969 C   0  0  0  0  0  0  0  0  0  0  0  0
  -21.0585   15.7199  -18.8909 C   0  0  0  0  0  0  0  0  0  0  0  0
  -20.1356   15.4366  -19.7865 N   0  0  0  0  0  0  0  0  0  0  0  0
  -19.6721   14.1890  -19.4747 C   0  0  0  0  0  0  0  0  0  0  0  0
  -18.6537   13.4808  -20.1235 C   0  0  0  0  0  0  0  0  0  0  0  0
  -19.6612    9.7368  -16.0603 H   0  0  0  0  0  0  0  0  0  0  0  0
  -16.5668   16.5837  -19.9972 C   0  0  0  0  0  0  0  0  0  0  0  0
  -16.3482   16.3183  -21.3167 O   0  0  0  0  0  0  0  0  0  0  0  0
  -17.4822   18.5543  -21.8879 O   0  0  0  0  0  0  0  0  0  0  0  0
  -18.2567   19.7034  -21.6058 C   0  0  0  0  0  0  0  0  0  0  0  0
 33 34  1  0  0  0
 34  1  1  0  0  0
  1  2  1  0  0  0
  2  3  1  0  0  0
  3  4  1  0  0  0
  4  5  1  0  0  0
  5  6  1  0  0  0
  6  7  1  0  0  0
  6  8  1  0  0  0
  8  9  1  0  0  0
  9 10  2  0  0  0
 10 11  1  0  0  0
 11 12  2  0  0  0
 12 13  1  0  0  0
 13 14  2  0  0  0
 14 15  1  0  0  0
 15 16  2  0  0  0
 16 17  1  0  0  0
 17 18  1  0  0  0
 18 19  1  0  0  0
 19 20  2  0  0  0
 19 21  1  0  0  0
 21 22  2  0  0  0
 22 23  1  0  0  0
 23 24  2  0  0  0
 24 25  1  0  0  0
 25 26  2  0  0  0
 26 27  1  0  0  0
 27 28  2  0  0  0
 28 29  1  0  0  0
 29 30  1  0  0  0
 30 31  2  0  0  0
  2 35  1  0  0  0
 35 36  1  0  0  0
  6  1  1  0  0  0
 31  8  1  0  0  0
 29  4  1  0  0  0
 14  9  1  0  0  0
 31 15  1  0  0  0
 21 16  1  0  0  0
 30 22  1  0  0  0
 28 23  1  0  0  0
 18 32  1  0  0  0
M  END
> <minimizedAffinity>
-9.43244

> <CNNscore>
0.2191415429

> <CNNaffinity>
6.1702504158

> <CNN_VS>
1.3521581888

> <CNNaffinity_variance>
0.3698959053

$$$$
[H]c1c([H])c([H])c2c(c1[H])c1c3c(c4c5c([H])c([H])c([H])c([H])c5n5c4c1n2[C@@]1([H])O[C@@]5(C([H])([H])[H])[C@]([H])(OC([H])([H])[H])[C@]([H])(OC([H])([H])[H])C1([H])[H])C([H])([H])N([H])C3=O


 36 43  0  0  0  0  0  0  0  0999 V2000
  -20.5398   17.1558  -18.7281 C   0  0  0  0  0  0  0  0  0  0  0  0
  -21.5661   17.4585  -17.6094 C   0  0  0  0  0  0  0  0  0  0  0  0
  -21.8921   16.1977  -16.7357 C   0  0  0  0  0  0  0  0  0  0  0  0
  -21.2225   15.1998  -17.4048 C   0  0  0  0  0  0  0  0  0  0  0  0
  -21.7427   15.2279  -18.6909 O   0  0  0  0  0  0  0  0  0  0  0  0
  -20.7788   15.9425  -19.4806 C   0  0  0  0  0  0  0  0  0  0  0  0
  -21.6453   16.2176  -20.7554 C   0  0  0  0  0  0  0  0  0  0  0  0
  -19.7688   14.9730  -19.7967 N   0  0  0  0  0  0  0  0  0  0  0  0
  -19.0227   15.0056  -20.9135 C   0  0  0  0  0  0  0  0  0  0  0  0
  -18.8525   15.9051  -21.9397 C   0  0  0  0  0  0  0  0  0  0  0  0
  -17.9687   15.6493  -22.9879 C   0  0  0  0  0  0  0  0  0  0  0  0
  -17.2212   14.4933  -23.0573 C   0  0  0  0  0  0  0  0  0  0  0  0
  -17.3866   13.5872  -22.0310 C   0  0  0  0  0  0  0  0  0  0  0  0
  -18.2585   13.8500  -21.0058 C   0  0  0  0  0  0  0  0  0  0  0  0
  -18.5390   13.0944  -19.9185 C   0  0  0  0  0  0  0  0  0  0  0  0
  -18.1656   11.8504  -19.4265 C   0  0  0  0  0  0  0  0  0  0  0  0
  -17.2129   10.8856  -19.9961 C   0  0  0  0  0  0  0  0  0  0  0  0
  -17.2079    9.7757  -19.0922 N   0  0  0  0  0  0  0  0  0  0  0  0
  -18.1181   10.0332  -17.9970 C   0  0  0  0  0  0  0  0  0  0  0  0
  -18.2533    9.1880  -17.1061 O   0  0  0  0  0  0  0  0  0  0  0  0
  -18.6867   11.3162  -18.2376 C   0  0  0  0  0  0  0  0  0  0  0  0
  -19.6085   12.0378  -17.5029 C   0  0  0  0  0  0  0  0  0  0  0  0
  -20.2725   11.8892  -16.3264 C   0  0  0  0  0  0  0  0  0  0  0  0
  -20.3276   10.8900  -15.3882 C   0  0  0  0  0  0  0  0  0  0  0  0
  -21.1169   11.0387  -14.2640 C   0  0  0  0  0  0  0  0  0  0  0  0
  -21.8517   12.1955  -14.0851 C   0  0  0  0  0  0  0  0  0  0  0  0
  -21.8173   13.2324  -15.0230 C   0  0  0  0  0  0  0  0  0  0  0  0
  -21.0085   13.0487  -16.1481 C   0  0  0  0  0  0  0  0  0  0  0  0
  -20.8250   13.8830  -17.1503 N   0  0  0  0  0  0  0  0  0  0  0  0
  -19.9605   13.2631  -18.0088 C   0  0  0  0  0  0  0  0  0  0  0  0
  -19.4394   13.7801  -19.2008 C   0  0  0  0  0  0  0  0  0  0  0  0
  -16.6234    8.9209  -19.2294 H   0  0  0  0  0  0  0  0  0  0  0  0
  -18.6476   18.4194  -19.2695 C   0  0  0  0  0  0  0  0  0  0  0  0
  -19.2589   17.5422  -18.4233 O   0  0  0  0  0  0  0  0  0  0  0  0
  -21.0373   18.4674  -16.8130 O   0  0  0  0  0  0  0  0  0  0  0  0
  -21.5837   18.4161  -15.5096 C   0  0  0  0  0  0  0  0  0  0  0  0
 33 34  1  0  0  0
 34  1  1  0  0  0
  1  2  1  0  0  0
  2  3  1  0  0  0
  3  4  1  0  0  0
  4  5  1  0  0  0
  5  6  1  0  0  0
  6  7  1  0  0  0
  6  8  1  0  0  0
  8  9  1  0  0  0
  9 10  2  0  0  0
 10 11  1  0  0  0
 11 12  2  0  0  0
 12 13  1  0  0  0
 13 14  2  0  0  0
 14 15  1  0  0  0
 15 16  2  0  0  0
 16 17  1  0  0  0
 17 18  1  0  0  0
 18 19  1  0  0  0
 19 20  2  0  0  0
 19 21  1  0  0  0
 21 22  2  0  0  0
 22 23  1  0  0  0
 23 24  2  0  0  0
 24 25  1  0  0  0
 25 26  2  0  0  0
 26 27  1  0  0  0
 27 28  2  0  0  0
 28 29  1  0  0  0
 29 30  1  0  0  0
 30 31  2  0  0  0
  2 35  1  0  0  0
 35 36  1  0  0  0
  6  1  1  0  0  0
 31  8  1  0  0  0
 29  4  1  0  0  0
 14  9  1  0  0  0
 31 15  1  0  0  0
 21 16  1  0  0  0
 30 22  1  0  0  0
 28 23  1  0  0  0
 18 32  1  0  0  0
M  END
> <minimizedAffinity>
-9.63218

> <CNNscore>
0.2082131207

> <CNNaffinity>
6.1666340828

> <CNN_VS>
1.2839741707

> <CNNaffinity_variance>
0.2479795516

$$$$
[H]c1sc(C([H])([H])[H])nc1C#Cc1c([H])c([H])c([H])c(C([H])([H])[H])c1[H]


 15 16  0  0  0  0  0  0  0  0999 V2000
  -17.7105   12.5627  -20.7030 C   0  0  0  0  0  0  0  0  0  0  0  0
  -17.2600   12.9697  -21.7454 C   0  0  0  0  0  0  0  0  0  0  0  0
  -16.7473   13.4590  -22.9936 C   0  0  0  0  0  0  0  0  0  0  0  0
  -15.7466   14.4309  -23.0417 C   0  0  0  0  0  0  0  0  0  0  0  0
  -15.2473   14.9074  -24.2274 C   0  0  0  0  0  0  0  0  0  0  0  0
  -15.7876   14.3740  -25.3989 C   0  0  0  0  0  0  0  0  0  0  0  0
  -16.7767   13.4134  -25.3603 C   0  0  0  0  0  0  0  0  0  0  0  0
  -17.2988   12.8968  -26.6431 C   0  0  0  0  0  0  0  0  0  0  0  0
  -17.2684   12.9441  -24.1609 C   0  0  0  0  0  0  0  0  0  0  0  0
  -18.5944    9.1631  -17.1049 C   0  0  0  0  0  0  0  0  0  0  0  0
  -18.6750   10.5000  -17.8166 C   0  0  0  0  0  0  0  0  0  0  0  0
  -18.1176   10.8521  -18.9544 N   0  0  0  0  0  0  0  0  0  0  0  0
  -18.2902   12.0618  -19.4349 C   0  0  0  0  0  0  0  0  0  0  0  0
  -19.0729   12.9071  -18.6832 C   0  0  0  0  0  0  0  0  0  0  0  0
  -19.5009   11.9197  -17.3568 S   0  0  0  0  0  0  0  0  0  0  0  0
 10 11  1  0  0  0
 11 12  2  0  0  0
 12 13  1  0  0  0
 13 14  2  0  0  0
 14 15  1  0  0  0
 13  1  1  0  0  0
  1  2  3  0  0  0
  2  3  1  0  0  0
  3  4  2  0  0  0
  4  5  1  0  0  0
  5  6  2  0  0  0
  6  7  1  0  0  0
  7  8  1  0  0  0
  7  9  2  0  0  0
 15 11  1  0  0  0
  9  3  1  0  0  0
M  END
> <minimizedAffinity>
-6.37229

> <CNNscore>
0.6382211447

> <CNNaffinity>
5.1285786629

> <CNN_VS>
3.2731673717

> <CNNaffinity_variance>
0.4402937889

$$$$
[H]c1sc(C([H])([H])[H])nc1C#Cc1c([H])c([H])c([H])c(C([H])([H])[H])c1[H]


 15 16  0  0  0  0  0  0  0  0999 V2000
  -17.0294   13.4157  -22.0923 C   0  0  0  0  0  0  0  0  0  0  0  0
  -16.4541   13.8326  -23.0672 C   0  0  0  0  0  0  0  0  0  0  0  0
  -15.7571   14.3450  -24.2126 C   0  0  0  0  0  0  0  0  0  0  0  0
  -14.4002   14.6676  -24.1580 C   0  0  0  0  0  0  0  0  0  0  0  0
  -13.7216   15.1580  -25.2450 C   0  0  0  0  0  0  0  0  0  0  0  0
  -14.4526   15.3233  -26.4228 C   0  0  0  0  0  0  0  0  0  0  0  0
  -15.7937   15.0070  -26.4852 C   0  0  0  0  0  0  0  0  0  0  0  0
  -16.4999   15.2094  -27.7678 C   0  0  0  0  0  0  0  0  0  0  0  0
  -16.4622   14.5149  -25.3844 C   0  0  0  0  0  0  0  0  0  0  0  0
  -17.8723   10.2879  -18.2464 C   0  0  0  0  0  0  0  0  0  0  0  0
  -18.0875   11.4916  -19.1436 C   0  0  0  0  0  0  0  0  0  0  0  0
  -17.4055   11.8442  -20.2112 N   0  0  0  0  0  0  0  0  0  0  0  0
  -17.7274   12.9272  -20.8801 C   0  0  0  0  0  0  0  0  0  0  0  0
  -18.7977   13.6432  -20.3963 C   0  0  0  0  0  0  0  0  0  0  0  0
  -19.2611   12.7242  -19.0332 S   0  0  0  0  0  0  0  0  0  0  0  0
 10 11  1  0  0  0
 11 12  2  0  0  0
 12 13  1  0  0  0
 13 14  2  0  0  0
 14 15  1  0  0  0
 13  1  1  0  0  0
  1  2  3  0  0  0
  2  3  1  0  0  0
  3  4  2  0  0  0
  4  5  1  0  0  0
  5  6  2  0  0  0
  6  7  1  0  0  0
  7  8  1  0  0  0
  7  9  2  0  0  0
 15 11  1  0  0  0
  9  3  1  0  0  0
M  END
> <minimizedAffinity>
-6.46143

> <CNNscore>
0.6331202984

> <CNNaffinity>
5.3816251755

> <CNN_VS>
3.4072160721

> <CNNaffinity_variance>
0.4014550149

$$$$
[H]c1sc(C([H])([H])[H])nc1C#Cc1c([H])c([H])c([H])c(C([H])([H])[H])c1[H]


 15 16  0  0  0  0  0  0  0  0999 V2000
  -17.2972   12.1887  -21.3808 C   0  0  0  0  0  0  0  0  0  0  0  0
  -17.0016   12.6988  -22.4332 C   0  0  0  0  0  0  0  0  0  0  0  0
  -16.6708   13.3197  -23.6843 C   0  0  0  0  0  0  0  0  0  0  0  0
  -17.6010   13.4164  -24.7205 C   0  0  0  0  0  0  0  0  0  0  0  0
  -17.2984   14.0073  -25.9212 C   0  0  0  0  0  0  0  0  0  0  0  0
  -16.0059   14.5144  -26.0664 C   0  0  0  0  0  0  0  0  0  0  0  0
  -15.0806   14.4229  -25.0476 C   0  0  0  0  0  0  0  0  0  0  0  0
  -13.7321   14.9833  -25.2766 C   0  0  0  0  0  0  0  0  0  0  0  0
  -15.3994   13.8263  -23.8463 C   0  0  0  0  0  0  0  0  0  0  0  0
  -19.8722   11.8269  -17.0770 C   0  0  0  0  0  0  0  0  0  0  0  0
  -18.8697   11.4329  -18.1447 C   0  0  0  0  0  0  0  0  0  0  0  0
  -18.5920   12.0538  -19.2701 N   0  0  0  0  0  0  0  0  0  0  0  0
  -17.6872   11.5727  -20.0910 C   0  0  0  0  0  0  0  0  0  0  0  0
  -17.0707   10.4072  -19.6986 C   0  0  0  0  0  0  0  0  0  0  0  0
  -17.8227   10.0877  -18.1986 S   0  0  0  0  0  0  0  0  0  0  0  0
 10 11  1  0  0  0
 11 12  2  0  0  0
 12 13  1  0  0  0
 13 14  2  0  0  0
 14 15  1  0  0  0
 13  1  1  0  0  0
  1  2  3  0  0  0
  2  3  1  0  0  0
  3  4  2  0  0  0
  4  5  1  0  0  0
  5  6  2  0  0  0
  6  7  1  0  0  0
  7  8  1  0  0  0
  7  9  2  0  0  0
 15 11  1  0  0  0
  9  3  1  0  0  0
M  END
> <minimizedAffinity>
-6.69906

> <CNNscore>
0.6106095314

> <CNNaffinity>
5.0229959488

> <CNN_VS>
3.0670893192

> <CNNaffinity_variance>
0.4844915867

$$$$
[H]c1sc(C([H])([H])[H])nc1C#Cc1c([H])c([H])c([H])c(C([H])([H])[H])c1[H]


 15 16  0  0  0  0  0  0  0  0999 V2000
  -17.6477   12.7224  -21.0360 C   0  0  0  0  0  0  0  0  0  0  0  0
  -17.2688   13.0974  -22.1181 C   0  0  0  0  0  0  0  0  0  0  0  0
  -16.8418   13.5444  -23.4136 C   0  0  0  0  0  0  0  0  0  0  0  0
  -17.7128   13.5617  -24.5041 C   0  0  0  0  0  0  0  0  0  0  0  0
  -17.3182   13.9864  -25.7476 C   0  0  0  0  0  0  0  0  0  0  0  0
  -15.9933   14.4059  -25.8796 C   0  0  0  0  0  0  0  0  0  0  0  0
  -15.1260   14.3919  -24.8071 C   0  0  0  0  0  0  0  0  0  0  0  0
  -13.7381   14.8512  -25.0254 C   0  0  0  0  0  0  0  0  0  0  0  0
  -15.5371   13.9624  -23.5633 C   0  0  0  0  0  0  0  0  0  0  0  0
  -18.4706    9.3585  -17.3902 C   0  0  0  0  0  0  0  0  0  0  0  0
  -18.4996   10.7087  -18.0803 C   0  0  0  0  0  0  0  0  0  0  0  0
  -18.0308   11.0273  -19.2669 N   0  0  0  0  0  0  0  0  0  0  0  0
  -18.1390   12.2554  -19.7185 C   0  0  0  0  0  0  0  0  0  0  0  0
  -18.7598   13.1560  -18.8843 C   0  0  0  0  0  0  0  0  0  0  0  0
  -19.1398   12.1899  -17.5279 S   0  0  0  0  0  0  0  0  0  0  0  0
 10 11  1  0  0  0
 11 12  2  0  0  0
 12 13  1  0  0  0
 13 14  2  0  0  0
 14 15  1  0  0  0
 13  1  1  0  0  0
  1  2  3  0  0  0
  2  3  1  0  0  0
  3  4  2  0  0  0
  4  5  1  0  0  0
  5  6  2  0  0  0
  6  7  1  0  0  0
  7  8  1  0  0  0
  7  9  2  0  0  0
 15 11  1  0  0  0
  9  3  1  0  0  0
M  END
> <minimizedAffinity>
-6.43488

> <CNNscore>
0.6079110503

> <CNNaffinity>
5.0656852722

> <CNN_VS>
3.0794861317

> <CNNaffinity_variance>
0.4727987349

$$$$
[H]c1sc(C([H])([H])[H])nc1C#Cc1c([H])c([H])c([H])c(C([H])([H])[H])c1[H]


 15 16  0  0  0  0  0  0  0  0999 V2000
  -18.6116    9.6802  -17.3892 C   0  0  0  0  0  0  0  0  0  0  0  0
  -19.0893    9.0644  -16.4685 C   0  0  0  0  0  0  0  0  0  0  0  0
  -19.6370    8.3361  -15.3594 C   0  0  0  0  0  0  0  0  0  0  0  0
  -19.2256    8.5829  -14.0487 C   0  0  0  0  0  0  0  0  0  0  0  0
  -19.7406    7.8945  -12.9795 C   0  0  0  0  0  0  0  0  0  0  0  0
  -20.7050    6.9248  -13.2592 C   0  0  0  0  0  0  0  0  0  0  0  0
  -21.1171    6.6746  -14.5516 C   0  0  0  0  0  0  0  0  0  0  0  0
  -22.1426    5.6322  -14.7680 C   0  0  0  0  0  0  0  0  0  0  0  0
  -20.5905    7.3747  -15.6160 C   0  0  0  0  0  0  0  0  0  0  0  0
  -15.5348   10.3561  -21.3085 C   0  0  0  0  0  0  0  0  0  0  0  0
  -16.5928   10.7143  -20.2826 C   0  0  0  0  0  0  0  0  0  0  0  0
  -17.0768    9.9654  -19.3160 N   0  0  0  0  0  0  0  0  0  0  0  0
  -17.9987   10.4346  -18.5074 C   0  0  0  0  0  0  0  0  0  0  0  0
  -18.4080   11.7273  -18.7392 C   0  0  0  0  0  0  0  0  0  0  0  0
  -17.4535   12.1732  -20.0837 S   0  0  0  0  0  0  0  0  0  0  0  0
 10 11  1  0  0  0
 11 12  2  0  0  0
 12 13  1  0  0  0
 13 14  2  0  0  0
 14 15  1  0  0  0
 13  1  1  0  0  0
  1  2  3  0  0  0
  2  3  1  0  0  0
  3  4  2  0  0  0
  4  5  1  0  0  0
  5  6  2  0  0  0
  6  7  1  0  0  0
  7  8  1  0  0  0
  7  9  2  0  0  0
 15 11  1  0  0  0
  9  3  1  0  0  0
M  END
> <minimizedAffinity>
-5.12927

> <CNNscore>
0.6024465561

> <CNNaffinity>
4.5317435265

> <CNN_VS>
2.7301332951

> <CNNaffinity_variance>
0.3212733269

$$$$
[H]c1sc(C([H])([H])[H])nc1C#Cc1c([H])c([H])c([H])c(C([H])([H])[H])c1[H]


 15 16  0  0  0  0  0  0  0  0999 V2000
  -18.8966   10.9967  -17.9502 C   0  0  0  0  0  0  0  0  0  0  0  0
  -19.6158   10.9694  -16.9821 C   0  0  0  0  0  0  0  0  0  0  0  0
  -20.4585   10.9561  -15.8202 C   0  0  0  0  0  0  0  0  0  0  0  0
  -19.9897   11.3717  -14.5729 C   0  0  0  0  0  0  0  0  0  0  0  0
  -20.7841   11.3642  -13.4543 C   0  0  0  0  0  0  0  0  0  0  0  0
  -22.0971   10.9185  -13.6163 C   0  0  0  0  0  0  0  0  0  0  0  0
  -22.5683   10.5061  -14.8452 C   0  0  0  0  0  0  0  0  0  0  0  0
  -23.9705   10.0476  -14.9374 C   0  0  0  0  0  0  0  0  0  0  0  0
  -21.7581   10.5193  -15.9606 C   0  0  0  0  0  0  0  0  0  0  0  0
  -17.0926   12.8605  -22.2578 C   0  0  0  0  0  0  0  0  0  0  0  0
  -17.1955   11.9133  -21.0778 C   0  0  0  0  0  0  0  0  0  0  0  0
  -18.0422   11.9533  -20.0725 N   0  0  0  0  0  0  0  0  0  0  0  0
  -17.9944   11.0464  -19.1243 C   0  0  0  0  0  0  0  0  0  0  0  0
  -17.0231   10.0813  -19.2565 C   0  0  0  0  0  0  0  0  0  0  0  0
  -16.2565   10.5369  -20.7133 S   0  0  0  0  0  0  0  0  0  0  0  0
 10 11  1  0  0  0
 11 12  2  0  0  0
 12 13  1  0  0  0
 13 14  2  0  0  0
 14 15  1  0  0  0
 13  1  1  0  0  0
  1  2  3  0  0  0
  2  3  1  0  0  0
  3  4  2  0  0  0
  4  5  1  0  0  0
  5  6  2  0  0  0
  6  7  1  0  0  0
  7  8  1  0  0  0
  7  9  2  0  0  0
 15 11  1  0  0  0
  9  3  1  0  0  0
M  END
> <minimizedAffinity>
-5.04484

> <CNNscore>
0.5931829214

> <CNNaffinity>
4.5076971054

> <CNN_VS>
2.6738889217

> <CNNaffinity_variance>
0.2299377620

$$$$
[H]c1sc(C([H])([H])[H])nc1C#Cc1c([H])c([H])c([H])c(C([H])([H])[H])c1[H]


 15 16  0  0  0  0  0  0  0  0999 V2000
  -16.6404   14.0294  -23.1749 C   0  0  0  0  0  0  0  0  0  0  0  0
  -17.2168   13.6233  -22.1961 C   0  0  0  0  0  0  0  0  0  0  0  0
  -17.8818   13.1439  -21.0179 C   0  0  0  0  0  0  0  0  0  0  0  0
  -19.0293   13.7656  -20.5227 C   0  0  0  0  0  0  0  0  0  0  0  0
  -19.6750   13.3180  -19.3979 C   0  0  0  0  0  0  0  0  0  0  0  0
  -19.1309   12.2014  -18.7607 C   0  0  0  0  0  0  0  0  0  0  0  0
  -17.9974   11.5812  -19.2434 C   0  0  0  0  0  0  0  0  0  0  0  0
  -17.4812   10.4038  -18.5138 C   0  0  0  0  0  0  0  0  0  0  0  0
  -17.3594   12.0424  -20.3751 C   0  0  0  0  0  0  0  0  0  0  0  0
  -16.1302   15.4564  -27.9695 C   0  0  0  0  0  0  0  0  0  0  0  0
  -15.7037   15.1675  -26.5430 C   0  0  0  0  0  0  0  0  0  0  0  0
  -16.4388   14.7235  -25.5471 N   0  0  0  0  0  0  0  0  0  0  0  0
  -15.9071   14.5253  -24.3630 C   0  0  0  0  0  0  0  0  0  0  0  0
  -14.5660   14.8079  -24.2452 C   0  0  0  0  0  0  0  0  0  0  0  0
  -14.1670   15.3313  -25.8214 S   0  0  0  0  0  0  0  0  0  0  0  0
 10 11  1  0  0  0
 11 12  2  0  0  0
 12 13  1  0  0  0
 13 14  2  0  0  0
 14 15  1  0  0  0
 13  1  1  0  0  0
  1  2  3  0  0  0
  2  3  1  0  0  0
  3  4  2  0  0  0
  4  5  1  0  0  0
  5  6  2  0  0  0
  6  7  1  0  0  0
  7  8  1  0  0  0
  7  9  2  0  0  0
 15 11  1  0  0  0
  9  3  1  0  0  0
M  END
> <minimizedAffinity>
-6.87304

> <CNNscore>
0.5878130198

> <CNNaffinity>
5.3932471275

> <CNN_VS>
3.1702208519

> <CNNaffinity_variance>
0.3562566936

$$$$
[H]c1sc(C([H])([H])[H])nc1C#Cc1c([H])c([H])c([H])c(C([H])([H])[H])c1[H]


 15 16  0  0  0  0  0  0  0  0999 V2000
  -17.1831   12.3036  -21.2729 C   0  0  0  0  0  0  0  0  0  0  0  0
  -16.7958   12.8554  -22.2733 C   0  0  0  0  0  0  0  0  0  0  0  0
  -16.3238   13.5293  -23.4494 C   0  0  0  0  0  0  0  0  0  0  0  0
  -15.2755   14.4492  -23.3931 C   0  0  0  0  0  0  0  0  0  0  0  0
  -14.8143   15.1004  -24.5092 C   0  0  0  0  0  0  0  0  0  0  0  0
  -15.4440   14.8018  -25.7188 C   0  0  0  0  0  0  0  0  0  0  0  0
  -16.4805   13.8941  -25.7832 C   0  0  0  0  0  0  0  0  0  0  0  0
  -17.0970   13.6304  -27.1005 C   0  0  0  0  0  0  0  0  0  0  0  0
  -16.9331   13.2473  -24.6530 C   0  0  0  0  0  0  0  0  0  0  0  0
  -19.9425   11.8729  -17.0914 C   0  0  0  0  0  0  0  0  0  0  0  0
  -18.9171   11.4797  -18.1375 C   0  0  0  0  0  0  0  0  0  0  0  0
  -18.5663   12.1363  -19.2215 N   0  0  0  0  0  0  0  0  0  0  0  0
  -17.6523   11.6498  -20.0289 C   0  0  0  0  0  0  0  0  0  0  0  0
  -17.1061   10.4400  -19.6680 C   0  0  0  0  0  0  0  0  0  0  0  0
  -17.9315   10.0899  -18.2142 S   0  0  0  0  0  0  0  0  0  0  0  0
 10 11  1  0  0  0
 11 12  2  0  0  0
 12 13  1  0  0  0
 13 14  2  0  0  0
 14 15  1  0  0  0
 13  1  1  0  0  0
  1  2  3  0  0  0
  2  3  1  0  0  0
  3  4  2  0  0  0
  4  5  1  0  0  0
  5  6  2  0  0  0
  6  7  1  0  0  0
  7  8  1  0  0  0
  7  9  2  0  0  0
 15 11  1  0  0  0
  9  3  1  0  0  0
M  END
> <minimizedAffinity>
-6.36496

> <CNNscore>
0.5778538585

> <CNNaffinity>
5.0550355911

> <CNN_VS>
2.9210717678

> <CNNaffinity_variance>
0.3734991252

$$$$
[H]c1sc(C([H])([H])[H])nc1C#Cc1c([H])c([H])c([H])c(C([H])([H])[H])c1[H]


 15 16  0  0  0  0  0  0  0  0999 V2000
  -16.0934   13.3468  -23.4360 C   0  0  0  0  0  0  0  0  0  0  0  0
  -16.4348   12.7010  -22.4760 C   0  0  0  0  0  0  0  0  0  0  0  0
  -16.8255   11.9461  -21.3194 C   0  0  0  0  0  0  0  0  0  0  0  0
  -16.2697   10.6965  -21.0406 C   0  0  0  0  0  0  0  0  0  0  0  0
  -16.6338    9.9644  -19.9388 C   0  0  0  0  0  0  0  0  0  0  0  0
  -17.5949   10.5271  -19.0972 C   0  0  0  0  0  0  0  0  0  0  0  0
  -18.1492   11.7614  -19.3654 C   0  0  0  0  0  0  0  0  0  0  0  0
  -19.1612   12.2911  -18.4272 C   0  0  0  0  0  0  0  0  0  0  0  0
  -17.7732   12.4855  -20.4766 C   0  0  0  0  0  0  0  0  0  0  0  0
  -16.4370   15.2472  -28.0787 C   0  0  0  0  0  0  0  0  0  0  0  0
  -15.8324   14.9985  -26.7102 C   0  0  0  0  0  0  0  0  0  0  0  0
  -16.3075   14.2592  -25.7319 N   0  0  0  0  0  0  0  0  0  0  0  0
  -15.6514   14.1499  -24.5999 C   0  0  0  0  0  0  0  0  0  0  0  0
  -14.4670   14.8445  -24.5159 C   0  0  0  0  0  0  0  0  0  0  0  0
  -14.3790   15.5960  -26.0472 S   0  0  0  0  0  0  0  0  0  0  0  0
 10 11  1  0  0  0
 11 12  2  0  0  0
 12 13  1  0  0  0
 13 14  2  0  0  0
 14 15  1  0  0  0
 13  1  1  0  0  0
  1  2  3  0  0  0
  2  3  1  0  0  0
  3  4  2  0  0  0
  4  5  1  0  0  0
  5  6  2  0  0  0
  6  7  1  0  0  0
  7  8  1  0  0  0
  7  9  2  0  0  0
 15 11  1  0  0  0
  9  3  1  0  0  0
M  END
> <minimizedAffinity>
-7.20762

> <CNNscore>
0.5771623850

> <CNNaffinity>
5.3079099655

> <CNN_VS>
3.0635259151

> <CNNaffinity_variance>
0.4929401875

$$$$
