[H]/C(=C(/[H])C([H])([H])C([H])([H])N1C([H])([H])C([H])([H])N(C([H])([H])C([H])([H])[H])C([H])([H])C1([H])[H])c1c([H])c([H])c2c(N([H])c3c([H])c([H])c(Sc4nc([H])c([H])n4C([H])([H])[H])c(Cl)c3[H])c(C#N)c([H])nc2c1[H]


 40 44  0  0  0  0  0  0  0  0999 V2000
  -18.4758   11.0346  -18.4480 C   0  0  0  0  0  0  0  0  0  0  0  0
  -19.1821   12.0917  -18.9654 C   0  0  0  0  0  0  0  0  0  0  0  0
  -18.8466   12.7399  -20.1486 C   0  0  0  0  0  0  0  0  0  0  0  0
  -17.7393   12.3019  -20.8514 C   0  0  0  0  0  0  0  0  0  0  0  0
  -17.3375   12.8847  -22.0203 C   0  0  0  0  0  0  0  0  0  0  0  0
  -16.2117   12.4104  -22.6929 C   0  0  0  0  0  0  0  0  0  0  0  0
  -15.5399   11.3619  -22.1492 C   0  0  0  0  0  0  0  0  0  0  0  0
  -15.9472   10.8086  -21.0106 N   0  0  0  0  0  0  0  0  0  0  0  0
  -17.0228   11.2380  -20.3384 C   0  0  0  0  0  0  0  0  0  0  0  0
  -17.3708   10.6092  -19.1657 C   0  0  0  0  0  0  0  0  0  0  0  0
  -18.6958    9.0370  -17.0549 C   0  0  0  0  0  0  0  0  0  0  0  0
  -18.7895   10.3420  -17.2136 C   0  0  0  0  0  0  0  0  0  0  0  0
  -19.0392    8.3832  -15.7432 C   0  0  0  0  0  0  0  0  0  0  0  0
  -19.8209    9.3575  -14.9327 C   0  0  0  0  0  0  0  0  0  0  0  0
  -19.3110    9.2335  -10.7888 N   0  0  0  0  0  0  0  0  0  0  0  0
  -19.9138    8.1108  -11.4194 C   0  0  0  0  0  0  0  0  0  0  0  0
  -20.4251    8.4069  -12.8100 C   0  0  0  0  0  0  0  0  0  0  0  0
  -19.5860    9.3113  -13.5357 N   0  0  0  0  0  0  0  0  0  0  0  0
  -19.3038   10.5399  -12.8880 C   0  0  0  0  0  0  0  0  0  0  0  0
  -19.5325   10.4944  -11.4143 C   0  0  0  0  0  0  0  0  0  0  0  0
  -17.4684   10.2293   -9.5084 C   0  0  0  0  0  0  0  0  0  0  0  0
  -18.0182    9.0196  -10.2334 C   0  0  0  0  0  0  0  0  0  0  0  0
  -18.0486   13.9903  -22.5847 N   0  0  0  0  0  0  0  0  0  0  0  0
  -18.4587   13.9058  -23.5280 H   0  0  0  0  0  0  0  0  0  0  0  0
  -18.1966   15.2062  -21.8584 C   0  0  0  0  0  0  0  0  0  0  0  0
  -19.4585   15.6297  -21.5005 C   0  0  0  0  0  0  0  0  0  0  0  0
  -19.5708   16.8110  -20.7971 C   0  0  0  0  0  0  0  0  0  0  0  0
  -18.4698   17.5550  -20.4548 C   0  0  0  0  0  0  0  0  0  0  0  0
  -17.2000   17.1146  -20.8222 C   0  0  0  0  0  0  0  0  0  0  0  0
  -15.7803   18.0428  -20.3948 Cl  0  0  0  0  0  0  0  0  0  0  0  0
  -17.0608   15.9432  -21.5229 C   0  0  0  0  0  0  0  0  0  0  0  0
  -18.5866   19.0820  -19.5708 S   0  0  0  0  0  0  0  0  0  0  0  0
  -19.3023   20.3697  -20.5999 C   0  0  0  0  0  0  0  0  0  0  0  0
  -18.6888   21.2232  -21.4097 N   0  0  0  0  0  0  0  0  0  0  0  0
  -19.6095   21.9978  -21.9780 C   0  0  0  0  0  0  0  0  0  0  0  0
  -20.8342   21.5825  -21.4800 C   0  0  0  0  0  0  0  0  0  0  0  0
  -20.6288   20.5779  -20.6309 N   0  0  0  0  0  0  0  0  0  0  0  0
  -21.6635   19.8506  -19.8829 C   0  0  0  0  0  0  0  0  0  0  0  0
  -15.8429   13.0651  -23.9068 C   0  0  0  0  0  0  0  0  0  0  0  0
  -15.5318   13.6170  -24.8952 N   0  0  0  0  0  0  0  0  0  0  0  0
 21 22  1  0  0  0
 22 15  1  0  0  0
 15 16  1  0  0  0
 16 17  1  0  0  0
 17 18  1  0  0  0
 18 14  1  0  0  0
 14 13  1  0  0  0
 13 11  1  0  0  0
 11 12  2  0  0  0
 12  1  1  0  0  0
  1  2  2  0  0  0
  2  3  1  0  0  0
  3  4  2  0  0  0
  4  5  1  0  0  0
  5 23  1  0  0  0
 23 25  1  0  0  0
 25 26  2  0  0  0
 26 27  1  0  0  0
 27 28  2  0  0  0
 28 32  1  0  0  0
 32 33  1  0  0  0
 33 34  2  0  0  0
 34 35  1  0  0  0
 35 36  2  0  0  0
 36 37  1  0  0  0
 37 38  1  0  0  0
 28 29  1  0  0  0
 29 30  1  0  0  0
 29 31  2  0  0  0
  5  6  2  0  0  0
  6  7  1  0  0  0
  7  8  2  0  0  0
  8  9  1  0  0  0
  9 10  2  0  0  0
  6 39  1  0  0  0
 39 40  3  0  0  0
 18 19  1  0  0  0
 19 20  1  0  0  0
 20 15  1  0  0  0
 10  1  1  0  0  0
  9  4  1  0  0  0
 31 25  1  0  0  0
 37 33  1  0  0  0
 23 24  1  0  0  0
M  END
> <minimizedAffinity>
-8.53662

> <CNNscore>
0.6841733456

> <CNNaffinity>
7.9816894531

> <CNN_VS>
5.4608592987

> <CNNaffinity_variance>
0.0516206995

$$$$
[H]/C(=C(/[H])C([H])([H])C([H])([H])N1C([H])([H])C([H])([H])N(C([H])([H])C([H])([H])[H])C([H])([H])C1([H])[H])c1c([H])c([H])c2c(N([H])c3c([H])c([H])c(Sc4nc([H])c([H])n4C([H])([H])[H])c(Cl)c3[H])c(C#N)c([H])nc2c1[H]


 40 44  0  0  0  0  0  0  0  0999 V2000
  -18.4989   11.0433  -18.4553 C   0  0  0  0  0  0  0  0  0  0  0  0
  -19.1969   12.1180  -18.9471 C   0  0  0  0  0  0  0  0  0  0  0  0
  -18.8701   12.7771  -20.1267 C   0  0  0  0  0  0  0  0  0  0  0  0
  -17.7808   12.3319  -20.8529 C   0  0  0  0  0  0  0  0  0  0  0  0
  -17.3885   12.9245  -22.0201 C   0  0  0  0  0  0  0  0  0  0  0  0
  -16.2809   12.4423  -22.7167 C   0  0  0  0  0  0  0  0  0  0  0  0
  -15.6168   11.3765  -22.1979 C   0  0  0  0  0  0  0  0  0  0  0  0
  -16.0146   10.8139  -21.0606 N   0  0  0  0  0  0  0  0  0  0  0  0
  -17.0729   11.2504  -20.3656 C   0  0  0  0  0  0  0  0  0  0  0  0
  -17.4120   10.6110  -19.1961 C   0  0  0  0  0  0  0  0  0  0  0  0
  -18.6917    9.0343  -17.0746 C   0  0  0  0  0  0  0  0  0  0  0  0
  -18.8038   10.3388  -17.2254 C   0  0  0  0  0  0  0  0  0  0  0  0
  -19.0269    8.3677  -15.7673 C   0  0  0  0  0  0  0  0  0  0  0  0
  -19.8427    9.3172  -14.9609 C   0  0  0  0  0  0  0  0  0  0  0  0
  -19.3214    9.2414  -10.8173 N   0  0  0  0  0  0  0  0  0  0  0  0
  -19.9140    8.1060  -11.4347 C   0  0  0  0  0  0  0  0  0  0  0  0
  -20.4317    8.3824  -12.8270 C   0  0  0  0  0  0  0  0  0  0  0  0
  -19.6039    9.2879  -13.5641 N   0  0  0  0  0  0  0  0  0  0  0  0
  -19.3329   10.5260  -12.9299 C   0  0  0  0  0  0  0  0  0  0  0  0
  -19.5575   10.4934  -11.4552 C   0  0  0  0  0  0  0  0  0  0  0  0
  -17.5180   10.2430   -9.4865 C   0  0  0  0  0  0  0  0  0  0  0  0
  -18.0251    9.0466  -10.2630 C   0  0  0  0  0  0  0  0  0  0  0  0
  -18.0912   14.0484  -22.5583 N   0  0  0  0  0  0  0  0  0  0  0  0
  -18.5111   13.9855  -23.4990 H   0  0  0  0  0  0  0  0  0  0  0  0
  -18.2179   15.2528  -21.8092 C   0  0  0  0  0  0  0  0  0  0  0  0
  -19.4711   15.6848  -21.4316 C   0  0  0  0  0  0  0  0  0  0  0  0
  -19.5626   16.8547  -20.7066 C   0  0  0  0  0  0  0  0  0  0  0  0
  -18.4495   17.5795  -20.3620 C   0  0  0  0  0  0  0  0  0  0  0  0
  -17.1887   17.1309  -20.7495 C   0  0  0  0  0  0  0  0  0  0  0  0
  -15.7540   18.0346  -20.3198 Cl  0  0  0  0  0  0  0  0  0  0  0  0
  -17.0701   15.9705  -21.4719 C   0  0  0  0  0  0  0  0  0  0  0  0
  -18.5396   19.0920  -19.4502 S   0  0  0  0  0  0  0  0  0  0  0  0
  -20.1105   19.2330  -18.5888 C   0  0  0  0  0  0  0  0  0  0  0  0
  -21.2433   19.7803  -19.0105 N   0  0  0  0  0  0  0  0  0  0  0  0
  -22.1527   19.6575  -18.0469 C   0  0  0  0  0  0  0  0  0  0  0  0
  -21.5275   19.0024  -16.9978 C   0  0  0  0  0  0  0  0  0  0  0  0
  -20.2682   18.7473  -17.3465 N   0  0  0  0  0  0  0  0  0  0  0  0
  -19.2617   18.0662  -16.5207 C   0  0  0  0  0  0  0  0  0  0  0  0
  -15.9212   13.1079  -23.9275 C   0  0  0  0  0  0  0  0  0  0  0  0
  -15.6172   13.6684  -24.9133 N   0  0  0  0  0  0  0  0  0  0  0  0
 21 22  1  0  0  0
 22 15  1  0  0  0
 15 16  1  0  0  0
 16 17  1  0  0  0
 17 18  1  0  0  0
 18 14  1  0  0  0
 14 13  1  0  0  0
 13 11  1  0  0  0
 11 12  2  0  0  0
 12  1  1  0  0  0
  1  2  2  0  0  0
  2  3  1  0  0  0
  3  4  2  0  0  0
  4  5  1  0  0  0
  5 23  1  0  0  0
 23 25  1  0  0  0
 25 26  2  0  0  0
 26 27  1  0  0  0
 27 28  2  0  0  0
 28 32  1  0  0  0
 32 33  1  0  0  0
 33 34  2  0  0  0
 34 35  1  0  0  0
 35 36  2  0  0  0
 36 37  1  0  0  0
 37 38  1  0  0  0
 28 29  1  0  0  0
 29 30  1  0  0  0
 29 31  2  0  0  0
  5  6  2  0  0  0
  6  7  1  0  0  0
  7  8  2  0  0  0
  8  9  1  0  0  0
  9 10  2  0  0  0
  6 39  1  0  0  0
 39 40  3  0  0  0
 18 19  1  0  0  0
 19 20  1  0  0  0
 20 15  1  0  0  0
 10  1  1  0  0  0
  9  4  1  0  0  0
 31 25  1  0  0  0
 37 33  1  0  0  0
 23 24  1  0  0  0
M  END
> <minimizedAffinity>
-8.49367

> <CNNscore>
0.6648026109

> <CNNaffinity>
8.0404224396

> <CNN_VS>
5.3452939987

> <CNNaffinity_variance>
0.0206277408

$$$$
[H]/C(=C(/[H])C([H])([H])C([H])([H])N1C([H])([H])C([H])([H])N(C([H])([H])C([H])([H])[H])C([H])([H])C1([H])[H])c1c([H])c([H])c2c(N([H])c3c([H])c([H])c(Sc4nc([H])c([H])n4C([H])([H])[H])c(Cl)c3[H])c(C#N)c([H])nc2c1[H]


 40 44  0  0  0  0  0  0  0  0999 V2000
  -19.6533   16.1198  -19.9922 C   0  0  0  0  0  0  0  0  0  0  0  0
  -19.3608   15.5359  -18.7848 C   0  0  0  0  0  0  0  0  0  0  0  0
  -18.6665   14.3387  -18.6538 C   0  0  0  0  0  0  0  0  0  0  0  0
  -18.2424   13.6914  -19.7997 C   0  0  0  0  0  0  0  0  0  0  0  0
  -17.5579   12.5093  -19.7610 C   0  0  0  0  0  0  0  0  0  0  0  0
  -17.1530   11.8913  -20.9438 C   0  0  0  0  0  0  0  0  0  0  0  0
  -17.4608   12.5008  -22.1185 C   0  0  0  0  0  0  0  0  0  0  0  0
  -18.1277   13.6512  -22.1347 N   0  0  0  0  0  0  0  0  0  0  0  0
  -18.5319   14.2722  -21.0192 C   0  0  0  0  0  0  0  0  0  0  0  0
  -19.2200   15.4580  -21.1286 C   0  0  0  0  0  0  0  0  0  0  0  0
  -21.3361   17.7767  -19.3579 C   0  0  0  0  0  0  0  0  0  0  0  0
  -20.3831   17.3601  -20.1674 C   0  0  0  0  0  0  0  0  0  0  0  0
  -22.0542   19.0771  -19.6011 C   0  0  0  0  0  0  0  0  0  0  0  0
  -21.1483   20.1873  -19.1959 C   0  0  0  0  0  0  0  0  0  0  0  0
  -19.9225   22.8652  -22.1579 N   0  0  0  0  0  0  0  0  0  0  0  0
  -18.9507   22.4173  -21.2216 C   0  0  0  0  0  0  0  0  0  0  0  0
  -19.5531   21.8051  -19.9786 C   0  0  0  0  0  0  0  0  0  0  0  0
  -20.7401   21.0505  -20.2434 N   0  0  0  0  0  0  0  0  0  0  0  0
  -21.7602   21.7385  -20.9468 C   0  0  0  0  0  0  0  0  0  0  0  0
  -21.2626   22.9391  -21.6797 C   0  0  0  0  0  0  0  0  0  0  0  0
  -19.3980   20.9513  -23.6028 C   0  0  0  0  0  0  0  0  0  0  0  0
  -19.7513   22.4195  -23.4987 C   0  0  0  0  0  0  0  0  0  0  0  0
  -17.2404   11.8722  -18.5201 N   0  0  0  0  0  0  0  0  0  0  0  0
  -16.2933   11.9722  -18.1223 H   0  0  0  0  0  0  0  0  0  0  0  0
  -18.2176   11.1017  -17.8279 C   0  0  0  0  0  0  0  0  0  0  0  0
  -18.1007    9.7286  -17.8018 C   0  0  0  0  0  0  0  0  0  0  0  0
  -19.0621    9.0087  -17.1232 C   0  0  0  0  0  0  0  0  0  0  0  0
  -20.1102    9.6247  -16.4869 C   0  0  0  0  0  0  0  0  0  0  0  0
  -20.2157   11.0136  -16.5206 C   0  0  0  0  0  0  0  0  0  0  0  0
  -21.5402   11.8231  -15.7143 Cl  0  0  0  0  0  0  0  0  0  0  0  0
  -19.2730   11.7531  -17.1892 C   0  0  0  0  0  0  0  0  0  0  0  0
  -21.3665    8.7254  -15.6267 S   0  0  0  0  0  0  0  0  0  0  0  0
  -20.6833    7.2684  -14.8268 C   0  0  0  0  0  0  0  0  0  0  0  0
  -20.6140    6.0248  -15.2842 N   0  0  0  0  0  0  0  0  0  0  0  0
  -20.0247    5.2701  -14.3601 C   0  0  0  0  0  0  0  0  0  0  0  0
  -19.7281    6.1095  -13.2980 C   0  0  0  0  0  0  0  0  0  0  0  0
  -20.1404    7.3388  -13.6002 N   0  0  0  0  0  0  0  0  0  0  0  0
  -20.0173    8.5282  -12.7463 C   0  0  0  0  0  0  0  0  0  0  0  0
  -16.4447   10.6565  -20.8348 C   0  0  0  0  0  0  0  0  0  0  0  0
  -15.8533    9.6476  -20.7305 N   0  0  0  0  0  0  0  0  0  0  0  0
 21 22  1  0  0  0
 22 15  1  0  0  0
 15 16  1  0  0  0
 16 17  1  0  0  0
 17 18  1  0  0  0
 18 14  1  0  0  0
 14 13  1  0  0  0
 13 11  1  0  0  0
 11 12  2  0  0  0
 12  1  1  0  0  0
  1  2  2  0  0  0
  2  3  1  0  0  0
  3  4  2  0  0  0
  4  5  1  0  0  0
  5 23  1  0  0  0
 23 25  1  0  0  0
 25 26  2  0  0  0
 26 27  1  0  0  0
 27 28  2  0  0  0
 28 32  1  0  0  0
 32 33  1  0  0  0
 33 34  2  0  0  0
 34 35  1  0  0  0
 35 36  2  0  0  0
 36 37  1  0  0  0
 37 38  1  0  0  0
 28 29  1  0  0  0
 29 30  1  0  0  0
 29 31  2  0  0  0
  5  6  2  0  0  0
  6  7  1  0  0  0
  7  8  2  0  0  0
  8  9  1  0  0  0
  9 10  2  0  0  0
  6 39  1  0  0  0
 39 40  3  0  0  0
 18 19  1  0  0  0
 19 20  1  0  0  0
 20 15  1  0  0  0
 10  1  1  0  0  0
  9  4  1  0  0  0
 31 25  1  0  0  0
 37 33  1  0  0  0
 23 24  1  0  0  0
M  END
> <minimizedAffinity>
-7.26875

> <CNNscore>
0.6511402130

> <CNNaffinity>
7.5763764381

> <CNN_VS>
4.9332833290

> <CNNaffinity_variance>
0.0645904541

$$$$
[H]/C(=C(/[H])C([H])([H])C([H])([H])N1C([H])([H])C([H])([H])N(C([H])([H])C([H])([H])[H])C([H])([H])C1([H])[H])c1c([H])c([H])c2c(N([H])c3c([H])c([H])c(Sc4nc([H])c([H])n4C([H])([H])[H])c(Cl)c3[H])c(C#N)c([H])nc2c1[H]


 40 44  0  0  0  0  0  0  0  0999 V2000
  -18.6542   10.9267  -18.1629 C   0  0  0  0  0  0  0  0  0  0  0  0
  -19.3395   11.9763  -18.7220 C   0  0  0  0  0  0  0  0  0  0  0  0
  -18.9705   12.5937  -19.9117 C   0  0  0  0  0  0  0  0  0  0  0  0
  -17.8500   12.1310  -20.5769 C   0  0  0  0  0  0  0  0  0  0  0  0
  -17.4157   12.6828  -21.7492 C   0  0  0  0  0  0  0  0  0  0  0  0
  -16.2778   12.1844  -22.3828 C   0  0  0  0  0  0  0  0  0  0  0  0
  -15.6275   11.1443  -21.7984 C   0  0  0  0  0  0  0  0  0  0  0  0
  -16.0665   10.6213  -20.6573 N   0  0  0  0  0  0  0  0  0  0  0  0
  -17.1546   11.0744  -20.0217 C   0  0  0  0  0  0  0  0  0  0  0  0
  -17.5356   10.4762  -18.8433 C   0  0  0  0  0  0  0  0  0  0  0  0
  -18.8461    8.9759  -16.7009 C   0  0  0  0  0  0  0  0  0  0  0  0
  -19.0029   10.2659  -16.9204 C   0  0  0  0  0  0  0  0  0  0  0  0
  -19.2314    8.3552  -15.3848 C   0  0  0  0  0  0  0  0  0  0  0  0
  -20.6643    7.9579  -15.4638 C   0  0  0  0  0  0  0  0  0  0  0  0
  -23.2643   10.5489  -13.4703 N   0  0  0  0  0  0  0  0  0  0  0  0
  -23.5643   10.2117  -14.8186 C   0  0  0  0  0  0  0  0  0  0  0  0
  -22.3883    9.6287  -15.5669 C   0  0  0  0  0  0  0  0  0  0  0  0
  -21.5646    8.7890  -14.7514 N   0  0  0  0  0  0  0  0  0  0  0  0
  -21.0899    9.3747  -13.5513 C   0  0  0  0  0  0  0  0  0  0  0  0
  -21.8825   10.5641  -13.1232 C   0  0  0  0  0  0  0  0  0  0  0  0
  -24.5217    8.5899  -12.6908 C   0  0  0  0  0  0  0  0  0  0  0  0
  -24.1600   10.0454  -12.4855 C   0  0  0  0  0  0  0  0  0  0  0  0
  -18.1041   13.7799  -22.3566 N   0  0  0  0  0  0  0  0  0  0  0  0
  -18.5297   13.6622  -23.2895 H   0  0  0  0  0  0  0  0  0  0  0  0
  -18.2087   15.0325  -21.6873 C   0  0  0  0  0  0  0  0  0  0  0  0
  -19.4564   15.5566  -21.4263 C   0  0  0  0  0  0  0  0  0  0  0  0
  -19.5265   16.7714  -20.7764 C   0  0  0  0  0  0  0  0  0  0  0  0
  -18.3979   17.4513  -20.3932 C   0  0  0  0  0  0  0  0  0  0  0  0
  -17.1430   16.9095  -20.6626 C   0  0  0  0  0  0  0  0  0  0  0  0
  -15.6891   17.7547  -20.1813 Cl  0  0  0  0  0  0  0  0  0  0  0  0
  -17.0455   15.7029  -21.3085 C   0  0  0  0  0  0  0  0  0  0  0  0
  -18.4587   19.0186  -19.5764 S   0  0  0  0  0  0  0  0  0  0  0  0
  -19.2433   20.2572  -20.6155 C   0  0  0  0  0  0  0  0  0  0  0  0
  -18.6885   21.0601  -21.5144 N   0  0  0  0  0  0  0  0  0  0  0  0
  -19.6453   21.8130  -22.0515 C   0  0  0  0  0  0  0  0  0  0  0  0
  -20.8307   21.4374  -21.4397 C   0  0  0  0  0  0  0  0  0  0  0  0
  -20.5670   20.4771  -20.5562 N   0  0  0  0  0  0  0  0  0  0  0  0
  -21.5457   19.8012  -19.6933 C   0  0  0  0  0  0  0  0  0  0  0  0
  -15.8747   12.8073  -23.6025 C   0  0  0  0  0  0  0  0  0  0  0  0
  -15.5358   13.3334  -24.5959 N   0  0  0  0  0  0  0  0  0  0  0  0
 21 22  1  0  0  0
 22 15  1  0  0  0
 15 16  1  0  0  0
 16 17  1  0  0  0
 17 18  1  0  0  0
 18 14  1  0  0  0
 14 13  1  0  0  0
 13 11  1  0  0  0
 11 12  2  0  0  0
 12  1  1  0  0  0
  1  2  2  0  0  0
  2  3  1  0  0  0
  3  4  2  0  0  0
  4  5  1  0  0  0
  5 23  1  0  0  0
 23 25  1  0  0  0
 25 26  2  0  0  0
 26 27  1  0  0  0
 27 28  2  0  0  0
 28 32  1  0  0  0
 32 33  1  0  0  0
 33 34  2  0  0  0
 34 35  1  0  0  0
 35 36  2  0  0  0
 36 37  1  0  0  0
 37 38  1  0  0  0
 28 29  1  0  0  0
 29 30  1  0  0  0
 29 31  2  0  0  0
  5  6  2  0  0  0
  6  7  1  0  0  0
  7  8  2  0  0  0
  8  9  1  0  0  0
  9 10  2  0  0  0
  6 39  1  0  0  0
 39 40  3  0  0  0
 18 19  1  0  0  0
 19 20  1  0  0  0
 20 15  1  0  0  0
 10  1  1  0  0  0
  9  4  1  0  0  0
 31 25  1  0  0  0
 37 33  1  0  0  0
 23 24  1  0  0  0
M  END
> <minimizedAffinity>
-7.77636

> <CNNscore>
0.6174836159

> <CNNaffinity>
7.8999314308

> <CNN_VS>
4.8780784607

> <CNNaffinity_variance>
0.0594403371

$$$$
[H]/C(=C(/[H])C([H])([H])C([H])([H])N1C([H])([H])C([H])([H])N(C([H])([H])C([H])([H])[H])C([H])([H])C1([H])[H])c1c([H])c([H])c2c(N([H])c3c([H])c([H])c(Sc4nc([H])c([H])n4C([H])([H])[H])c(Cl)c3[H])c(C#N)c([H])nc2c1[H]


 40 44  0  0  0  0  0  0  0  0999 V2000
  -18.6771   10.9517  -18.0738 C   0  0  0  0  0  0  0  0  0  0  0  0
  -19.3127   12.0388  -18.6201 C   0  0  0  0  0  0  0  0  0  0  0  0
  -18.9170   12.6505  -19.8041 C   0  0  0  0  0  0  0  0  0  0  0  0
  -17.8212   12.1421  -20.4770 C   0  0  0  0  0  0  0  0  0  0  0  0
  -17.3633   12.6852  -21.6444 C   0  0  0  0  0  0  0  0  0  0  0  0
  -16.2518   12.1398  -22.2861 C   0  0  0  0  0  0  0  0  0  0  0  0
  -15.6507   11.0637  -21.7143 C   0  0  0  0  0  0  0  0  0  0  0  0
  -16.1119   10.5500  -20.5778 N   0  0  0  0  0  0  0  0  0  0  0  0
  -17.1759   11.0476  -19.9347 C   0  0  0  0  0  0  0  0  0  0  0  0
  -17.5827   10.4557  -18.7618 C   0  0  0  0  0  0  0  0  0  0  0  0
  -18.7496    9.0476  -16.5412 C   0  0  0  0  0  0  0  0  0  0  0  0
  -19.0546   10.2951  -16.8376 C   0  0  0  0  0  0  0  0  0  0  0  0
  -19.1756    8.4283  -15.2370 C   0  0  0  0  0  0  0  0  0  0  0  0
  -19.7624    9.5008  -14.3868 C   0  0  0  0  0  0  0  0  0  0  0  0
  -18.7182    9.2812  -10.3484 N   0  0  0  0  0  0  0  0  0  0  0  0
  -18.2320    8.2669  -11.2180 C   0  0  0  0  0  0  0  0  0  0  0  0
  -18.9784    8.1929  -12.5295 C   0  0  0  0  0  0  0  0  0  0  0  0
  -19.3720    9.4769  -13.0245 N   0  0  0  0  0  0  0  0  0  0  0  0
  -20.1189   10.2783  -12.1253 C   0  0  0  0  0  0  0  0  0  0  0  0
  -19.9726    9.8576  -10.7012 C   0  0  0  0  0  0  0  0  0  0  0  0
  -16.5126    9.4581   -9.2853 C   0  0  0  0  0  0  0  0  0  0  0  0
  -17.7414   10.1672   -9.8130 C   0  0  0  0  0  0  0  0  0  0  0  0
  -17.9999   13.8203  -22.2384 N   0  0  0  0  0  0  0  0  0  0  0  0
  -18.3778   13.7506  -23.1963 H   0  0  0  0  0  0  0  0  0  0  0  0
  -18.1178   15.0451  -21.5217 C   0  0  0  0  0  0  0  0  0  0  0  0
  -16.9978   15.5964  -20.9376 C   0  0  0  0  0  0  0  0  0  0  0  0
  -17.1426   16.7835  -20.2501 C   0  0  0  0  0  0  0  0  0  0  0  0
  -18.3579   17.4112  -20.1413 C   0  0  0  0  0  0  0  0  0  0  0  0
  -19.4819   16.8433  -20.7374 C   0  0  0  0  0  0  0  0  0  0  0  0
  -21.0418   17.6255  -20.6165 Cl  0  0  0  0  0  0  0  0  0  0  0  0
  -19.3651   15.6626  -21.4265 C   0  0  0  0  0  0  0  0  0  0  0  0
  -18.5754   18.9229  -19.2499 S   0  0  0  0  0  0  0  0  0  0  0  0
  -19.2241   18.6127  -17.6030 C   0  0  0  0  0  0  0  0  0  0  0  0
  -19.1299   17.5131  -16.8663 N   0  0  0  0  0  0  0  0  0  0  0  0
  -19.7526   17.7283  -15.7101 C   0  0  0  0  0  0  0  0  0  0  0  0
  -20.2420   19.0237  -15.7626 C   0  0  0  0  0  0  0  0  0  0  0  0
  -19.9086   19.5565  -16.9362 N   0  0  0  0  0  0  0  0  0  0  0  0
  -20.2342   20.9139  -17.3952 C   0  0  0  0  0  0  0  0  0  0  0  0
  -15.8218   12.7559  -23.5001 C   0  0  0  0  0  0  0  0  0  0  0  0
  -15.4672   13.2458  -24.5064 N   0  0  0  0  0  0  0  0  0  0  0  0
 21 22  1  0  0  0
 22 15  1  0  0  0
 15 16  1  0  0  0
 16 17  1  0  0  0
 17 18  1  0  0  0
 18 14  1  0  0  0
 14 13  1  0  0  0
 13 11  1  0  0  0
 11 12  2  0  0  0
 12  1  1  0  0  0
  1  2  2  0  0  0
  2  3  1  0  0  0
  3  4  2  0  0  0
  4  5  1  0  0  0
  5 23  1  0  0  0
 23 25  1  0  0  0
 25 26  2  0  0  0
 26 27  1  0  0  0
 27 28  2  0  0  0
 28 32  1  0  0  0
 32 33  1  0  0  0
 33 34  2  0  0  0
 34 35  1  0  0  0
 35 36  2  0  0  0
 36 37  1  0  0  0
 37 38  1  0  0  0
 28 29  1  0  0  0
 29 30  1  0  0  0
 29 31  2  0  0  0
  5  6  2  0  0  0
  6  7  1  0  0  0
  7  8  2  0  0  0
  8  9  1  0  0  0
  9 10  2  0  0  0
  6 39  1  0  0  0
 39 40  3  0  0  0
 18 19  1  0  0  0
 19 20  1  0  0  0
 20 15  1  0  0  0
 10  1  1  0  0  0
  9  4  1  0  0  0
 31 25  1  0  0  0
 37 33  1  0  0  0
 23 24  1  0  0  0
M  END
> <minimizedAffinity>
-8.85507

> <CNNscore>
0.5435355902

> <CNNaffinity>
7.8786482811

> <CNN_VS>
4.2823257446

> <CNNaffinity_variance>
0.0131914597

$$$$
[H]/C(=C(/[H])C([H])([H])C([H])([H])N1C([H])([H])C([H])([H])N(C([H])([H])C([H])([H])[H])C([H])([H])C1([H])[H])c1c([H])c([H])c2c(N([H])c3c([H])c([H])c(Sc4nc([H])c([H])n4C([H])([H])[H])c(Cl)c3[H])c(C#N)c([H])nc2c1[H]


 40 44  0  0  0  0  0  0  0  0999 V2000
  -19.1595   16.4247  -21.2509 C   0  0  0  0  0  0  0  0  0  0  0  0
  -18.9344   16.0664  -19.9452 C   0  0  0  0  0  0  0  0  0  0  0  0
  -18.3362   14.8707  -19.5644 C   0  0  0  0  0  0  0  0  0  0  0  0
  -17.9423   13.9850  -20.5505 C   0  0  0  0  0  0  0  0  0  0  0  0
  -17.3510   12.7869  -20.2636 C   0  0  0  0  0  0  0  0  0  0  0  0
  -16.9734   11.9241  -21.2920 C   0  0  0  0  0  0  0  0  0  0  0  0
  -17.2124   12.3149  -22.5712 C   0  0  0  0  0  0  0  0  0  0  0  0
  -17.7890   13.4851  -22.8294 N   0  0  0  0  0  0  0  0  0  0  0  0
  -18.1645   14.3378  -21.8675 C   0  0  0  0  0  0  0  0  0  0  0  0
  -18.7578   15.5261  -22.2246 C   0  0  0  0  0  0  0  0  0  0  0  0
  -20.4697   17.7831  -22.8059 C   0  0  0  0  0  0  0  0  0  0  0  0
  -19.7891   17.6567  -21.6844 C   0  0  0  0  0  0  0  0  0  0  0  0
  -21.0974   19.0948  -23.1949 C   0  0  0  0  0  0  0  0  0  0  0  0
  -20.0031   20.0684  -23.4634 C   0  0  0  0  0  0  0  0  0  0  0  0
  -20.4843   22.5261  -26.8063 N   0  0  0  0  0  0  0  0  0  0  0  0
  -19.2777   22.6416  -26.0630 C   0  0  0  0  0  0  0  0  0  0  0  0
  -19.3657   22.0403  -24.6797 C   0  0  0  0  0  0  0  0  0  0  0  0
  -20.1614   20.8515  -24.6341 N   0  0  0  0  0  0  0  0  0  0  0  0
  -21.4728   20.9707  -25.1580 C   0  0  0  0  0  0  0  0  0  0  0  0
  -21.6396   22.1431  -26.0657 C   0  0  0  0  0  0  0  0  0  0  0  0
  -21.5602   21.1607  -28.5396 C   0  0  0  0  0  0  0  0  0  0  0  0
  -20.3622   21.9836  -28.1164 C   0  0  0  0  0  0  0  0  0  0  0  0
  -17.1056   12.3812  -18.9139 N   0  0  0  0  0  0  0  0  0  0  0  0
  -16.1763   12.5401  -18.4938 H   0  0  0  0  0  0  0  0  0  0  0  0
  -18.1302   11.7607  -18.1438 C   0  0  0  0  0  0  0  0  0  0  0  0
  -18.1706   10.3858  -18.0564 C   0  0  0  0  0  0  0  0  0  0  0  0
  -19.1743    9.8131  -17.3031 C   0  0  0  0  0  0  0  0  0  0  0  0
  -20.1127   10.5742  -16.6527 C   0  0  0  0  0  0  0  0  0  0  0  0
  -20.0595   11.9631  -16.7489 C   0  0  0  0  0  0  0  0  0  0  0  0
  -21.2417   12.9559  -15.9264 Cl  0  0  0  0  0  0  0  0  0  0  0  0
  -19.0716   12.5579  -17.4924 C   0  0  0  0  0  0  0  0  0  0  0  0
  -21.4209    9.8657  -15.6968 S   0  0  0  0  0  0  0  0  0  0  0  0
  -21.0073    8.1964  -15.1754 C   0  0  0  0  0  0  0  0  0  0  0  0
  -21.5198    7.0452  -15.5908 N   0  0  0  0  0  0  0  0  0  0  0  0
  -20.9137    6.0565  -14.9381 C   0  0  0  0  0  0  0  0  0  0  0  0
  -19.9926    6.6516  -14.0908 C   0  0  0  0  0  0  0  0  0  0  0  0
  -20.0621    7.9718  -14.2480 N   0  0  0  0  0  0  0  0  0  0  0  0
  -19.2543    8.9725  -13.5372 C   0  0  0  0  0  0  0  0  0  0  0  0
  -16.3637   10.6863  -20.9253 C   0  0  0  0  0  0  0  0  0  0  0  0
  -15.8636    9.6628  -20.6412 N   0  0  0  0  0  0  0  0  0  0  0  0
 21 22  1  0  0  0
 22 15  1  0  0  0
 15 16  1  0  0  0
 16 17  1  0  0  0
 17 18  1  0  0  0
 18 14  1  0  0  0
 14 13  1  0  0  0
 13 11  1  0  0  0
 11 12  2  0  0  0
 12  1  1  0  0  0
  1  2  2  0  0  0
  2  3  1  0  0  0
  3  4  2  0  0  0
  4  5  1  0  0  0
  5 23  1  0  0  0
 23 25  1  0  0  0
 25 26  2  0  0  0
 26 27  1  0  0  0
 27 28  2  0  0  0
 28 32  1  0  0  0
 32 33  1  0  0  0
 33 34  2  0  0  0
 34 35  1  0  0  0
 35 36  2  0  0  0
 36 37  1  0  0  0
 37 38  1  0  0  0
 28 29  1  0  0  0
 29 30  1  0  0  0
 29 31  2  0  0  0
  5  6  2  0  0  0
  6  7  1  0  0  0
  7  8  2  0  0  0
  8  9  1  0  0  0
  9 10  2  0  0  0
  6 39  1  0  0  0
 39 40  3  0  0  0
 18 19  1  0  0  0
 19 20  1  0  0  0
 20 15  1  0  0  0
 10  1  1  0  0  0
  9  4  1  0  0  0
 31 25  1  0  0  0
 37 33  1  0  0  0
 23 24  1  0  0  0
M  END
> <minimizedAffinity>
-8.41968

> <CNNscore>
0.5307642817

> <CNNaffinity>
7.3507132530

> <CNN_VS>
3.9014959335

> <CNNaffinity_variance>
0.1182686687

$$$$
[H]/C(=C(/[H])C([H])([H])C([H])([H])N1C([H])([H])C([H])([H])N(C([H])([H])C([H])([H])[H])C([H])([H])C1([H])[H])c1c([H])c([H])c2c(N([H])c3c([H])c([H])c(Sc4nc([H])c([H])n4C([H])([H])[H])c(Cl)c3[H])c(C#N)c([H])nc2c1[H]


 40 44  0  0  0  0  0  0  0  0999 V2000
  -18.6927   16.7464  -21.2681 C   0  0  0  0  0  0  0  0  0  0  0  0
  -18.5346   16.3683  -19.9581 C   0  0  0  0  0  0  0  0  0  0  0  0
  -18.1112   15.1040  -19.5647 C   0  0  0  0  0  0  0  0  0  0  0  0
  -17.8312   14.1666  -20.5419 C   0  0  0  0  0  0  0  0  0  0  0  0
  -17.4138   12.9003  -20.2425 C   0  0  0  0  0  0  0  0  0  0  0  0
  -17.1462   11.9877  -21.2624 C   0  0  0  0  0  0  0  0  0  0  0  0
  -17.3139   12.4001  -22.5461 C   0  0  0  0  0  0  0  0  0  0  0  0
  -17.7209   13.6368  -22.8166 N   0  0  0  0  0  0  0  0  0  0  0  0
  -17.9869   14.5388  -21.8632 C   0  0  0  0  0  0  0  0  0  0  0  0
  -18.4068   15.7952  -22.2328 C   0  0  0  0  0  0  0  0  0  0  0  0
  -20.3209   18.2798  -22.2567 C   0  0  0  0  0  0  0  0  0  0  0  0
  -19.1416   18.0506  -21.7148 C   0  0  0  0  0  0  0  0  0  0  0  0
  -20.7216   19.6616  -22.6995 C   0  0  0  0  0  0  0  0  0  0  0  0
  -19.6220   20.2146  -23.5377 C   0  0  0  0  0  0  0  0  0  0  0  0
  -20.8591   22.3895  -26.8822 N   0  0  0  0  0  0  0  0  0  0  0  0
  -19.5792   22.6798  -26.3353 C   0  0  0  0  0  0  0  0  0  0  0  0
  -19.3970   22.1618  -24.9277 C   0  0  0  0  0  0  0  0  0  0  0  0
  -20.0363   20.9004  -24.7068 N   0  0  0  0  0  0  0  0  0  0  0  0
  -21.4145   20.8459  -25.0324 C   0  0  0  0  0  0  0  0  0  0  0  0
  -21.8439   21.9337  -25.9589 C   0  0  0  0  0  0  0  0  0  0  0  0
  -19.5477   21.9096  -28.9011 C   0  0  0  0  0  0  0  0  0  0  0  0
  -20.8661   21.7808  -28.1687 C   0  0  0  0  0  0  0  0  0  0  0  0
  -17.2426   12.4728  -18.8881 N   0  0  0  0  0  0  0  0  0  0  0  0
  -16.3087   12.5212  -18.4514 H   0  0  0  0  0  0  0  0  0  0  0  0
  -18.3475   11.9814  -18.1360 C   0  0  0  0  0  0  0  0  0  0  0  0
  -19.3736   12.8396  -17.8040 C   0  0  0  0  0  0  0  0  0  0  0  0
  -20.4307   12.3353  -17.0753 C   0  0  0  0  0  0  0  0  0  0  0  0
  -20.4763   11.0207  -16.6846 C   0  0  0  0  0  0  0  0  0  0  0  0
  -19.4327   10.1639  -17.0278 C   0  0  0  0  0  0  0  0  0  0  0  0
  -19.4686    8.4830  -16.5450 Cl  0  0  0  0  0  0  0  0  0  0  0  0
  -18.3690   10.6406  -17.7516 C   0  0  0  0  0  0  0  0  0  0  0  0
  -21.8094   10.3529  -15.7337 S   0  0  0  0  0  0  0  0  0  0  0  0
  -21.9712   11.2077  -14.1612 C   0  0  0  0  0  0  0  0  0  0  0  0
  -22.9221   12.0435  -13.7637 N   0  0  0  0  0  0  0  0  0  0  0  0
  -22.6442   12.4352  -12.5227 C   0  0  0  0  0  0  0  0  0  0  0  0
  -21.4667   11.7985  -12.1641 C   0  0  0  0  0  0  0  0  0  0  0  0
  -21.0634   11.0450  -13.1849 N   0  0  0  0  0  0  0  0  0  0  0  0
  -19.8577   10.2058  -13.2188 C   0  0  0  0  0  0  0  0  0  0  0  0
  -16.7171   10.6800  -20.8827 C   0  0  0  0  0  0  0  0  0  0  0  0
  -16.3581    9.6115  -20.5544 N   0  0  0  0  0  0  0  0  0  0  0  0
 21 22  1  0  0  0
 22 15  1  0  0  0
 15 16  1  0  0  0
 16 17  1  0  0  0
 17 18  1  0  0  0
 18 14  1  0  0  0
 14 13  1  0  0  0
 13 11  1  0  0  0
 11 12  2  0  0  0
 12  1  1  0  0  0
  1  2  2  0  0  0
  2  3  1  0  0  0
  3  4  2  0  0  0
  4  5  1  0  0  0
  5 23  1  0  0  0
 23 25  1  0  0  0
 25 26  2  0  0  0
 26 27  1  0  0  0
 27 28  2  0  0  0
 28 32  1  0  0  0
 32 33  1  0  0  0
 33 34  2  0  0  0
 34 35  1  0  0  0
 35 36  2  0  0  0
 36 37  1  0  0  0
 37 38  1  0  0  0
 28 29  1  0  0  0
 29 30  1  0  0  0
 29 31  2  0  0  0
  5  6  2  0  0  0
  6  7  1  0  0  0
  7  8  2  0  0  0
  8  9  1  0  0  0
  9 10  2  0  0  0
  6 39  1  0  0  0
 39 40  3  0  0  0
 18 19  1  0  0  0
 19 20  1  0  0  0
 20 15  1  0  0  0
 10  1  1  0  0  0
  9  4  1  0  0  0
 31 25  1  0  0  0
 37 33  1  0  0  0
 23 24  1  0  0  0
M  END
> <minimizedAffinity>
-7.96455

> <CNNscore>
0.5005658865

> <CNNaffinity>
7.3877029419

> <CNN_VS>
3.6980321407

> <CNNaffinity_variance>
0.1809338927

$$$$
[H]/C(=C(/[H])C([H])([H])C([H])([H])N1C([H])([H])C([H])([H])N(C([H])([H])C([H])([H])[H])C([H])([H])C1([H])[H])c1c([H])c([H])c2c(N([H])c3c([H])c([H])c(Sc4nc([H])c([H])n4C([H])([H])[H])c(Cl)c3[H])c(C#N)c([H])nc2c1[H]


 40 44  0  0  0  0  0  0  0  0999 V2000
  -19.2003   16.6439  -21.0422 C   0  0  0  0  0  0  0  0  0  0  0  0
  -19.0382   16.2544  -19.7361 C   0  0  0  0  0  0  0  0  0  0  0  0
  -18.4972   15.0314  -19.3562 C   0  0  0  0  0  0  0  0  0  0  0  0
  -18.0969   14.1501  -20.3436 C   0  0  0  0  0  0  0  0  0  0  0  0
  -17.5592   12.9268  -20.0579 C   0  0  0  0  0  0  0  0  0  0  0  0
  -17.1727   12.0697  -21.0878 C   0  0  0  0  0  0  0  0  0  0  0  0
  -17.3486   12.4918  -22.3673 C   0  0  0  0  0  0  0  0  0  0  0  0
  -17.8736   13.6862  -22.6244 N   0  0  0  0  0  0  0  0  0  0  0  0
  -18.2558   14.5343  -21.6611 C   0  0  0  0  0  0  0  0  0  0  0  0
  -18.7931   15.7492  -22.0173 C   0  0  0  0  0  0  0  0  0  0  0  0
  -20.9844   18.3118  -21.1662 C   0  0  0  0  0  0  0  0  0  0  0  0
  -19.7694   17.9051  -21.4752 C   0  0  0  0  0  0  0  0  0  0  0  0
  -21.5121   19.6352  -21.6520 C   0  0  0  0  0  0  0  0  0  0  0  0
  -21.0805   19.8132  -23.0660 C   0  0  0  0  0  0  0  0  0  0  0  0
  -23.9593   18.5520  -25.8171 N   0  0  0  0  0  0  0  0  0  0  0  0
  -24.0457   19.8835  -25.3261 C   0  0  0  0  0  0  0  0  0  0  0  0
  -23.2458   20.1106  -24.0646 C   0  0  0  0  0  0  0  0  0  0  0  0
  -22.0127   19.3842  -24.0436 N   0  0  0  0  0  0  0  0  0  0  0  0
  -22.1193   17.9883  -24.2647 C   0  0  0  0  0  0  0  0  0  0  0  0
  -23.3971   17.5931  -24.9258 C   0  0  0  0  0  0  0  0  0  0  0  0
  -22.8622   19.5996  -27.7472 C   0  0  0  0  0  0  0  0  0  0  0  0
  -23.6216   18.4133  -27.1928 C   0  0  0  0  0  0  0  0  0  0  0  0
  -17.3801   12.4883  -18.7080 N   0  0  0  0  0  0  0  0  0  0  0  0
  -16.4504   12.5626  -18.2660 H   0  0  0  0  0  0  0  0  0  0  0  0
  -18.4714   11.9508  -17.9676 C   0  0  0  0  0  0  0  0  0  0  0  0
  -19.4812   12.7898  -17.5480 C   0  0  0  0  0  0  0  0  0  0  0  0
  -20.5253   12.2407  -16.8330 C   0  0  0  0  0  0  0  0  0  0  0  0
  -20.5740   10.9011  -16.5399 C   0  0  0  0  0  0  0  0  0  0  0  0
  -19.5469   10.0642  -16.9711 C   0  0  0  0  0  0  0  0  0  0  0  0
  -19.5872    8.3524  -16.6135 Cl  0  0  0  0  0  0  0  0  0  0  0  0
  -18.4963   10.5853  -17.6834 C   0  0  0  0  0  0  0  0  0  0  0  0
  -21.8903   10.1747  -15.6089 S   0  0  0  0  0  0  0  0  0  0  0  0
  -21.7295   10.5552  -13.8599 C   0  0  0  0  0  0  0  0  0  0  0  0
  -21.0328   11.5249  -13.2811 N   0  0  0  0  0  0  0  0  0  0  0  0
  -21.2043   11.4361  -11.9645 C   0  0  0  0  0  0  0  0  0  0  0  0
  -22.0474   10.3574  -11.7499 C   0  0  0  0  0  0  0  0  0  0  0  0
  -22.3627    9.8238  -12.9282 N   0  0  0  0  0  0  0  0  0  0  0  0
  -23.2348    8.6617  -13.1474 C   0  0  0  0  0  0  0  0  0  0  0  0
  -16.6212   10.8046  -20.7224 C   0  0  0  0  0  0  0  0  0  0  0  0
  -16.1595    9.7632  -20.4383 N   0  0  0  0  0  0  0  0  0  0  0  0
 21 22  1  0  0  0
 22 15  1  0  0  0
 15 16  1  0  0  0
 16 17  1  0  0  0
 17 18  1  0  0  0
 18 14  1  0  0  0
 14 13  1  0  0  0
 13 11  1  0  0  0
 11 12  2  0  0  0
 12  1  1  0  0  0
  1  2  2  0  0  0
  2  3  1  0  0  0
  3  4  2  0  0  0
  4  5  1  0  0  0
  5 23  1  0  0  0
 23 25  1  0  0  0
 25 26  2  0  0  0
 26 27  1  0  0  0
 27 28  2  0  0  0
 28 32  1  0  0  0
 32 33  1  0  0  0
 33 34  2  0  0  0
 34 35  1  0  0  0
 35 36  2  0  0  0
 36 37  1  0  0  0
 37 38  1  0  0  0
 28 29  1  0  0  0
 29 30  1  0  0  0
 29 31  2  0  0  0
  5  6  2  0  0  0
  6  7  1  0  0  0
  7  8  2  0  0  0
  8  9  1  0  0  0
  9 10  2  0  0  0
  6 39  1  0  0  0
 39 40  3  0  0  0
 18 19  1  0  0  0
 19 20  1  0  0  0
 20 15  1  0  0  0
 10  1  1  0  0  0
  9  4  1  0  0  0
 31 25  1  0  0  0
 37 33  1  0  0  0
 23 24  1  0  0  0
M  END
> <minimizedAffinity>
-8.18719

> <CNNscore>
0.4303400517

> <CNNaffinity>
7.3637824059

> <CNN_VS>
3.1689305305

> <CNNaffinity_variance>
0.1249416098

$$$$
[H]/C(=C(/[H])C([H])([H])C([H])([H])N1C([H])([H])C([H])([H])N(C([H])([H])C([H])([H])[H])C([H])([H])C1([H])[H])c1c([H])c([H])c2c(N([H])c3c([H])c([H])c(Sc4nc([H])c([H])n4C([H])([H])[H])c(Cl)c3[H])c(C#N)c([H])nc2c1[H]


 40 44  0  0  0  0  0  0  0  0999 V2000
  -19.0702   16.4204  -20.8038 C   0  0  0  0  0  0  0  0  0  0  0  0
  -18.8713   15.9828  -19.5181 C   0  0  0  0  0  0  0  0  0  0  0  0
  -18.3245   14.7451  -19.1993 C   0  0  0  0  0  0  0  0  0  0  0  0
  -17.9570   13.8993  -20.2297 C   0  0  0  0  0  0  0  0  0  0  0  0
  -17.4163   12.6647  -20.0048 C   0  0  0  0  0  0  0  0  0  0  0  0
  -17.0638   11.8447  -21.0763 C   0  0  0  0  0  0  0  0  0  0  0  0
  -17.2755   12.3140  -22.3338 C   0  0  0  0  0  0  0  0  0  0  0  0
  -17.8029   13.5186  -22.5315 N   0  0  0  0  0  0  0  0  0  0  0  0
  -18.1530   14.3320  -21.5270 C   0  0  0  0  0  0  0  0  0  0  0  0
  -18.6955   15.5608  -21.8225 C   0  0  0  0  0  0  0  0  0  0  0  0
  -18.9402   18.7462  -21.5482 C   0  0  0  0  0  0  0  0  0  0  0  0
  -19.6465   17.6984  -21.1735 C   0  0  0  0  0  0  0  0  0  0  0  0
  -19.6055   20.0447  -21.9180 C   0  0  0  0  0  0  0  0  0  0  0  0
  -19.7079   20.1044  -23.4024 C   0  0  0  0  0  0  0  0  0  0  0  0
  -23.5710   20.5757  -24.9194 N   0  0  0  0  0  0  0  0  0  0  0  0
  -22.4776   20.8849  -25.7741 C   0  0  0  0  0  0  0  0  0  0  0  0
  -21.1754   21.0833  -25.0341 C   0  0  0  0  0  0  0  0  0  0  0  0
  -21.0251   20.2019  -23.9165 N   0  0  0  0  0  0  0  0  0  0  0  0
  -22.0851   20.2178  -22.9758 C   0  0  0  0  0  0  0  0  0  0  0  0
  -23.3522   20.7812  -23.5266 C   0  0  0  0  0  0  0  0  0  0  0  0
  -23.6057   18.4734  -26.1865 C   0  0  0  0  0  0  0  0  0  0  0  0
  -24.3424   19.4348  -25.2786 C   0  0  0  0  0  0  0  0  0  0  0  0
  -17.1994   12.1765  -18.6777 N   0  0  0  0  0  0  0  0  0  0  0  0
  -16.2624   12.2537  -18.2519 H   0  0  0  0  0  0  0  0  0  0  0  0
  -18.2631   11.5857  -17.9378 C   0  0  0  0  0  0  0  0  0  0  0  0
  -18.3456   10.2125  -17.8532 C   0  0  0  0  0  0  0  0  0  0  0  0
  -19.3866    9.6688  -17.1295 C   0  0  0  0  0  0  0  0  0  0  0  0
  -20.3208   10.4565  -16.5053 C   0  0  0  0  0  0  0  0  0  0  0  0
  -20.2249   11.8433  -16.5983 C   0  0  0  0  0  0  0  0  0  0  0  0
  -21.4009   12.8696  -15.8088 Cl  0  0  0  0  0  0  0  0  0  0  0  0
  -19.1994   12.4095  -17.3127 C   0  0  0  0  0  0  0  0  0  0  0  0
  -21.6756    9.7858  -15.5878 S   0  0  0  0  0  0  0  0  0  0  0  0
  -21.0941    8.6916  -14.2863 C   0  0  0  0  0  0  0  0  0  0  0  0
  -20.5658    9.0062  -13.1104 N   0  0  0  0  0  0  0  0  0  0  0  0
  -20.2832    7.8788  -12.4625 C   0  0  0  0  0  0  0  0  0  0  0  0
  -20.6638    6.8399  -13.2970 C   0  0  0  0  0  0  0  0  0  0  0  0
  -21.1619    7.3567  -14.4183 N   0  0  0  0  0  0  0  0  0  0  0  0
  -21.6802    6.5991  -15.5657 C   0  0  0  0  0  0  0  0  0  0  0  0
  -16.5070   10.5654  -20.7738 C   0  0  0  0  0  0  0  0  0  0  0  0
  -16.0613    9.5055  -20.5365 N   0  0  0  0  0  0  0  0  0  0  0  0
 21 22  1  0  0  0
 22 15  1  0  0  0
 15 16  1  0  0  0
 16 17  1  0  0  0
 17 18  1  0  0  0
 18 14  1  0  0  0
 14 13  1  0  0  0
 13 11  1  0  0  0
 11 12  2  0  0  0
 12  1  1  0  0  0
  1  2  2  0  0  0
  2  3  1  0  0  0
  3  4  2  0  0  0
  4  5  1  0  0  0
  5 23  1  0  0  0
 23 25  1  0  0  0
 25 26  2  0  0  0
 26 27  1  0  0  0
 27 28  2  0  0  0
 28 32  1  0  0  0
 32 33  1  0  0  0
 33 34  2  0  0  0
 34 35  1  0  0  0
 35 36  2  0  0  0
 36 37  1  0  0  0
 37 38  1  0  0  0
 28 29  1  0  0  0
 29 30  1  0  0  0
 29 31  2  0  0  0
  5  6  2  0  0  0
  6  7  1  0  0  0
  7  8  2  0  0  0
  8  9  1  0  0  0
  9 10  2  0  0  0
  6 39  1  0  0  0
 39 40  3  0  0  0
 18 19  1  0  0  0
 19 20  1  0  0  0
 20 15  1  0  0  0
 10  1  1  0  0  0
  9  4  1  0  0  0
 31 25  1  0  0  0
 37 33  1  0  0  0
 23 24  1  0  0  0
M  END
> <minimizedAffinity>
-8.07464

> <CNNscore>
0.3995919824

> <CNNaffinity>
7.2527475357

> <CNN_VS>
2.8981397152

> <CNNaffinity_variance>
0.1099723205

$$$$
[H]c1c([H])c(N([H])c2nc(N([H])[C@]3([H])C([H])([H])C([H])([H])C([H])([H])C([H])([H])[C@]3([H])N([H])[H])c([H])c3nc([H])n([H])c(=O)c23)c2c(c1[H])c(C([H])([H])[H])c([H])n2[H]


 36 40  0  0  0  0  0  0  0  0999 V2000
  -17.2892   12.5967  -21.2085 C   0  0  0  0  0  0  0  0  0  0  0  0
  -17.9867   13.7442  -21.1872 N   0  0  0  0  0  0  0  0  0  0  0  0
  -18.8736   14.1442  -20.2592 C   0  0  0  0  0  0  0  0  0  0  0  0
  -19.0616   13.2548  -19.2323 C   0  0  0  0  0  0  0  0  0  0  0  0
  -18.3652   12.0355  -19.1882 C   0  0  0  0  0  0  0  0  0  0  0  0
  -18.5700   11.2025  -18.1511 N   0  0  0  0  0  0  0  0  0  0  0  0
  -17.9002   10.0404  -18.0800 C   0  0  0  0  0  0  0  0  0  0  0  0
  -17.0190    9.6833  -19.0291 N   0  0  0  0  0  0  0  0  0  0  0  0
  -16.7686   10.4914  -20.1104 C   0  0  0  0  0  0  0  0  0  0  0  0
  -15.9330   10.1126  -20.9647 O   0  0  0  0  0  0  0  0  0  0  0  0
  -17.4669   11.6805  -20.1693 C   0  0  0  0  0  0  0  0  0  0  0  0
  -16.4826    8.7946  -19.0073 H   0  0  0  0  0  0  0  0  0  0  0  0
  -16.4658   12.2547  -22.3011 N   0  0  0  0  0  0  0  0  0  0  0  0
  -15.6652   11.6095  -22.1583 H   0  0  0  0  0  0  0  0  0  0  0  0
  -14.6310   15.8446  -26.9254 C   0  0  0  0  0  0  0  0  0  0  0  0
  -14.8695   15.0668  -25.6851 C   0  0  0  0  0  0  0  0  0  0  0  0
  -14.1157   15.0989  -24.5108 C   0  0  0  0  0  0  0  0  0  0  0  0
  -14.6675   14.2458  -23.6288 N   0  0  0  0  0  0  0  0  0  0  0  0
  -15.7546   13.6508  -24.1702 C   0  0  0  0  0  0  0  0  0  0  0  0
  -16.6585   12.6991  -23.6623 C   0  0  0  0  0  0  0  0  0  0  0  0
  -17.6448   12.3249  -24.4999 C   0  0  0  0  0  0  0  0  0  0  0  0
  -17.7830   12.8330  -25.7953 C   0  0  0  0  0  0  0  0  0  0  0  0
  -16.8920   13.7572  -26.2683 C   0  0  0  0  0  0  0  0  0  0  0  0
  -15.8846   14.1542  -25.4416 C   0  0  0  0  0  0  0  0  0  0  0  0
  -14.3295   14.0507  -22.6610 H   0  0  0  0  0  0  0  0  0  0  0  0
  -19.5235   15.4007  -20.3569 N   0  0  0  0  0  0  0  0  0  0  0  0
  -20.4143   15.4285  -19.7055 H   0  0  0  0  0  0  0  0  0  0  0  0
  -19.2383   16.5501  -21.1005 C   0  0  0  0  0  0  0  0  0  0  0  0
  -18.6023   16.3816  -22.4604 C   0  0  0  0  0  0  0  0  0  0  0  0
  -18.9684   17.6187  -23.2986 C   0  0  0  0  0  0  0  0  0  0  0  0
  -18.7753   18.8669  -22.4619 C   0  0  0  0  0  0  0  0  0  0  0  0
  -17.8498   18.6199  -21.2814 C   0  0  0  0  0  0  0  0  0  0  0  0
  -18.4899   17.6087  -20.3489 C   0  0  0  0  0  0  0  0  0  0  0  0
  -17.4775   17.1066  -19.4620 N   0  0  0  0  0  0  0  0  0  0  0  0
  -16.6907   17.7653  -19.3139 H   0  0  0  0  0  0  0  0  0  0  0  0
  -17.8342   16.8137  -18.5287 H   0  0  0  0  0  0  0  0  0  0  0  0
 15 16  1  0  0  0
 16 17  2  0  0  0
 17 18  1  0  0  0
 18 19  1  0  0  0
 19 20  2  0  0  0
 20 13  1  0  0  0
 13  1  1  0  0  0
  1  2  2  0  0  0
  2  3  1  0  0  0
  3 26  1  0  0  0
 26 28  1  0  0  0
 28 29  1  0  0  0
 29 30  1  0  0  0
 30 31  1  0  0  0
 31 32  1  0  0  0
 32 33  1  0  0  0
 33 34  1  0  0  0
  3  4  2  0  0  0
  4  5  1  0  0  0
  5  6  1  0  0  0
  6  7  2  0  0  0
  7  8  1  0  0  0
  8  9  1  0  0  0
  9 10  2  0  0  0
  9 11  1  0  0  0
 20 21  1  0  0  0
 21 22  2  0  0  0
 22 23  1  0  0  0
 23 24  2  0  0  0
 24 16  1  0  0  0
 24 19  1  0  0  0
 11  1  1  0  0  0
 33 28  1  0  0  0
 11  5  2  0  0  0
 18 25  1  0  0  0
 13 14  1  0  0  0
 26 27  1  0  0  0
 34 35  1  0  0  0
 34 36  1  0  0  0
  8 12  1  0  0  0
M  END
> <minimizedAffinity>
-9.83068

> <CNNscore>
0.8968511820

> <CNNaffinity>
7.9406785965

> <CNN_VS>
7.1216068268

> <CNNaffinity_variance>
0.1540347636

$$$$
[H]c1c([H])c(N([H])c2nc(N([H])[C@]3([H])C([H])([H])C([H])([H])C([H])([H])C([H])([H])[C@]3([H])N([H])[H])c([H])c3nc([H])n([H])c(=O)c23)c2c(c1[H])c(C([H])([H])[H])c([H])n2[H]


 36 40  0  0  0  0  0  0  0  0999 V2000
  -17.1058   12.7131  -21.7727 C   0  0  0  0  0  0  0  0  0  0  0  0
  -17.9050   13.7910  -21.8283 N   0  0  0  0  0  0  0  0  0  0  0  0
  -18.8572   14.1484  -20.9488 C   0  0  0  0  0  0  0  0  0  0  0  0
  -19.0002   13.2922  -19.8870 C   0  0  0  0  0  0  0  0  0  0  0  0
  -18.1979   12.1457  -19.7628 C   0  0  0  0  0  0  0  0  0  0  0  0
  -18.3632   11.3445  -18.6941 N   0  0  0  0  0  0  0  0  0  0  0  0
  -17.5935   10.2536  -18.5465 C   0  0  0  0  0  0  0  0  0  0  0  0
  -16.6501    9.9375  -19.4491 N   0  0  0  0  0  0  0  0  0  0  0  0
  -16.4356   10.7161  -20.5593 C   0  0  0  0  0  0  0  0  0  0  0  0
  -15.5391   10.3784  -21.3678 O   0  0  0  0  0  0  0  0  0  0  0  0
  -17.2366   11.8317  -20.6970 C   0  0  0  0  0  0  0  0  0  0  0  0
  -16.0363    9.1041  -19.3680 H   0  0  0  0  0  0  0  0  0  0  0  0
  -16.2162   12.4002  -22.8212 N   0  0  0  0  0  0  0  0  0  0  0  0
  -15.9900   11.4074  -23.0234 H   0  0  0  0  0  0  0  0  0  0  0  0
  -16.2545   15.3085  -28.2229 C   0  0  0  0  0  0  0  0  0  0  0  0
  -16.4660   14.5037  -26.9949 C   0  0  0  0  0  0  0  0  0  0  0  0
  -17.5169   13.6229  -26.7338 C   0  0  0  0  0  0  0  0  0  0  0  0
  -17.3353   13.0970  -25.5088 N   0  0  0  0  0  0  0  0  0  0  0  0
  -16.2087   13.5928  -24.9486 C   0  0  0  0  0  0  0  0  0  0  0  0
  -15.5952   13.3613  -23.7034 C   0  0  0  0  0  0  0  0  0  0  0  0
  -14.4560   14.0436  -23.4774 C   0  0  0  0  0  0  0  0  0  0  0  0
  -13.8988   14.9313  -24.4031 C   0  0  0  0  0  0  0  0  0  0  0  0
  -14.5130   15.1412  -25.6075 C   0  0  0  0  0  0  0  0  0  0  0  0
  -15.6666   14.4633  -25.8626 C   0  0  0  0  0  0  0  0  0  0  0  0
  -17.9554   12.4052  -25.0335 H   0  0  0  0  0  0  0  0  0  0  0  0
  -19.6147   15.3338  -21.1269 N   0  0  0  0  0  0  0  0  0  0  0  0
  -20.6946   15.1055  -21.1429 H   0  0  0  0  0  0  0  0  0  0  0  0
  -19.2414   16.6731  -21.2762 C   0  0  0  0  0  0  0  0  0  0  0  0
  -20.3200   17.7280  -21.2009 C   0  0  0  0  0  0  0  0  0  0  0  0
  -19.6527   19.0409  -20.7555 C   0  0  0  0  0  0  0  0  0  0  0  0
  -18.3725   19.2443  -21.5398 C   0  0  0  0  0  0  0  0  0  0  0  0
  -18.3575   18.4269  -22.8215 C   0  0  0  0  0  0  0  0  0  0  0  0
  -18.3817   16.9507  -22.4718 C   0  0  0  0  0  0  0  0  0  0  0  0
  -18.7432   16.2124  -23.6499 N   0  0  0  0  0  0  0  0  0  0  0  0
  -18.5044   16.6979  -24.5344 H   0  0  0  0  0  0  0  0  0  0  0  0
  -18.3448   15.2513  -23.6907 H   0  0  0  0  0  0  0  0  0  0  0  0
 15 16  1  0  0  0
 16 17  2  0  0  0
 17 18  1  0  0  0
 18 19  1  0  0  0
 19 20  2  0  0  0
 20 13  1  0  0  0
 13  1  1  0  0  0
  1  2  2  0  0  0
  2  3  1  0  0  0
  3 26  1  0  0  0
 26 28  1  0  0  0
 28 29  1  0  0  0
 29 30  1  0  0  0
 30 31  1  0  0  0
 31 32  1  0  0  0
 32 33  1  0  0  0
 33 34  1  0  0  0
  3  4  2  0  0  0
  4  5  1  0  0  0
  5  6  1  0  0  0
  6  7  2  0  0  0
  7  8  1  0  0  0
  8  9  1  0  0  0
  9 10  2  0  0  0
  9 11  1  0  0  0
 20 21  1  0  0  0
 21 22  2  0  0  0
 22 23  1  0  0  0
 23 24  2  0  0  0
 24 16  1  0  0  0
 24 19  1  0  0  0
 11  1  1  0  0  0
 33 28  1  0  0  0
 11  5  2  0  0  0
 18 25  1  0  0  0
 13 14  1  0  0  0
 26 27  1  0  0  0
 34 35  1  0  0  0
 34 36  1  0  0  0
  8 12  1  0  0  0
M  END
> <minimizedAffinity>
-9.98148

> <CNNscore>
0.7708705068

> <CNNaffinity>
7.8736977577

> <CNN_VS>
6.0696015358

> <CNNaffinity_variance>
0.2739389837

$$$$
[H]c1c([H])c(N([H])c2nc(N([H])[C@]3([H])C([H])([H])C([H])([H])C([H])([H])C([H])([H])[C@]3([H])N([H])[H])c([H])c3nc([H])n([H])c(=O)c23)c2c(c1[H])c(C([H])([H])[H])c([H])n2[H]


 36 40  0  0  0  0  0  0  0  0999 V2000
  -17.1850   12.7153  -21.7506 C   0  0  0  0  0  0  0  0  0  0  0  0
  -17.9720   13.8036  -21.7533 N   0  0  0  0  0  0  0  0  0  0  0  0
  -18.8782   14.1589  -20.8258 C   0  0  0  0  0  0  0  0  0  0  0  0
  -18.9835   13.2881  -19.7715 C   0  0  0  0  0  0  0  0  0  0  0  0
  -18.1911   12.1301  -19.7013 C   0  0  0  0  0  0  0  0  0  0  0  0
  -18.3177   11.3146  -18.6383 N   0  0  0  0  0  0  0  0  0  0  0  0
  -17.5561   10.2122  -18.5424 C   0  0  0  0  0  0  0  0  0  0  0  0
  -16.6591    9.8986  -19.4922 N   0  0  0  0  0  0  0  0  0  0  0  0
  -16.4857   10.6917  -20.5993 C   0  0  0  0  0  0  0  0  0  0  0  0
  -15.6315   10.3556  -21.4531 O   0  0  0  0  0  0  0  0  0  0  0  0
  -17.2777   11.8190  -20.6834 C   0  0  0  0  0  0  0  0  0  0  0  0
  -16.0531    9.0566  -19.4517 H   0  0  0  0  0  0  0  0  0  0  0  0
  -16.3484   12.4079  -22.8435 N   0  0  0  0  0  0  0  0  0  0  0  0
  -16.1892   11.4159  -23.1049 H   0  0  0  0  0  0  0  0  0  0  0  0
  -16.1710   15.3305  -28.2347 C   0  0  0  0  0  0  0  0  0  0  0  0
  -16.4299   14.5204  -27.0193 C   0  0  0  0  0  0  0  0  0  0  0  0
  -17.4831   13.6291  -26.8079 C   0  0  0  0  0  0  0  0  0  0  0  0
  -17.3519   13.1015  -25.5772 N   0  0  0  0  0  0  0  0  0  0  0  0
  -16.2564   13.6063  -24.9657 C   0  0  0  0  0  0  0  0  0  0  0  0
  -15.6974   13.3771  -23.6945 C   0  0  0  0  0  0  0  0  0  0  0  0
  -14.5761   14.0694  -23.4159 C   0  0  0  0  0  0  0  0  0  0  0  0
  -13.9862   14.9649  -24.3135 C   0  0  0  0  0  0  0  0  0  0  0  0
  -14.5475   15.1724  -25.5438 C   0  0  0  0  0  0  0  0  0  0  0  0
  -15.6820   14.4843  -25.8523 C   0  0  0  0  0  0  0  0  0  0  0  0
  -17.9862   12.4027  -25.1319 H   0  0  0  0  0  0  0  0  0  0  0  0
  -19.6277   15.3560  -20.9511 N   0  0  0  0  0  0  0  0  0  0  0  0
  -20.7062   15.1326  -21.0262 H   0  0  0  0  0  0  0  0  0  0  0  0
  -19.2485   16.7013  -20.9918 C   0  0  0  0  0  0  0  0  0  0  0  0
  -18.1951   17.1764  -20.0188 C   0  0  0  0  0  0  0  0  0  0  0  0
  -17.5138   18.4082  -20.6398 C   0  0  0  0  0  0  0  0  0  0  0  0
  -18.5708   19.3339  -21.2067 C   0  0  0  0  0  0  0  0  0  0  0  0
  -19.9392   19.0706  -20.5989 C   0  0  0  0  0  0  0  0  0  0  0  0
  -20.3906   17.6714  -20.9736 C   0  0  0  0  0  0  0  0  0  0  0  0
  -21.4750   17.2987  -20.1084 N   0  0  0  0  0  0  0  0  0  0  0  0
  -22.0059   18.1074  -19.7353 H   0  0  0  0  0  0  0  0  0  0  0  0
  -22.1542   16.6355  -20.5362 H   0  0  0  0  0  0  0  0  0  0  0  0
 15 16  1  0  0  0
 16 17  2  0  0  0
 17 18  1  0  0  0
 18 19  1  0  0  0
 19 20  2  0  0  0
 20 13  1  0  0  0
 13  1  1  0  0  0
  1  2  2  0  0  0
  2  3  1  0  0  0
  3 26  1  0  0  0
 26 28  1  0  0  0
 28 29  1  0  0  0
 29 30  1  0  0  0
 30 31  1  0  0  0
 31 32  1  0  0  0
 32 33  1  0  0  0
 33 34  1  0  0  0
  3  4  2  0  0  0
  4  5  1  0  0  0
  5  6  1  0  0  0
  6  7  2  0  0  0
  7  8  1  0  0  0
  8  9  1  0  0  0
  9 10  2  0  0  0
  9 11  1  0  0  0
 20 21  1  0  0  0
 21 22  2  0  0  0
 22 23  1  0  0  0
 23 24  2  0  0  0
 24 16  1  0  0  0
 24 19  1  0  0  0
 11  1  1  0  0  0
 33 28  1  0  0  0
 11  5  2  0  0  0
 18 25  1  0  0  0
 13 14  1  0  0  0
 26 27  1  0  0  0
 34 35  1  0  0  0
 34 36  1  0  0  0
  8 12  1  0  0  0
M  END
> <minimizedAffinity>
-9.92224

> <CNNscore>
0.7617833018

> <CNNaffinity>
7.8409929276

> <CNN_VS>
5.9731373787

> <CNNaffinity_variance>
0.2536966503

$$$$
[H]c1c([H])c(N([H])c2nc(N([H])[C@]3([H])C([H])([H])C([H])([H])C([H])([H])C([H])([H])[C@]3([H])N([H])[H])c([H])c3nc([H])n([H])c(=O)c23)c2c(c1[H])c(C([H])([H])[H])c([H])n2[H]


 36 40  0  0  0  0  0  0  0  0999 V2000
  -17.9016   13.0537  -20.8063 C   0  0  0  0  0  0  0  0  0  0  0  0
  -18.7547   14.0594  -20.5525 N   0  0  0  0  0  0  0  0  0  0  0  0
  -19.6201   14.1580  -19.5282 C   0  0  0  0  0  0  0  0  0  0  0  0
  -19.6017   13.0928  -18.6644 C   0  0  0  0  0  0  0  0  0  0  0  0
  -18.7345   12.0062  -18.8664 C   0  0  0  0  0  0  0  0  0  0  0  0
  -18.7403   10.9918  -17.9820 N   0  0  0  0  0  0  0  0  0  0  0  0
  -17.9056    9.9522  -18.1462 C   0  0  0  0  0  0  0  0  0  0  0  0
  -17.0535    9.8981  -19.1834 N   0  0  0  0  0  0  0  0  0  0  0  0
  -17.0025   10.9027  -20.1178 C   0  0  0  0  0  0  0  0  0  0  0  0
  -16.1854   10.8046  -21.0634 O   0  0  0  0  0  0  0  0  0  0  0  0
  -17.8683   11.9621  -19.9356 C   0  0  0  0  0  0  0  0  0  0  0  0
  -16.3939    9.1123  -19.3421 H   0  0  0  0  0  0  0  0  0  0  0  0
  -17.1193   13.0290  -21.9794 N   0  0  0  0  0  0  0  0  0  0  0  0
  -16.8063   12.1189  -22.3686 H   0  0  0  0  0  0  0  0  0  0  0  0
  -16.1335   15.5528  -27.4837 C   0  0  0  0  0  0  0  0  0  0  0  0
  -16.4513   14.7391  -26.2848 C   0  0  0  0  0  0  0  0  0  0  0  0
  -16.9209   13.4249  -26.2571 C   0  0  0  0  0  0  0  0  0  0  0  0
  -17.0811   13.0585  -24.9725 N   0  0  0  0  0  0  0  0  0  0  0  0
  -16.7373   14.0748  -24.1493 C   0  0  0  0  0  0  0  0  0  0  0  0
  -16.7289   14.1893  -22.7467 C   0  0  0  0  0  0  0  0  0  0  0  0
  -16.3163   15.3754  -22.2597 C   0  0  0  0  0  0  0  0  0  0  0  0
  -15.9179   16.4405  -23.0737 C   0  0  0  0  0  0  0  0  0  0  0  0
  -15.9346   16.3067  -24.4352 C   0  0  0  0  0  0  0  0  0  0  0  0
  -16.3471   15.1169  -24.9548 C   0  0  0  0  0  0  0  0  0  0  0  0
  -17.4189   12.1324  -24.6300 H   0  0  0  0  0  0  0  0  0  0  0  0
  -20.4507   15.2969  -19.3747 N   0  0  0  0  0  0  0  0  0  0  0  0
  -21.1626   15.3741  -20.2149 H   0  0  0  0  0  0  0  0  0  0  0  0
  -20.5157   16.2854  -18.3878 C   0  0  0  0  0  0  0  0  0  0  0  0
  -19.3256   16.4625  -17.4745 C   0  0  0  0  0  0  0  0  0  0  0  0
  -19.3473   17.9132  -16.9624 C   0  0  0  0  0  0  0  0  0  0  0  0
  -20.7562   18.2745  -16.5381 C   0  0  0  0  0  0  0  0  0  0  0  0
  -21.6002   17.0395  -16.2665 C   0  0  0  0  0  0  0  0  0  0  0  0
  -21.7599   16.2517  -17.5532 C   0  0  0  0  0  0  0  0  0  0  0  0
  -22.2192   14.9316  -17.2216 N   0  0  0  0  0  0  0  0  0  0  0  0
  -22.7410   14.8855  -16.3269 H   0  0  0  0  0  0  0  0  0  0  0  0
  -22.8021   14.4843  -17.9594 H   0  0  0  0  0  0  0  0  0  0  0  0
 15 16  1  0  0  0
 16 17  2  0  0  0
 17 18  1  0  0  0
 18 19  1  0  0  0
 19 20  2  0  0  0
 20 13  1  0  0  0
 13  1  1  0  0  0
  1  2  2  0  0  0
  2  3  1  0  0  0
  3 26  1  0  0  0
 26 28  1  0  0  0
 28 29  1  0  0  0
 29 30  1  0  0  0
 30 31  1  0  0  0
 31 32  1  0  0  0
 32 33  1  0  0  0
 33 34  1  0  0  0
  3  4  2  0  0  0
  4  5  1  0  0  0
  5  6  1  0  0  0
  6  7  2  0  0  0
  7  8  1  0  0  0
  8  9  1  0  0  0
  9 10  2  0  0  0
  9 11  1  0  0  0
 20 21  1  0  0  0
 21 22  2  0  0  0
 22 23  1  0  0  0
 23 24  2  0  0  0
 24 16  1  0  0  0
 24 19  1  0  0  0
 11  1  1  0  0  0
 33 28  1  0  0  0
 11  5  2  0  0  0
 18 25  1  0  0  0
 13 14  1  0  0  0
 26 27  1  0  0  0
 34 35  1  0  0  0
 34 36  1  0  0  0
  8 12  1  0  0  0
M  END
> <minimizedAffinity>
-9.26730

> <CNNscore>
0.7393428683

> <CNNaffinity>
7.4837913513

> <CNN_VS>
5.5330877304

> <CNNaffinity_variance>
0.1941380650

$$$$
[H]c1c([H])c(N([H])c2nc(N([H])[C@]3([H])C([H])([H])C([H])([H])C([H])([H])C([H])([H])[C@]3([H])N([H])[H])c([H])c3nc([H])n([H])c(=O)c23)c2c(c1[H])c(C([H])([H])[H])c([H])n2[H]


 36 40  0  0  0  0  0  0  0  0999 V2000
  -17.0535   13.1005  -21.5269 C   0  0  0  0  0  0  0  0  0  0  0  0
  -17.8057   14.2055  -21.3971 N   0  0  0  0  0  0  0  0  0  0  0  0
  -18.7230   14.4628  -20.4484 C   0  0  0  0  0  0  0  0  0  0  0  0
  -18.8816   13.4613  -19.5249 C   0  0  0  0  0  0  0  0  0  0  0  0
  -18.1280   12.2779  -19.5973 C   0  0  0  0  0  0  0  0  0  0  0  0
  -18.3063   11.3306  -18.6581 N   0  0  0  0  0  0  0  0  0  0  0  0
  -17.5823   10.1998  -18.6980 C   0  0  0  0  0  0  0  0  0  0  0  0
  -16.6724    9.9872  -19.6633 N   0  0  0  0  0  0  0  0  0  0  0  0
  -16.4468   10.9166  -20.6482 C   0  0  0  0  0  0  0  0  0  0  0  0
  -15.5828   10.6701  -21.5224 O   0  0  0  0  0  0  0  0  0  0  0  0
  -17.2007   12.0715  -20.5938 C   0  0  0  0  0  0  0  0  0  0  0  0
  -16.0943    9.1271  -19.7257 H   0  0  0  0  0  0  0  0  0  0  0  0
  -16.2003   12.9154  -22.6343 N   0  0  0  0  0  0  0  0  0  0  0  0
  -15.2028   12.6731  -22.4789 H   0  0  0  0  0  0  0  0  0  0  0  0
  -15.6408   15.6806  -28.0821 C   0  0  0  0  0  0  0  0  0  0  0  0
  -15.5883   15.1682  -26.6911 C   0  0  0  0  0  0  0  0  0  0  0  0
  -14.7687   15.6205  -25.6556 C   0  0  0  0  0  0  0  0  0  0  0  0
  -15.0318   14.8905  -24.5565 N   0  0  0  0  0  0  0  0  0  0  0  0
  -15.9907   13.9744  -24.8213 C   0  0  0  0  0  0  0  0  0  0  0  0
  -16.6026   12.9926  -24.0198 C   0  0  0  0  0  0  0  0  0  0  0  0
  -17.5398   12.2415  -24.6294 C   0  0  0  0  0  0  0  0  0  0  0  0
  -17.8990   12.4055  -25.9709 C   0  0  0  0  0  0  0  0  0  0  0  0
  -17.2903   13.3663  -26.7314 C   0  0  0  0  0  0  0  0  0  0  0  0
  -16.3388   14.1410  -26.1396 C   0  0  0  0  0  0  0  0  0  0  0  0
  -14.5790   14.9928  -23.6219 H   0  0  0  0  0  0  0  0  0  0  0  0
  -19.4313   15.6910  -20.4245 N   0  0  0  0  0  0  0  0  0  0  0  0
  -19.6907   15.9693  -19.3882 H   0  0  0  0  0  0  0  0  0  0  0  0
  -19.8332   16.5630  -21.4411 C   0  0  0  0  0  0  0  0  0  0  0  0
  -18.8516   17.6089  -21.9148 C   0  0  0  0  0  0  0  0  0  0  0  0
  -19.2280   17.9752  -23.3609 C   0  0  0  0  0  0  0  0  0  0  0  0
  -20.7277   18.1685  -23.4556 C   0  0  0  0  0  0  0  0  0  0  0  0
  -21.3510   18.4373  -22.0953 C   0  0  0  0  0  0  0  0  0  0  0  0
  -21.1599   17.2203  -21.2097 C   0  0  0  0  0  0  0  0  0  0  0  0
  -21.4031   17.6085  -19.8482 N   0  0  0  0  0  0  0  0  0  0  0  0
  -22.0360   18.4244  -19.7553 H   0  0  0  0  0  0  0  0  0  0  0  0
  -21.7707   16.8435  -19.2451 H   0  0  0  0  0  0  0  0  0  0  0  0
 15 16  1  0  0  0
 16 17  2  0  0  0
 17 18  1  0  0  0
 18 19  1  0  0  0
 19 20  2  0  0  0
 20 13  1  0  0  0
 13  1  1  0  0  0
  1  2  2  0  0  0
  2  3  1  0  0  0
  3 26  1  0  0  0
 26 28  1  0  0  0
 28 29  1  0  0  0
 29 30  1  0  0  0
 30 31  1  0  0  0
 31 32  1  0  0  0
 32 33  1  0  0  0
 33 34  1  0  0  0
  3  4  2  0  0  0
  4  5  1  0  0  0
  5  6  1  0  0  0
  6  7  2  0  0  0
  7  8  1  0  0  0
  8  9  1  0  0  0
  9 10  2  0  0  0
  9 11  1  0  0  0
 20 21  1  0  0  0
 21 22  2  0  0  0
 22 23  1  0  0  0
 23 24  2  0  0  0
 24 16  1  0  0  0
 24 19  1  0  0  0
 11  1  1  0  0  0
 33 28  1  0  0  0
 11  5  2  0  0  0
 18 25  1  0  0  0
 13 14  1  0  0  0
 26 27  1  0  0  0
 34 35  1  0  0  0
 34 36  1  0  0  0
  8 12  1  0  0  0
M  END
> <minimizedAffinity>
-9.47980

> <CNNscore>
0.6825486422

> <CNNaffinity>
7.7761764526

> <CNN_VS>
5.3076186180

> <CNNaffinity_variance>
0.3008407056

$$$$
[H]c1c([H])c(N([H])c2nc(N([H])[C@]3([H])C([H])([H])C([H])([H])C([H])([H])C([H])([H])[C@]3([H])N([H])[H])c([H])c3nc([H])n([H])c(=O)c23)c2c(c1[H])c(C([H])([H])[H])c([H])n2[H]


 36 40  0  0  0  0  0  0  0  0999 V2000
  -18.8367   12.4758  -19.7081 C   0  0  0  0  0  0  0  0  0  0  0  0
  -19.3253   12.0704  -18.5246 N   0  0  0  0  0  0  0  0  0  0  0  0
  -18.8931   11.0448  -17.7703 C   0  0  0  0  0  0  0  0  0  0  0  0
  -17.8312   10.3575  -18.3004 C   0  0  0  0  0  0  0  0  0  0  0  0
  -17.2677   10.7259  -19.5335 C   0  0  0  0  0  0  0  0  0  0  0  0
  -16.2154   10.0319  -20.0050 N   0  0  0  0  0  0  0  0  0  0  0  0
  -15.6498   10.3796  -21.1727 C   0  0  0  0  0  0  0  0  0  0  0  0
  -16.1128   11.4158  -21.8915 N   0  0  0  0  0  0  0  0  0  0  0  0
  -17.1832   12.1604  -21.4619 C   0  0  0  0  0  0  0  0  0  0  0  0
  -17.5718   13.1200  -22.1688 O   0  0  0  0  0  0  0  0  0  0  0  0
  -17.7540   11.7884  -20.2615 C   0  0  0  0  0  0  0  0  0  0  0  0
  -15.7011   11.7141  -22.7967 H   0  0  0  0  0  0  0  0  0  0  0  0
  -19.4539   13.5068  -20.4462 N   0  0  0  0  0  0  0  0  0  0  0  0
  -19.4855   13.4483  -21.4822 H   0  0  0  0  0  0  0  0  0  0  0  0
  -19.3456   18.0785  -16.3565 C   0  0  0  0  0  0  0  0  0  0  0  0
  -19.1370   16.9208  -17.2601 C   0  0  0  0  0  0  0  0  0  0  0  0
  -18.0214   16.0836  -17.3152 C   0  0  0  0  0  0  0  0  0  0  0  0
  -18.2313   15.1593  -18.2701 N   0  0  0  0  0  0  0  0  0  0  0  0
  -19.4385   15.3498  -18.8490 C   0  0  0  0  0  0  0  0  0  0  0  0
  -20.1087   14.6627  -19.8783 C   0  0  0  0  0  0  0  0  0  0  0  0
  -21.3247   15.1411  -20.2049 C   0  0  0  0  0  0  0  0  0  0  0  0
  -21.9056   16.2480  -19.5780 C   0  0  0  0  0  0  0  0  0  0  0  0
  -21.2354   16.9009  -18.5798 C   0  0  0  0  0  0  0  0  0  0  0  0
  -20.0034   16.4376  -18.2288 C   0  0  0  0  0  0  0  0  0  0  0  0
  -17.5773   14.3945  -18.5463 H   0  0  0  0  0  0  0  0  0  0  0  0
  -19.4967   10.7442  -16.5229 N   0  0  0  0  0  0  0  0  0  0  0  0
  -19.1355   11.4344  -15.7407 H   0  0  0  0  0  0  0  0  0  0  0  0
  -20.4252    9.7716  -16.1392 C   0  0  0  0  0  0  0  0  0  0  0  0
  -21.5141   10.1666  -15.1695 C   0  0  0  0  0  0  0  0  0  0  0  0
  -22.7026    9.2162  -15.3964 C   0  0  0  0  0  0  0  0  0  0  0  0
  -22.1933    7.7937  -15.5087 C   0  0  0  0  0  0  0  0  0  0  0  0
  -20.8101    7.6374  -14.8974 C   0  0  0  0  0  0  0  0  0  0  0  0
  -19.8205    8.4793  -15.6810 C   0  0  0  0  0  0  0  0  0  0  0  0
  -18.6278    8.6257  -14.8938 N   0  0  0  0  0  0  0  0  0  0  0  0
  -18.4785    7.8538  -14.2178 H   0  0  0  0  0  0  0  0  0  0  0  0
  -17.7574    8.7380  -15.4540 H   0  0  0  0  0  0  0  0  0  0  0  0
 15 16  1  0  0  0
 16 17  2  0  0  0
 17 18  1  0  0  0
 18 19  1  0  0  0
 19 20  2  0  0  0
 20 13  1  0  0  0
 13  1  1  0  0  0
  1  2  2  0  0  0
  2  3  1  0  0  0
  3 26  1  0  0  0
 26 28  1  0  0  0
 28 29  1  0  0  0
 29 30  1  0  0  0
 30 31  1  0  0  0
 31 32  1  0  0  0
 32 33  1  0  0  0
 33 34  1  0  0  0
  3  4  2  0  0  0
  4  5  1  0  0  0
  5  6  1  0  0  0
  6  7  2  0  0  0
  7  8  1  0  0  0
  8  9  1  0  0  0
  9 10  2  0  0  0
  9 11  1  0  0  0
 20 21  1  0  0  0
 21 22  2  0  0  0
 22 23  1  0  0  0
 23 24  2  0  0  0
 24 16  1  0  0  0
 24 19  1  0  0  0
 11  1  1  0  0  0
 33 28  1  0  0  0
 11  5  2  0  0  0
 18 25  1  0  0  0
 13 14  1  0  0  0
 26 27  1  0  0  0
 34 35  1  0  0  0
 34 36  1  0  0  0
  8 12  1  0  0  0
M  END
> <minimizedAffinity>
-8.45958

> <CNNscore>
0.6630269289

> <CNNaffinity>
7.1368308067

> <CNN_VS>
4.7319111824

> <CNNaffinity_variance>
0.1664781421

$$$$
[H]c1c([H])c(N([H])c2nc(N([H])[C@]3([H])C([H])([H])C([H])([H])C([H])([H])C([H])([H])[C@]3([H])N([H])[H])c([H])c3nc([H])n([H])c(=O)c23)c2c(c1[H])c(C([H])([H])[H])c([H])n2[H]


 36 40  0  0  0  0  0  0  0  0999 V2000
  -18.0584   13.0127  -20.6517 C   0  0  0  0  0  0  0  0  0  0  0  0
  -18.8974   14.0237  -20.3729 N   0  0  0  0  0  0  0  0  0  0  0  0
  -19.7364   14.1244  -19.3270 C   0  0  0  0  0  0  0  0  0  0  0  0
  -19.7046   13.0556  -18.4682 C   0  0  0  0  0  0  0  0  0  0  0  0
  -18.8509   11.9635  -18.6958 C   0  0  0  0  0  0  0  0  0  0  0  0
  -18.8423   10.9455  -17.8155 N   0  0  0  0  0  0  0  0  0  0  0  0
  -18.0198    9.9005  -18.0045 C   0  0  0  0  0  0  0  0  0  0  0  0
  -17.1941    9.8443  -19.0627 N   0  0  0  0  0  0  0  0  0  0  0  0
  -17.1587   10.8523  -19.9942 C   0  0  0  0  0  0  0  0  0  0  0  0
  -16.3661   10.7521  -20.9602 O   0  0  0  0  0  0  0  0  0  0  0  0
  -18.0118   11.9173  -19.7864 C   0  0  0  0  0  0  0  0  0  0  0  0
  -16.5445    9.0543  -19.2409 H   0  0  0  0  0  0  0  0  0  0  0  0
  -17.3057   12.9871  -21.8439 N   0  0  0  0  0  0  0  0  0  0  0  0
  -16.7049   12.1669  -22.0541 H   0  0  0  0  0  0  0  0  0  0  0  0
  -14.3467   15.8850  -26.3700 C   0  0  0  0  0  0  0  0  0  0  0  0
  -14.8564   15.0335  -25.2675 C   0  0  0  0  0  0  0  0  0  0  0  0
  -14.1973   13.9700  -24.6488 C   0  0  0  0  0  0  0  0  0  0  0  0
  -15.0052   13.4649  -23.6989 N   0  0  0  0  0  0  0  0  0  0  0  0
  -16.1710   14.1494  -23.6632 C   0  0  0  0  0  0  0  0  0  0  0  0
  -17.3198   14.0122  -22.8620 C   0  0  0  0  0  0  0  0  0  0  0  0
  -18.3122   14.8889  -23.1085 C   0  0  0  0  0  0  0  0  0  0  0  0
  -18.2317   15.8798  -24.0919 C   0  0  0  0  0  0  0  0  0  0  0  0
  -17.1050   15.9943  -24.8596 C   0  0  0  0  0  0  0  0  0  0  0  0
  -16.0852   15.1206  -24.6309 C   0  0  0  0  0  0  0  0  0  0  0  0
  -14.7915   12.6631  -23.0661 H   0  0  0  0  0  0  0  0  0  0  0  0
  -20.5544   15.2688  -19.1485 N   0  0  0  0  0  0  0  0  0  0  0  0
  -20.7751   15.4249  -18.0781 H   0  0  0  0  0  0  0  0  0  0  0  0
  -21.0981   16.1850  -20.0542 C   0  0  0  0  0  0  0  0  0  0  0  0
  -20.1963   17.2630  -20.6080 C   0  0  0  0  0  0  0  0  0  0  0  0
  -20.7731   17.6954  -21.9673 C   0  0  0  0  0  0  0  0  0  0  0  0
  -22.2719   17.8771  -21.8415 C   0  0  0  0  0  0  0  0  0  0  0  0
  -22.6994   18.0728  -20.3958 C   0  0  0  0  0  0  0  0  0  0  0  0
  -22.3816   16.8162  -19.6073 C   0  0  0  0  0  0  0  0  0  0  0  0
  -22.4329   17.1351  -18.2075 N   0  0  0  0  0  0  0  0  0  0  0  0
  -23.0495   17.9387  -17.9866 H   0  0  0  0  0  0  0  0  0  0  0  0
  -22.7096   16.3378  -17.5976 H   0  0  0  0  0  0  0  0  0  0  0  0
 15 16  1  0  0  0
 16 17  2  0  0  0
 17 18  1  0  0  0
 18 19  1  0  0  0
 19 20  2  0  0  0
 20 13  1  0  0  0
 13  1  1  0  0  0
  1  2  2  0  0  0
  2  3  1  0  0  0
  3 26  1  0  0  0
 26 28  1  0  0  0
 28 29  1  0  0  0
 29 30  1  0  0  0
 30 31  1  0  0  0
 31 32  1  0  0  0
 32 33  1  0  0  0
 33 34  1  0  0  0
  3  4  2  0  0  0
  4  5  1  0  0  0
  5  6  1  0  0  0
  6  7  2  0  0  0
  7  8  1  0  0  0
  8  9  1  0  0  0
  9 10  2  0  0  0
  9 11  1  0  0  0
 20 21  1  0  0  0
 21 22  2  0  0  0
 22 23  1  0  0  0
 23 24  2  0  0  0
 24 16  1  0  0  0
 24 19  1  0  0  0
 11  1  1  0  0  0
 33 28  1  0  0  0
 11  5  2  0  0  0
 18 25  1  0  0  0
 13 14  1  0  0  0
 26 27  1  0  0  0
 34 35  1  0  0  0
 34 36  1  0  0  0
  8 12  1  0  0  0
M  END
> <minimizedAffinity>
-8.71084

> <CNNscore>
0.6117718220

> <CNNaffinity>
7.4113912582

> <CNN_VS>
4.5340805054

> <CNNaffinity_variance>
0.2890484631

$$$$
[H]c1c([H])c(N([H])c2nc(N([H])[C@]3([H])C([H])([H])C([H])([H])C([H])([H])C([H])([H])[C@]3([H])N([H])[H])c([H])c3nc([H])n([H])c(=O)c23)c2c(c1[H])c(C([H])([H])[H])c([H])n2[H]


 36 40  0  0  0  0  0  0  0  0999 V2000
  -18.0082   12.7332  -19.2099 C   0  0  0  0  0  0  0  0  0  0  0  0
  -18.7701   13.8054  -18.9386 N   0  0  0  0  0  0  0  0  0  0  0  0
  -19.8028   13.8779  -18.0807 C   0  0  0  0  0  0  0  0  0  0  0  0
  -20.0809   12.7054  -17.4259 C   0  0  0  0  0  0  0  0  0  0  0  0
  -19.3250   11.5443  -17.6586 C   0  0  0  0  0  0  0  0  0  0  0  0
  -19.6246   10.4218  -16.9791 N   0  0  0  0  0  0  0  0  0  0  0  0
  -18.9023    9.3060  -17.1728 C   0  0  0  0  0  0  0  0  0  0  0  0
  -17.8747    9.2808  -18.0378 N   0  0  0  0  0  0  0  0  0  0  0  0
  -17.5224   10.3943  -18.7594 C   0  0  0  0  0  0  0  0  0  0  0  0
  -16.5521   10.3178  -19.5495 O   0  0  0  0  0  0  0  0  0  0  0  0
  -18.2762   11.5315  -18.5504 C   0  0  0  0  0  0  0  0  0  0  0  0
  -17.2940    8.4382  -18.2127 H   0  0  0  0  0  0  0  0  0  0  0  0
  -17.0182   12.7674  -20.2137 N   0  0  0  0  0  0  0  0  0  0  0  0
  -16.0896   12.3396  -20.0336 H   0  0  0  0  0  0  0  0  0  0  0  0
  -17.5428   17.7597  -23.7407 C   0  0  0  0  0  0  0  0  0  0  0  0
  -17.3765   16.7181  -22.6977 C   0  0  0  0  0  0  0  0  0  0  0  0
  -17.1600   16.9173  -21.3332 C   0  0  0  0  0  0  0  0  0  0  0  0
  -17.0648   15.7141  -20.7387 N   0  0  0  0  0  0  0  0  0  0  0  0
  -17.2090   14.7276  -21.6523 C   0  0  0  0  0  0  0  0  0  0  0  0
  -17.1891   13.3252  -21.5355 C   0  0  0  0  0  0  0  0  0  0  0  0
  -17.3710   12.6408  -22.6813 C   0  0  0  0  0  0  0  0  0  0  0  0
  -17.5677   13.2597  -23.9197 C   0  0  0  0  0  0  0  0  0  0  0  0
  -17.5828   14.6248  -24.0096 C   0  0  0  0  0  0  0  0  0  0  0  0
  -17.4020   15.3420  -22.8656 C   0  0  0  0  0  0  0  0  0  0  0  0
  -16.9039   15.5360  -19.7231 H   0  0  0  0  0  0  0  0  0  0  0  0
  -20.5073   15.0919  -17.8794 N   0  0  0  0  0  0  0  0  0  0  0  0
  -21.2338   15.2586  -18.6937 H   0  0  0  0  0  0  0  0  0  0  0  0
  -20.4398   16.0610  -16.8736 C   0  0  0  0  0  0  0  0  0  0  0  0
  -21.4866   17.1501  -16.8595 C   0  0  0  0  0  0  0  0  0  0  0  0
  -21.6049   17.6592  -15.4124 C   0  0  0  0  0  0  0  0  0  0  0  0
  -20.2182   17.8595  -14.8359 C   0  0  0  0  0  0  0  0  0  0  0  0
  -19.1655   17.9900  -15.9250 C   0  0  0  0  0  0  0  0  0  0  0  0
  -19.0905   16.6905  -16.7045 C   0  0  0  0  0  0  0  0  0  0  0  0
  -18.3911   16.9400  -17.9342 N   0  0  0  0  0  0  0  0  0  0  0  0
  -17.7358   17.7419  -17.8844 H   0  0  0  0  0  0  0  0  0  0  0  0
  -17.8692   16.1181  -18.3032 H   0  0  0  0  0  0  0  0  0  0  0  0
 15 16  1  0  0  0
 16 17  2  0  0  0
 17 18  1  0  0  0
 18 19  1  0  0  0
 19 20  2  0  0  0
 20 13  1  0  0  0
 13  1  1  0  0  0
  1  2  2  0  0  0
  2  3  1  0  0  0
  3 26  1  0  0  0
 26 28  1  0  0  0
 28 29  1  0  0  0
 29 30  1  0  0  0
 30 31  1  0  0  0
 31 32  1  0  0  0
 32 33  1  0  0  0
 33 34  1  0  0  0
  3  4  2  0  0  0
  4  5  1  0  0  0
  5  6  1  0  0  0
  6  7  2  0  0  0
  7  8  1  0  0  0
  8  9  1  0  0  0
  9 10  2  0  0  0
  9 11  1  0  0  0
 20 21  1  0  0  0
 21 22  2  0  0  0
 22 23  1  0  0  0
 23 24  2  0  0  0
 24 16  1  0  0  0
 24 19  1  0  0  0
 11  1  1  0  0  0
 33 28  1  0  0  0
 11  5  2  0  0  0
 18 25  1  0  0  0
 13 14  1  0  0  0
 26 27  1  0  0  0
 34 35  1  0  0  0
 34 36  1  0  0  0
  8 12  1  0  0  0
M  END
> <minimizedAffinity>
-8.41519

> <CNNscore>
0.5131843090

> <CNNaffinity>
7.1150574684

> <CNN_VS>
3.6513359547

> <CNNaffinity_variance>
0.1805258393

$$$$
[H]c1c([H])c(N([H])c2nc(N([H])[C@]3([H])C([H])([H])C([H])([H])C([H])([H])C([H])([H])[C@]3([H])N([H])[H])c([H])c3nc([H])n([H])c(=O)c23)c2c(c1[H])c(C([H])([H])[H])c([H])n2[H]


 36 40  0  0  0  0  0  0  0  0999 V2000
  -17.8751   12.7851  -19.6134 C   0  0  0  0  0  0  0  0  0  0  0  0
  -18.5907   13.9019  -19.4027 N   0  0  0  0  0  0  0  0  0  0  0  0
  -19.5923   14.0768  -18.5229 C   0  0  0  0  0  0  0  0  0  0  0  0
  -19.8892   12.9680  -17.7723 C   0  0  0  0  0  0  0  0  0  0  0  0
  -19.1815   11.7657  -17.9375 C   0  0  0  0  0  0  0  0  0  0  0  0
  -19.4974   10.7096  -17.1656 N   0  0  0  0  0  0  0  0  0  0  0  0
  -18.8204    9.5565  -17.2943 C   0  0  0  0  0  0  0  0  0  0  0  0
  -17.8226    9.4285  -18.1847 N   0  0  0  0  0  0  0  0  0  0  0  0
  -17.4556   10.4707  -18.9996 C   0  0  0  0  0  0  0  0  0  0  0  0
  -16.5144   10.2992  -19.8096 O   0  0  0  0  0  0  0  0  0  0  0  0
  -18.1628   11.6472  -18.8561 C   0  0  0  0  0  0  0  0  0  0  0  0
  -17.2770    8.5544  -18.3115 H   0  0  0  0  0  0  0  0  0  0  0  0
  -16.9173   12.7070  -20.6455 N   0  0  0  0  0  0  0  0  0  0  0  0
  -16.0403   12.1731  -20.4926 H   0  0  0  0  0  0  0  0  0  0  0  0
  -17.0723   17.7486  -24.1379 C   0  0  0  0  0  0  0  0  0  0  0  0
  -16.9788   16.6901  -23.1030 C   0  0  0  0  0  0  0  0  0  0  0  0
  -16.7267   16.8615  -21.7409 C   0  0  0  0  0  0  0  0  0  0  0  0
  -16.7242   15.6507  -21.1541 N   0  0  0  0  0  0  0  0  0  0  0  0
  -16.9638   14.6857  -22.0707 C   0  0  0  0  0  0  0  0  0  0  0  0
  -17.0598   13.2858  -21.9617 C   0  0  0  0  0  0  0  0  0  0  0  0
  -17.3150   12.6266  -23.1082 C   0  0  0  0  0  0  0  0  0  0  0  0
  -17.4770   13.2678  -24.3403 C   0  0  0  0  0  0  0  0  0  0  0  0
  -17.3789   14.6300  -24.4227 C   0  0  0  0  0  0  0  0  0  0  0  0
  -17.1221   15.3220  -23.2778 C   0  0  0  0  0  0  0  0  0  0  0  0
  -16.5641   15.4531  -20.1421 H   0  0  0  0  0  0  0  0  0  0  0  0
  -20.2479   15.3275  -18.3946 N   0  0  0  0  0  0  0  0  0  0  0  0
  -21.2366   15.2005  -17.9201 H   0  0  0  0  0  0  0  0  0  0  0  0
  -19.8701   16.6264  -18.7488 C   0  0  0  0  0  0  0  0  0  0  0  0
  -20.2767   17.7618  -17.8391 C   0  0  0  0  0  0  0  0  0  0  0  0
  -19.2696   18.9059  -18.0488 C   0  0  0  0  0  0  0  0  0  0  0  0
  -19.0329   19.1003  -19.5326 C   0  0  0  0  0  0  0  0  0  0  0  0
  -20.1567   18.5082  -20.3678 C   0  0  0  0  0  0  0  0  0  0  0  0
  -20.1924   17.0054  -20.1623 C   0  0  0  0  0  0  0  0  0  0  0  0
  -21.4555   16.5134  -20.6378 N   0  0  0  0  0  0  0  0  0  0  0  0
  -21.8858   17.1103  -21.3683 H   0  0  0  0  0  0  0  0  0  0  0  0
  -21.4261   15.5357  -20.9948 H   0  0  0  0  0  0  0  0  0  0  0  0
 15 16  1  0  0  0
 16 17  2  0  0  0
 17 18  1  0  0  0
 18 19  1  0  0  0
 19 20  2  0  0  0
 20 13  1  0  0  0
 13  1  1  0  0  0
  1  2  2  0  0  0
  2  3  1  0  0  0
  3 26  1  0  0  0
 26 28  1  0  0  0
 28 29  1  0  0  0
 29 30  1  0  0  0
 30 31  1  0  0  0
 31 32  1  0  0  0
 32 33  1  0  0  0
 33 34  1  0  0  0
  3  4  2  0  0  0
  4  5  1  0  0  0
  5  6  1  0  0  0
  6  7  2  0  0  0
  7  8  1  0  0  0
  8  9  1  0  0  0
  9 10  2  0  0  0
  9 11  1  0  0  0
 20 21  1  0  0  0
 21 22  2  0  0  0
 22 23  1  0  0  0
 23 24  2  0  0  0
 24 16  1  0  0  0
 24 19  1  0  0  0
 11  1  1  0  0  0
 33 28  1  0  0  0
 11  5  2  0  0  0
 18 25  1  0  0  0
 13 14  1  0  0  0
 26 27  1  0  0  0
 34 35  1  0  0  0
 34 36  1  0  0  0
  8 12  1  0  0  0
M  END
> <minimizedAffinity>
-8.24754

> <CNNscore>
0.4736022651

> <CNNaffinity>
7.1673479080

> <CNN_VS>
3.3944721222

> <CNNaffinity_variance>
0.3049395680

$$$$
[H]c1nc([H])c(-c2nc(N([H])c3c([H])c(N([H])C(=O)c4c([H])c([H])c(C([H])([H])N5C([H])([H])C([H])([H])N(C([H])([H])[H])C([H])([H])C5([H])[H])c(C(F)(F)F)c4[H])c([H])c([H])c3C([H])([H])[H])nc([H])c2[H])c([H])n1


 43 47  0  0  0  0  0  0  0  0999 V2000
  -20.1376   13.7688  -17.5477 C   0  0  0  0  0  0  0  0  0  0  0  0
  -19.1215   14.4056  -17.2080 O   0  0  0  0  0  0  0  0  0  0  0  0
  -20.9747   14.2668  -18.5684 N   0  0  0  0  0  0  0  0  0  0  0  0
  -21.8510   13.7130  -18.8549 H   0  0  0  0  0  0  0  0  0  0  0  0
  -20.7423   15.4694  -19.2729 C   0  0  0  0  0  0  0  0  0  0  0  0
  -21.2055   16.7117  -18.9259 C   0  0  0  0  0  0  0  0  0  0  0  0
  -20.9473   17.8475  -19.7060 C   0  0  0  0  0  0  0  0  0  0  0  0
  -20.2045   17.6874  -20.8486 C   0  0  0  0  0  0  0  0  0  0  0  0
  -19.9226   18.8665  -21.6811 C   0  0  0  0  0  0  0  0  0  0  0  0
  -19.6984   16.4456  -21.2632 C   0  0  0  0  0  0  0  0  0  0  0  0
  -19.9867   15.3940  -20.4629 C   0  0  0  0  0  0  0  0  0  0  0  0
  -18.9555   16.4068  -22.4367 N   0  0  0  0  0  0  0  0  0  0  0  0
  -18.7854   17.3573  -22.9672 H   0  0  0  0  0  0  0  0  0  0  0  0
  -18.3802   15.2839  -23.0450 C   0  0  0  0  0  0  0  0  0  0  0  0
  -18.2832   15.0874  -24.3376 N   0  0  0  0  0  0  0  0  0  0  0  0
  -17.7461   14.0374  -24.9683 C   0  0  0  0  0  0  0  0  0  0  0  0
  -17.2295   13.0358  -24.1405 C   0  0  0  0  0  0  0  0  0  0  0  0
  -17.2979   13.1768  -22.7734 C   0  0  0  0  0  0  0  0  0  0  0  0
  -17.8577   14.2703  -22.2671 N   0  0  0  0  0  0  0  0  0  0  0  0
  -16.7559   12.1231  -21.8849 C   0  0  0  0  0  0  0  0  0  0  0  0
  -15.7741   11.2586  -22.2302 C   0  0  0  0  0  0  0  0  0  0  0  0
  -15.3707   10.3393  -21.3190 N   0  0  0  0  0  0  0  0  0  0  0  0
  -15.8908   10.2345  -20.0850 C   0  0  0  0  0  0  0  0  0  0  0  0
  -16.8674   11.0864  -19.7268 N   0  0  0  0  0  0  0  0  0  0  0  0
  -17.2919   12.0126  -20.6089 C   0  0  0  0  0  0  0  0  0  0  0  0
  -20.9610    9.9683  -15.6397 C   0  0  0  0  0  0  0  0  0  0  0  0
  -21.7015   11.0942  -15.3709 C   0  0  0  0  0  0  0  0  0  0  0  0
  -21.4679   12.3394  -15.9661 C   0  0  0  0  0  0  0  0  0  0  0  0
  -20.4556   12.4863  -16.8692 C   0  0  0  0  0  0  0  0  0  0  0  0
  -19.7000   11.3705  -17.1523 C   0  0  0  0  0  0  0  0  0  0  0  0
  -19.9229   10.1317  -16.5691 C   0  0  0  0  0  0  0  0  0  0  0  0
  -19.0703    8.9781  -16.9296 C   0  0  0  0  0  0  0  0  0  0  0  0
  -19.7675    7.8357  -17.2230 F   0  0  0  0  0  0  0  0  0  0  0  0
  -18.1076    8.7378  -15.9668 F   0  0  0  0  0  0  0  0  0  0  0  0
  -18.3584    9.3131  -18.0905 F   0  0  0  0  0  0  0  0  0  0  0  0
  -21.1558    8.6601  -14.9791 C   0  0  0  0  0  0  0  0  0  0  0  0
  -20.7185    5.6297  -11.5496 C   0  0  0  0  0  0  0  0  0  0  0  0
  -21.0373    5.9575  -12.9033 N   0  0  0  0  0  0  0  0  0  0  0  0
  -19.9092    6.4504  -13.6411 C   0  0  0  0  0  0  0  0  0  0  0  0
  -19.6353    7.8794  -13.3138 C   0  0  0  0  0  0  0  0  0  0  0  0
  -20.8106    8.7507  -13.5665 N   0  0  0  0  0  0  0  0  0  0  0  0
  -21.9107    8.2104  -12.7513 C   0  0  0  0  0  0  0  0  0  0  0  0
  -22.2035    6.7689  -13.0203 C   0  0  0  0  0  0  0  0  0  0  0  0
 37 38  1  0  0  0
 38 39  1  0  0  0
 39 40  1  0  0  0
 40 41  1  0  0  0
 41 36  1  0  0  0
 36 26  1  0  0  0
 26 27  2  0  0  0
 27 28  1  0  0  0
 28 29  2  0  0  0
 29 30  1  0  0  0
 30 31  2  0  0  0
 31 32  1  0  0  0
 32 33  1  0  0  0
 32 34  1  0  0  0
 32 35  1  0  0  0
 29  1  1  0  0  0
  1  2  2  0  0  0
  1  3  1  0  0  0
  3  5  1  0  0  0
  5  6  2  0  0  0
  6  7  1  0  0  0
  7  8  2  0  0  0
  8  9  1  0  0  0
  8 10  1  0  0  0
 10 12  1  0  0  0
 12 14  1  0  0  0
 14 15  2  0  0  0
 15 16  1  0  0  0
 16 17  2  0  0  0
 17 18  1  0  0  0
 18 19  2  0  0  0
 18 20  1  0  0  0
 20 21  2  0  0  0
 21 22  1  0  0  0
 22 23  2  0  0  0
 23 24  1  0  0  0
 24 25  2  0  0  0
 10 11  2  0  0  0
 41 42  1  0  0  0
 42 43  1  0  0  0
 43 38  1  0  0  0
 31 26  1  0  0  0
 11  5  1  0  0  0
 19 14  1  0  0  0
 25 20  1  0  0  0
  3  4  1  0  0  0
 12 13  1  0  0  0
M  END
> <minimizedAffinity>
-8.59941

> <CNNscore>
0.4784767628

> <CNNaffinity>
7.5194234848

> <CNN_VS>
3.5978693962

> <CNNaffinity_variance>
0.1222142205

$$$$
[H]c1nc([H])c(-c2nc(N([H])c3c([H])c(N([H])C(=O)c4c([H])c([H])c(C([H])([H])N5C([H])([H])C([H])([H])N(C([H])([H])[H])C([H])([H])C5([H])[H])c(C(F)(F)F)c4[H])c([H])c([H])c3C([H])([H])[H])nc([H])c2[H])c([H])n1


 43 47  0  0  0  0  0  0  0  0999 V2000
  -19.7316   14.8422  -18.1918 C   0  0  0  0  0  0  0  0  0  0  0  0
  -18.4937   14.8122  -18.3337 O   0  0  0  0  0  0  0  0  0  0  0  0
  -20.5111   15.7201  -18.9744 N   0  0  0  0  0  0  0  0  0  0  0  0
  -21.5786   15.7420  -18.8450 H   0  0  0  0  0  0  0  0  0  0  0  0
  -19.9859   16.5949  -19.9518 C   0  0  0  0  0  0  0  0  0  0  0  0
  -19.7838   17.9424  -19.8053 C   0  0  0  0  0  0  0  0  0  0  0  0
  -19.2832   18.7379  -20.8454 C   0  0  0  0  0  0  0  0  0  0  0  0
  -18.9924   18.1270  -22.0391 C   0  0  0  0  0  0  0  0  0  0  0  0
  -18.4664   18.9439  -23.1431 C   0  0  0  0  0  0  0  0  0  0  0  0
  -19.1740   16.7525  -22.2583 C   0  0  0  0  0  0  0  0  0  0  0  0
  -19.6606   16.0474  -21.2116 C   0  0  0  0  0  0  0  0  0  0  0  0
  -18.8403   16.2451  -23.5079 N   0  0  0  0  0  0  0  0  0  0  0  0
  -19.2130   16.7816  -24.3951 H   0  0  0  0  0  0  0  0  0  0  0  0
  -18.0696   15.1098  -23.7892 C   0  0  0  0  0  0  0  0  0  0  0  0
  -17.5408   14.8212  -24.9536 N   0  0  0  0  0  0  0  0  0  0  0  0
  -16.8002   13.7550  -25.2751 C   0  0  0  0  0  0  0  0  0  0  0  0
  -16.5687   12.8461  -24.2378 C   0  0  0  0  0  0  0  0  0  0  0  0
  -17.0944   13.0865  -22.9890 C   0  0  0  0  0  0  0  0  0  0  0  0
  -17.8156   14.1856  -22.7958 N   0  0  0  0  0  0  0  0  0  0  0  0
  -16.8582   12.1317  -21.8818 C   0  0  0  0  0  0  0  0  0  0  0  0
  -17.5635   12.1059  -20.7274 C   0  0  0  0  0  0  0  0  0  0  0  0
  -17.2425   11.1775  -19.7930 N   0  0  0  0  0  0  0  0  0  0  0  0
  -16.2593   10.2751  -19.9455 C   0  0  0  0  0  0  0  0  0  0  0  0
  -15.5492   10.2879  -21.0872 N   0  0  0  0  0  0  0  0  0  0  0  0
  -15.8425   11.1980  -22.0369 C   0  0  0  0  0  0  0  0  0  0  0  0
  -21.5301   12.1278  -15.3354 C   0  0  0  0  0  0  0  0  0  0  0  0
  -21.8557   13.4621  -15.3774 C   0  0  0  0  0  0  0  0  0  0  0  0
  -21.2980   14.3708  -16.2844 C   0  0  0  0  0  0  0  0  0  0  0  0
  -20.3735   13.9480  -17.1945 C   0  0  0  0  0  0  0  0  0  0  0  0
  -20.0316   12.6144  -17.1690 C   0  0  0  0  0  0  0  0  0  0  0  0
  -20.5782   11.7049  -16.2753 C   0  0  0  0  0  0  0  0  0  0  0  0
  -20.1632   10.2859  -16.3143 C   0  0  0  0  0  0  0  0  0  0  0  0
  -21.2057    9.3977  -16.3526 F   0  0  0  0  0  0  0  0  0  0  0  0
  -19.2918    9.9833  -15.2844 F   0  0  0  0  0  0  0  0  0  0  0  0
  -19.4301   10.0824  -17.4923 F   0  0  0  0  0  0  0  0  0  0  0  0
  -22.0650   11.1656  -14.3485 C   0  0  0  0  0  0  0  0  0  0  0  0
  -25.4231    8.5564  -12.6017 C   0  0  0  0  0  0  0  0  0  0  0  0
  -24.0479    8.7954  -12.9074 N   0  0  0  0  0  0  0  0  0  0  0  0
  -23.5048    9.9214  -12.2024 C   0  0  0  0  0  0  0  0  0  0  0  0
  -23.9149   11.2050  -12.8416 C   0  0  0  0  0  0  0  0  0  0  0  0
  -23.5157   11.2760  -14.2698 N   0  0  0  0  0  0  0  0  0  0  0  0
  -24.1381   10.1186  -14.9328 C   0  0  0  0  0  0  0  0  0  0  0  0
  -23.7823    8.8075  -14.3078 C   0  0  0  0  0  0  0  0  0  0  0  0
 37 38  1  0  0  0
 38 39  1  0  0  0
 39 40  1  0  0  0
 40 41  1  0  0  0
 41 36  1  0  0  0
 36 26  1  0  0  0
 26 27  2  0  0  0
 27 28  1  0  0  0
 28 29  2  0  0  0
 29 30  1  0  0  0
 30 31  2  0  0  0
 31 32  1  0  0  0
 32 33  1  0  0  0
 32 34  1  0  0  0
 32 35  1  0  0  0
 29  1  1  0  0  0
  1  2  2  0  0  0
  1  3  1  0  0  0
  3  5  1  0  0  0
  5  6  2  0  0  0
  6  7  1  0  0  0
  7  8  2  0  0  0
  8  9  1  0  0  0
  8 10  1  0  0  0
 10 12  1  0  0  0
 12 14  1  0  0  0
 14 15  2  0  0  0
 15 16  1  0  0  0
 16 17  2  0  0  0
 17 18  1  0  0  0
 18 19  2  0  0  0
 18 20  1  0  0  0
 20 21  2  0  0  0
 21 22  1  0  0  0
 22 23  2  0  0  0
 23 24  1  0  0  0
 24 25  2  0  0  0
 10 11  2  0  0  0
 41 42  1  0  0  0
 42 43  1  0  0  0
 43 38  1  0  0  0
 31 26  1  0  0  0
 11  5  1  0  0  0
 19 14  1  0  0  0
 25 20  1  0  0  0
  3  4  1  0  0  0
 12 13  1  0  0  0
M  END
> <minimizedAffinity>
-8.15595

> <CNNscore>
0.2492661476

> <CNNaffinity>
7.2538185120

> <CNN_VS>
1.8081313372

> <CNNaffinity_variance>
0.1094194278

$$$$
[H]c1nc([H])c(-c2nc(N([H])c3c([H])c(N([H])C(=O)c4c([H])c([H])c(C([H])([H])N5C([H])([H])C([H])([H])N(C([H])([H])[H])C([H])([H])C5([H])[H])c(C(F)(F)F)c4[H])c([H])c([H])c3C([H])([H])[H])nc([H])c2[H])c([H])n1


 43 47  0  0  0  0  0  0  0  0999 V2000
  -19.3866   14.2875  -18.5545 C   0  0  0  0  0  0  0  0  0  0  0  0
  -18.3108   14.8909  -18.3759 O   0  0  0  0  0  0  0  0  0  0  0  0
  -20.3023   14.7484  -19.5240 N   0  0  0  0  0  0  0  0  0  0  0  0
  -21.2296   14.2239  -19.6712 H   0  0  0  0  0  0  0  0  0  0  0  0
  -20.0883   15.8751  -20.3494 C   0  0  0  0  0  0  0  0  0  0  0  0
  -20.5867   17.1348  -20.1424 C   0  0  0  0  0  0  0  0  0  0  0  0
  -20.3442   18.1877  -21.0356 C   0  0  0  0  0  0  0  0  0  0  0  0
  -19.5803   17.9266  -22.1451 C   0  0  0  0  0  0  0  0  0  0  0  0
  -19.3143   19.0177  -23.0947 C   0  0  0  0  0  0  0  0  0  0  0  0
  -19.0379   16.6612  -22.4188 C   0  0  0  0  0  0  0  0  0  0  0  0
  -19.3128   15.6934  -21.5149 C   0  0  0  0  0  0  0  0  0  0  0  0
  -18.2763   16.5174  -23.5720 N   0  0  0  0  0  0  0  0  0  0  0  0
  -18.3556   17.3035  -24.3398 H   0  0  0  0  0  0  0  0  0  0  0  0
  -17.3976   15.4737  -23.8889 C   0  0  0  0  0  0  0  0  0  0  0  0
  -16.6246   15.4275  -24.9468 N   0  0  0  0  0  0  0  0  0  0  0  0
  -15.7712   14.4587  -25.2958 C   0  0  0  0  0  0  0  0  0  0  0  0
  -15.7036   13.3700  -24.4208 C   0  0  0  0  0  0  0  0  0  0  0  0
  -16.4878   13.3526  -23.2902 C   0  0  0  0  0  0  0  0  0  0  0  0
  -17.2980   14.3789  -23.0540 N   0  0  0  0  0  0  0  0  0  0  0  0
  -16.4272   12.2053  -22.3556 C   0  0  0  0  0  0  0  0  0  0  0  0
  -17.4134   11.8645  -21.4942 C   0  0  0  0  0  0  0  0  0  0  0  0
  -17.2282   10.7883  -20.6908 N   0  0  0  0  0  0  0  0  0  0  0  0
  -16.1165   10.0344  -20.6987 C   0  0  0  0  0  0  0  0  0  0  0  0
  -15.1274   10.3602  -21.5491 N   0  0  0  0  0  0  0  0  0  0  0  0
  -15.2793   11.4245  -22.3617 C   0  0  0  0  0  0  0  0  0  0  0  0
  -20.3569   10.8574  -16.0939 C   0  0  0  0  0  0  0  0  0  0  0  0
  -19.5295   10.7597  -17.1867 C   0  0  0  0  0  0  0  0  0  0  0  0
  -19.1915   11.8431  -18.0059 C   0  0  0  0  0  0  0  0  0  0  0  0
  -19.6922   13.0841  -17.7393 C   0  0  0  0  0  0  0  0  0  0  0  0
  -20.5248   13.2043  -16.6491 C   0  0  0  0  0  0  0  0  0  0  0  0
  -20.8659   12.1378  -15.8301 C   0  0  0  0  0  0  0  0  0  0  0  0
  -21.7629   12.3486  -14.6731 C   0  0  0  0  0  0  0  0  0  0  0  0
  -21.1746   12.1156  -13.4578 F   0  0  0  0  0  0  0  0  0  0  0  0
  -22.9359   11.6281  -14.8022 F   0  0  0  0  0  0  0  0  0  0  0  0
  -22.1534   13.6954  -14.6689 F   0  0  0  0  0  0  0  0  0  0  0  0
  -20.7707    9.7150  -15.2516 C   0  0  0  0  0  0  0  0  0  0  0  0
  -19.8774    6.7602  -11.8447 C   0  0  0  0  0  0  0  0  0  0  0  0
  -20.7445    7.6720  -12.5218 N   0  0  0  0  0  0  0  0  0  0  0  0
  -21.0929    7.2366  -13.8442 C   0  0  0  0  0  0  0  0  0  0  0  0
  -19.9867    7.5052  -14.8078 C   0  0  0  0  0  0  0  0  0  0  0  0
  -19.6065    8.9399  -14.8434 N   0  0  0  0  0  0  0  0  0  0  0  0
  -19.2261    9.3028  -13.4685 C   0  0  0  0  0  0  0  0  0  0  0  0
  -20.2924    9.0224  -12.4583 C   0  0  0  0  0  0  0  0  0  0  0  0
 37 38  1  0  0  0
 38 39  1  0  0  0
 39 40  1  0  0  0
 40 41  1  0  0  0
 41 36  1  0  0  0
 36 26  1  0  0  0
 26 27  2  0  0  0
 27 28  1  0  0  0
 28 29  2  0  0  0
 29 30  1  0  0  0
 30 31  2  0  0  0
 31 32  1  0  0  0
 32 33  1  0  0  0
 32 34  1  0  0  0
 32 35  1  0  0  0
 29  1  1  0  0  0
  1  2  2  0  0  0
  1  3  1  0  0  0
  3  5  1  0  0  0
  5  6  2  0  0  0
  6  7  1  0  0  0
  7  8  2  0  0  0
  8  9  1  0  0  0
  8 10  1  0  0  0
 10 12  1  0  0  0
 12 14  1  0  0  0
 14 15  2  0  0  0
 15 16  1  0  0  0
 16 17  2  0  0  0
 17 18  1  0  0  0
 18 19  2  0  0  0
 18 20  1  0  0  0
 20 21  2  0  0  0
 21 22  1  0  0  0
 22 23  2  0  0  0
 23 24  1  0  0  0
 24 25  2  0  0  0
 10 11  2  0  0  0
 41 42  1  0  0  0
 42 43  1  0  0  0
 43 38  1  0  0  0
 31 26  1  0  0  0
 11  5  1  0  0  0
 19 14  1  0  0  0
 25 20  1  0  0  0
  3  4  1  0  0  0
 12 13  1  0  0  0
M  END
> <minimizedAffinity>
-8.40591

> <CNNscore>
0.2110689580

> <CNNaffinity>
7.3114356995

> <CNN_VS>
1.5432170630

> <CNNaffinity_variance>
0.1703867018

$$$$
[H]c1nc([H])c(-c2nc(N([H])c3c([H])c(N([H])C(=O)c4c([H])c([H])c(C([H])([H])N5C([H])([H])C([H])([H])N(C([H])([H])[H])C([H])([H])C5([H])[H])c(C(F)(F)F)c4[H])c([H])c([H])c3C([H])([H])[H])nc([H])c2[H])c([H])n1


 43 47  0  0  0  0  0  0  0  0999 V2000
  -20.0788   12.1234  -17.4267 C   0  0  0  0  0  0  0  0  0  0  0  0
  -20.8207   13.0163  -16.9730 O   0  0  0  0  0  0  0  0  0  0  0  0
  -19.9764   10.8840  -16.7602 N   0  0  0  0  0  0  0  0  0  0  0  0
  -19.3328   10.1189  -17.1564 H   0  0  0  0  0  0  0  0  0  0  0  0
  -20.6807   10.5536  -15.5807 C   0  0  0  0  0  0  0  0  0  0  0  0
  -21.9043    9.9398  -15.5151 C   0  0  0  0  0  0  0  0  0  0  0  0
  -22.5415    9.6776  -14.2943 C   0  0  0  0  0  0  0  0  0  0  0  0
  -21.9015   10.0552  -13.1408 C   0  0  0  0  0  0  0  0  0  0  0  0
  -22.5533    9.7894  -11.8496 C   0  0  0  0  0  0  0  0  0  0  0  0
  -20.6479   10.6868  -13.1342 C   0  0  0  0  0  0  0  0  0  0  0  0
  -20.0926   10.9086  -14.3474 C   0  0  0  0  0  0  0  0  0  0  0  0
  -20.0954   11.0192  -11.9035 N   0  0  0  0  0  0  0  0  0  0  0  0
  -20.4353   11.9511  -11.4241 H   0  0  0  0  0  0  0  0  0  0  0  0
  -19.1377   10.3005  -11.1767 C   0  0  0  0  0  0  0  0  0  0  0  0
  -18.3941   10.7874  -10.2129 N   0  0  0  0  0  0  0  0  0  0  0  0
  -17.4682   10.1478   -9.4901 C   0  0  0  0  0  0  0  0  0  0  0  0
  -17.2791    8.7995   -9.8089 C   0  0  0  0  0  0  0  0  0  0  0  0
  -18.0261    8.2231  -10.8106 C   0  0  0  0  0  0  0  0  0  0  0  0
  -18.9172    8.9670  -11.4572 N   0  0  0  0  0  0  0  0  0  0  0  0
  -17.8351    6.7966  -11.1596 C   0  0  0  0  0  0  0  0  0  0  0  0
  -18.7388    6.0423  -11.8267 C   0  0  0  0  0  0  0  0  0  0  0  0
  -18.4376    4.7452  -12.0816 N   0  0  0  0  0  0  0  0  0  0  0  0
  -17.2875    4.1597  -11.7091 C   0  0  0  0  0  0  0  0  0  0  0  0
  -16.3792    4.8961  -11.0453 N   0  0  0  0  0  0  0  0  0  0  0  0
  -16.6473    6.1890  -10.7757 C   0  0  0  0  0  0  0  0  0  0  0  0
  -17.7527   12.7521  -21.0261 C   0  0  0  0  0  0  0  0  0  0  0  0
  -18.7750   13.5953  -20.6626 C   0  0  0  0  0  0  0  0  0  0  0  0
  -19.5490   13.4271  -19.5085 C   0  0  0  0  0  0  0  0  0  0  0  0
  -19.3078   12.3776  -18.6705 C   0  0  0  0  0  0  0  0  0  0  0  0
  -18.2882   11.5193  -19.0167 C   0  0  0  0  0  0  0  0  0  0  0  0
  -17.5144   11.6766  -20.1573 C   0  0  0  0  0  0  0  0  0  0  0  0
  -16.4324   10.7142  -20.4580 C   0  0  0  0  0  0  0  0  0  0  0  0
  -15.5811   11.1201  -21.4519 F   0  0  0  0  0  0  0  0  0  0  0  0
  -16.9335    9.4523  -20.7194 F   0  0  0  0  0  0  0  0  0  0  0  0
  -15.6489   10.5705  -19.3039 F   0  0  0  0  0  0  0  0  0  0  0  0
  -16.9628   12.8806  -22.2692 C   0  0  0  0  0  0  0  0  0  0  0  0
  -15.5586   14.9725  -26.1147 C   0  0  0  0  0  0  0  0  0  0  0  0
  -15.6266   13.8302  -25.2591 N   0  0  0  0  0  0  0  0  0  0  0  0
  -16.9612   13.3260  -25.1027 C   0  0  0  0  0  0  0  0  0  0  0  0
  -17.7381   14.1520  -24.1339 C   0  0  0  0  0  0  0  0  0  0  0  0
  -17.0798   14.2303  -22.8054 N   0  0  0  0  0  0  0  0  0  0  0  0
  -15.7384   14.7894  -23.0390 C   0  0  0  0  0  0  0  0  0  0  0  0
  -14.9300   14.0131  -24.0289 C   0  0  0  0  0  0  0  0  0  0  0  0
 37 38  1  0  0  0
 38 39  1  0  0  0
 39 40  1  0  0  0
 40 41  1  0  0  0
 41 36  1  0  0  0
 36 26  1  0  0  0
 26 27  2  0  0  0
 27 28  1  0  0  0
 28 29  2  0  0  0
 29 30  1  0  0  0
 30 31  2  0  0  0
 31 32  1  0  0  0
 32 33  1  0  0  0
 32 34  1  0  0  0
 32 35  1  0  0  0
 29  1  1  0  0  0
  1  2  2  0  0  0
  1  3  1  0  0  0
  3  5  1  0  0  0
  5  6  2  0  0  0
  6  7  1  0  0  0
  7  8  2  0  0  0
  8  9  1  0  0  0
  8 10  1  0  0  0
 10 12  1  0  0  0
 12 14  1  0  0  0
 14 15  2  0  0  0
 15 16  1  0  0  0
 16 17  2  0  0  0
 17 18  1  0  0  0
 18 19  2  0  0  0
 18 20  1  0  0  0
 20 21  2  0  0  0
 21 22  1  0  0  0
 22 23  2  0  0  0
 23 24  1  0  0  0
 24 25  2  0  0  0
 10 11  2  0  0  0
 41 42  1  0  0  0
 42 43  1  0  0  0
 43 38  1  0  0  0
 31 26  1  0  0  0
 11  5  1  0  0  0
 19 14  1  0  0  0
 25 20  1  0  0  0
  3  4  1  0  0  0
 12 13  1  0  0  0
M  END
> <minimizedAffinity>
-10.14646

> <CNNscore>
0.1062264740

> <CNNaffinity>
6.1194238663

> <CNN_VS>
0.6500447989

> <CNNaffinity_variance>
0.5293598771

$$$$
[H]c1nc([H])c(-c2nc(N([H])c3c([H])c(N([H])C(=O)c4c([H])c([H])c(C([H])([H])N5C([H])([H])C([H])([H])N(C([H])([H])[H])C([H])([H])C5([H])[H])c(C(F)(F)F)c4[H])c([H])c([H])c3C([H])([H])[H])nc([H])c2[H])c([H])n1


 43 47  0  0  0  0  0  0  0  0999 V2000
  -18.8697   15.4633  -18.2963 C   0  0  0  0  0  0  0  0  0  0  0  0
  -18.2206   16.2365  -17.5654 O   0  0  0  0  0  0  0  0  0  0  0  0
  -19.3248   15.9000  -19.5583 N   0  0  0  0  0  0  0  0  0  0  0  0
  -19.8862   15.2279  -20.1828 H   0  0  0  0  0  0  0  0  0  0  0  0
  -19.0877   17.1882  -20.0883 C   0  0  0  0  0  0  0  0  0  0  0  0
  -17.9585   17.5944  -20.7501 C   0  0  0  0  0  0  0  0  0  0  0  0
  -17.8001   18.9069  -21.2165 C   0  0  0  0  0  0  0  0  0  0  0  0
  -18.8209   19.7962  -20.9931 C   0  0  0  0  0  0  0  0  0  0  0  0
  -18.6743   21.1782  -21.4741 C   0  0  0  0  0  0  0  0  0  0  0  0
  -20.0045   19.4483  -20.3235 C   0  0  0  0  0  0  0  0  0  0  0  0
  -20.0884   18.1661  -19.9012 C   0  0  0  0  0  0  0  0  0  0  0  0
  -20.9708   20.4332  -20.1596 N   0  0  0  0  0  0  0  0  0  0  0  0
  -20.9501   21.0214  -19.2283 H   0  0  0  0  0  0  0  0  0  0  0  0
  -21.9926   20.7820  -21.0518 C   0  0  0  0  0  0  0  0  0  0  0  0
  -22.7838   21.8204  -20.9307 N   0  0  0  0  0  0  0  0  0  0  0  0
  -23.7715   22.1974  -21.7499 C   0  0  0  0  0  0  0  0  0  0  0  0
  -23.9757   21.3792  -22.8654 C   0  0  0  0  0  0  0  0  0  0  0  0
  -23.1810   20.2718  -23.0549 C   0  0  0  0  0  0  0  0  0  0  0  0
  -22.2301   20.0033  -22.1666 N   0  0  0  0  0  0  0  0  0  0  0  0
  -23.3872   19.3959  -24.2312 C   0  0  0  0  0  0  0  0  0  0  0  0
  -24.1391   19.7215  -25.3079 C   0  0  0  0  0  0  0  0  0  0  0  0
  -24.2453   18.8244  -26.3188 N   0  0  0  0  0  0  0  0  0  0  0  0
  -23.6447   17.6229  -26.3157 C   0  0  0  0  0  0  0  0  0  0  0  0
  -22.8941   17.2845  -25.2527 N   0  0  0  0  0  0  0  0  0  0  0  0
  -22.7675   18.1535  -24.2304 C   0  0  0  0  0  0  0  0  0  0  0  0
  -19.6065   11.3939  -17.0082 C   0  0  0  0  0  0  0  0  0  0  0  0
  -20.3392   12.4535  -16.5302 C   0  0  0  0  0  0  0  0  0  0  0  0
  -20.1328   13.7816  -16.9213 C   0  0  0  0  0  0  0  0  0  0  0  0
  -19.1571   14.0840  -17.8260 C   0  0  0  0  0  0  0  0  0  0  0  0
  -18.4098   13.0368  -18.3171 C   0  0  0  0  0  0  0  0  0  0  0  0
  -18.6060   11.7171  -17.9371 C   0  0  0  0  0  0  0  0  0  0  0  0
  -17.7648   10.6463  -18.5144 C   0  0  0  0  0  0  0  0  0  0  0  0
  -18.2199    9.3787  -18.2627 F   0  0  0  0  0  0  0  0  0  0  0  0
  -16.4414   10.7817  -18.1377 F   0  0  0  0  0  0  0  0  0  0  0  0
  -17.7709   10.7964  -19.9086 F   0  0  0  0  0  0  0  0  0  0  0  0
  -19.7714    9.9933  -16.5644 C   0  0  0  0  0  0  0  0  0  0  0  0
  -20.4185    6.9991  -13.1364 C   0  0  0  0  0  0  0  0  0  0  0  0
  -19.7793    7.4010  -14.3494 N   0  0  0  0  0  0  0  0  0  0  0  0
  -18.9790    8.5824  -14.1963 C   0  0  0  0  0  0  0  0  0  0  0  0
  -19.8272    9.8090  -14.1859 C   0  0  0  0  0  0  0  0  0  0  0  0
  -20.6583    9.9298  -15.4102 N   0  0  0  0  0  0  0  0  0  0  0  0
  -21.4757    8.7076  -15.4793 C   0  0  0  0  0  0  0  0  0  0  0  0
  -20.6712    7.4472  -15.4605 C   0  0  0  0  0  0  0  0  0  0  0  0
 37 38  1  0  0  0
 38 39  1  0  0  0
 39 40  1  0  0  0
 40 41  1  0  0  0
 41 36  1  0  0  0
 36 26  1  0  0  0
 26 27  2  0  0  0
 27 28  1  0  0  0
 28 29  2  0  0  0
 29 30  1  0  0  0
 30 31  2  0  0  0
 31 32  1  0  0  0
 32 33  1  0  0  0
 32 34  1  0  0  0
 32 35  1  0  0  0
 29  1  1  0  0  0
  1  2  2  0  0  0
  1  3  1  0  0  0
  3  5  1  0  0  0
  5  6  2  0  0  0
  6  7  1  0  0  0
  7  8  2  0  0  0
  8  9  1  0  0  0
  8 10  1  0  0  0
 10 12  1  0  0  0
 12 14  1  0  0  0
 14 15  2  0  0  0
 15 16  1  0  0  0
 16 17  2  0  0  0
 17 18  1  0  0  0
 18 19  2  0  0  0
 18 20  1  0  0  0
 20 21  2  0  0  0
 21 22  1  0  0  0
 22 23  2  0  0  0
 23 24  1  0  0  0
 24 25  2  0  0  0
 10 11  2  0  0  0
 41 42  1  0  0  0
 42 43  1  0  0  0
 43 38  1  0  0  0
 31 26  1  0  0  0
 11  5  1  0  0  0
 19 14  1  0  0  0
 25 20  1  0  0  0
  3  4  1  0  0  0
 12 13  1  0  0  0
M  END
> <minimizedAffinity>
-8.48725

> <CNNscore>
0.0851127356

> <CNNaffinity>
6.1004247665

> <CNN_VS>
0.5192238688

> <CNNaffinity_variance>
0.0849220604

$$$$
[H]c1nc([H])c(-c2nc(N([H])c3c([H])c(N([H])C(=O)c4c([H])c([H])c(C([H])([H])N5C([H])([H])C([H])([H])N(C([H])([H])[H])C([H])([H])C5([H])[H])c(C(F)(F)F)c4[H])c([H])c([H])c3C([H])([H])[H])nc([H])c2[H])c([H])n1


 43 47  0  0  0  0  0  0  0  0999 V2000
  -18.0915   12.3026  -19.5910 C   0  0  0  0  0  0  0  0  0  0  0  0
  -16.8783   12.0187  -19.5618 O   0  0  0  0  0  0  0  0  0  0  0  0
  -18.6323   12.9772  -20.7060 N   0  0  0  0  0  0  0  0  0  0  0  0
  -19.6797   13.2208  -20.7234 H   0  0  0  0  0  0  0  0  0  0  0  0
  -17.8860   13.3635  -21.8418 C   0  0  0  0  0  0  0  0  0  0  0  0
  -17.0463   12.5604  -22.5685 C   0  0  0  0  0  0  0  0  0  0  0  0
  -16.3216   13.0417  -23.6678 C   0  0  0  0  0  0  0  0  0  0  0  0
  -16.4737   14.3618  -24.0099 C   0  0  0  0  0  0  0  0  0  0  0  0
  -15.7222   14.8866  -25.1600 C   0  0  0  0  0  0  0  0  0  0  0  0
  -17.3166   15.2401  -23.3109 C   0  0  0  0  0  0  0  0  0  0  0  0
  -17.9839   14.7077  -22.2618 C   0  0  0  0  0  0  0  0  0  0  0  0
  -17.3931   16.5552  -23.7527 N   0  0  0  0  0  0  0  0  0  0  0  0
  -16.7876   16.8375  -24.6287 H   0  0  0  0  0  0  0  0  0  0  0  0
  -18.1630   17.5928  -23.2120 C   0  0  0  0  0  0  0  0  0  0  0  0
  -17.8108   18.3527  -22.2033 N   0  0  0  0  0  0  0  0  0  0  0  0
  -18.5052   19.3526  -21.6496 C   0  0  0  0  0  0  0  0  0  0  0  0
  -19.7545   19.6095  -22.2229 C   0  0  0  0  0  0  0  0  0  0  0  0
  -20.1877   18.8499  -23.2854 C   0  0  0  0  0  0  0  0  0  0  0  0
  -19.4027   17.8819  -23.7460 N   0  0  0  0  0  0  0  0  0  0  0  0
  -21.5092   19.1102  -23.9013 C   0  0  0  0  0  0  0  0  0  0  0  0
  -21.8453   20.2536  -24.5419 C   0  0  0  0  0  0  0  0  0  0  0  0
  -23.0931   20.3625  -25.0608 N   0  0  0  0  0  0  0  0  0  0  0  0
  -24.0225   19.3963  -24.9767 C   0  0  0  0  0  0  0  0  0  0  0  0
  -23.7038   18.2540  -24.3432 N   0  0  0  0  0  0  0  0  0  0  0  0
  -22.4716   18.1133  -23.8158 C   0  0  0  0  0  0  0  0  0  0  0  0
  -20.5432   11.0820  -16.2352 C   0  0  0  0  0  0  0  0  0  0  0  0
  -20.7518   12.2681  -16.8968 C   0  0  0  0  0  0  0  0  0  0  0  0
  -19.9829   12.6979  -17.9846 C   0  0  0  0  0  0  0  0  0  0  0  0
  -18.9570   11.9247  -18.4446 C   0  0  0  0  0  0  0  0  0  0  0  0
  -18.7296   10.7320  -17.7950 C   0  0  0  0  0  0  0  0  0  0  0  0
  -19.4856   10.2959  -16.7166 C   0  0  0  0  0  0  0  0  0  0  0  0
  -19.1822    8.9984  -16.0748 C   0  0  0  0  0  0  0  0  0  0  0  0
  -18.9033    9.0866  -14.7362 F   0  0  0  0  0  0  0  0  0  0  0  0
  -18.1808    8.3216  -16.7462 F   0  0  0  0  0  0  0  0  0  0  0  0
  -20.3190    8.1849  -16.1864 F   0  0  0  0  0  0  0  0  0  0  0  0
  -21.3071   10.6382  -15.0498 C   0  0  0  0  0  0  0  0  0  0  0  0
  -22.4210   10.8520  -10.5945 C   0  0  0  0  0  0  0  0  0  0  0  0
  -22.2843   10.1338  -11.8222 N   0  0  0  0  0  0  0  0  0  0  0  0
  -20.9237   10.0439  -12.2701 C   0  0  0  0  0  0  0  0  0  0  0  0
  -20.4844   11.3151  -12.9144 C   0  0  0  0  0  0  0  0  0  0  0  0
  -21.3558   11.7000  -14.0532 N   0  0  0  0  0  0  0  0  0  0  0  0
  -22.7204   11.8111  -13.5128 C   0  0  0  0  0  0  0  0  0  0  0  0
  -23.1960   10.5700  -12.8274 C   0  0  0  0  0  0  0  0  0  0  0  0
 37 38  1  0  0  0
 38 39  1  0  0  0
 39 40  1  0  0  0
 40 41  1  0  0  0
 41 36  1  0  0  0
 36 26  1  0  0  0
 26 27  2  0  0  0
 27 28  1  0  0  0
 28 29  2  0  0  0
 29 30  1  0  0  0
 30 31  2  0  0  0
 31 32  1  0  0  0
 32 33  1  0  0  0
 32 34  1  0  0  0
 32 35  1  0  0  0
 29  1  1  0  0  0
  1  2  2  0  0  0
  1  3  1  0  0  0
  3  5  1  0  0  0
  5  6  2  0  0  0
  6  7  1  0  0  0
  7  8  2  0  0  0
  8  9  1  0  0  0
  8 10  1  0  0  0
 10 12  1  0  0  0
 12 14  1  0  0  0
 14 15  2  0  0  0
 15 16  1  0  0  0
 16 17  2  0  0  0
 17 18  1  0  0  0
 18 19  2  0  0  0
 18 20  1  0  0  0
 20 21  2  0  0  0
 21 22  1  0  0  0
 22 23  2  0  0  0
 23 24  1  0  0  0
 24 25  2  0  0  0
 10 11  2  0  0  0
 41 42  1  0  0  0
 42 43  1  0  0  0
 43 38  1  0  0  0
 31 26  1  0  0  0
 11  5  1  0  0  0
 19 14  1  0  0  0
 25 20  1  0  0  0
  3  4  1  0  0  0
 12 13  1  0  0  0
M  END
> <minimizedAffinity>
-9.01948

> <CNNscore>
0.0720312297

> <CNNaffinity>
6.5941071510

> <CNN_VS>
0.4749816358

> <CNNaffinity_variance>
0.0514478311

$$$$
[H]c1nc([H])c(-c2nc(N([H])c3c([H])c(N([H])C(=O)c4c([H])c([H])c(C([H])([H])N5C([H])([H])C([H])([H])N(C([H])([H])[H])C([H])([H])C5([H])[H])c(C(F)(F)F)c4[H])c([H])c([H])c3C([H])([H])[H])nc([H])c2[H])c([H])n1


 43 47  0  0  0  0  0  0  0  0999 V2000
  -17.9854   12.1070  -19.5445 C   0  0  0  0  0  0  0  0  0  0  0  0
  -16.7981   11.7279  -19.5515 O   0  0  0  0  0  0  0  0  0  0  0  0
  -18.4904   12.8670  -20.6206 N   0  0  0  0  0  0  0  0  0  0  0  0
  -19.5155   13.1924  -20.6068 H   0  0  0  0  0  0  0  0  0  0  0  0
  -17.7358   13.2400  -21.7554 C   0  0  0  0  0  0  0  0  0  0  0  0
  -16.8440   12.4469  -22.4292 C   0  0  0  0  0  0  0  0  0  0  0  0
  -16.1161   12.9152  -23.5320 C   0  0  0  0  0  0  0  0  0  0  0  0
  -16.3193   14.2117  -23.9328 C   0  0  0  0  0  0  0  0  0  0  0  0
  -15.5652   14.7225  -25.0875 C   0  0  0  0  0  0  0  0  0  0  0  0
  -17.2168   15.0785  -23.2899 C   0  0  0  0  0  0  0  0  0  0  0  0
  -17.8840   14.5598  -22.2338 C   0  0  0  0  0  0  0  0  0  0  0  0
  -17.3419   16.3694  -23.7883 N   0  0  0  0  0  0  0  0  0  0  0  0
  -16.8080   16.6126  -24.7208 H   0  0  0  0  0  0  0  0  0  0  0  0
  -18.0805   17.4266  -23.2419 C   0  0  0  0  0  0  0  0  0  0  0  0
  -17.6997   18.1789  -22.2380 N   0  0  0  0  0  0  0  0  0  0  0  0
  -18.3637   19.1966  -21.6792 C   0  0  0  0  0  0  0  0  0  0  0  0
  -19.6119   19.4835  -22.2407 C   0  0  0  0  0  0  0  0  0  0  0  0
  -20.0742   18.7333  -23.2976 C   0  0  0  0  0  0  0  0  0  0  0  0
  -19.3178   17.7455  -23.7642 N   0  0  0  0  0  0  0  0  0  0  0  0
  -21.3948   19.0253  -23.9009 C   0  0  0  0  0  0  0  0  0  0  0  0
  -21.7208   20.1905  -24.5066 C   0  0  0  0  0  0  0  0  0  0  0  0
  -22.9690   20.3275  -25.0177 N   0  0  0  0  0  0  0  0  0  0  0  0
  -23.9083   19.3691  -24.9587 C   0  0  0  0  0  0  0  0  0  0  0  0
  -23.5997   18.2055  -24.3599 N   0  0  0  0  0  0  0  0  0  0  0  0
  -22.3674   18.0364  -23.8412 C   0  0  0  0  0  0  0  0  0  0  0  0
  -20.4619   10.9487  -16.1849 C   0  0  0  0  0  0  0  0  0  0  0  0
  -20.6328   12.1457  -16.8377 C   0  0  0  0  0  0  0  0  0  0  0  0
  -19.8546   12.5561  -17.9264 C   0  0  0  0  0  0  0  0  0  0  0  0
  -18.8580   11.7513  -18.3964 C   0  0  0  0  0  0  0  0  0  0  0  0
  -18.6687   10.5472  -17.7557 C   0  0  0  0  0  0  0  0  0  0  0  0
  -19.4341   10.1300  -16.6766 C   0  0  0  0  0  0  0  0  0  0  0  0
  -19.1725    8.8186  -16.0447 C   0  0  0  0  0  0  0  0  0  0  0  0
  -20.1457    7.8817  -16.2740 F   0  0  0  0  0  0  0  0  0  0  0  0
  -18.9186    8.9485  -14.6918 F   0  0  0  0  0  0  0  0  0  0  0  0
  -17.9914    8.3014  -16.5959 F   0  0  0  0  0  0  0  0  0  0  0  0
  -21.2351   10.5235  -14.9986 C   0  0  0  0  0  0  0  0  0  0  0  0
  -24.9449    8.6741  -13.0104 C   0  0  0  0  0  0  0  0  0  0  0  0
  -23.5348    8.8943  -13.0794 N   0  0  0  0  0  0  0  0  0  0  0  0
  -23.1732   10.2714  -12.8993 C   0  0  0  0  0  0  0  0  0  0  0  0
  -23.4004   11.0548  -14.1479 C   0  0  0  0  0  0  0  0  0  0  0  0
  -22.6589   10.4960  -15.3065 N   0  0  0  0  0  0  0  0  0  0  0  0
  -23.1079    9.1020  -15.4534 C   0  0  0  0  0  0  0  0  0  0  0  0
  -22.9301    8.2818  -14.2157 C   0  0  0  0  0  0  0  0  0  0  0  0
 37 38  1  0  0  0
 38 39  1  0  0  0
 39 40  1  0  0  0
 40 41  1  0  0  0
 41 36  1  0  0  0
 36 26  1  0  0  0
 26 27  2  0  0  0
 27 28  1  0  0  0
 28 29  2  0  0  0
 29 30  1  0  0  0
 30 31  2  0  0  0
 31 32  1  0  0  0
 32 33  1  0  0  0
 32 34  1  0  0  0
 32 35  1  0  0  0
 29  1  1  0  0  0
  1  2  2  0  0  0
  1  3  1  0  0  0
  3  5  1  0  0  0
  5  6  2  0  0  0
  6  7  1  0  0  0
  7  8  2  0  0  0
  8  9  1  0  0  0
  8 10  1  0  0  0
 10 12  1  0  0  0
 12 14  1  0  0  0
 14 15  2  0  0  0
 15 16  1  0  0  0
 16 17  2  0  0  0
 17 18  1  0  0  0
 18 19  2  0  0  0
 18 20  1  0  0  0
 20 21  2  0  0  0
 21 22  1  0  0  0
 22 23  2  0  0  0
 23 24  1  0  0  0
 24 25  2  0  0  0
 10 11  2  0  0  0
 41 42  1  0  0  0
 42 43  1  0  0  0
 43 38  1  0  0  0
 31 26  1  0  0  0
 11  5  1  0  0  0
 19 14  1  0  0  0
 25 20  1  0  0  0
  3  4  1  0  0  0
 12 13  1  0  0  0
M  END
> <minimizedAffinity>
-9.17618

> <CNNscore>
0.0709929168

> <CNNaffinity>
6.5868835449

> <CNN_VS>
0.4676220715

> <CNNaffinity_variance>
0.0629774779

$$$$
[H]c1nc([H])c(-c2nc(N([H])c3c([H])c(N([H])C(=O)c4c([H])c([H])c(C([H])([H])N5C([H])([H])C([H])([H])N(C([H])([H])[H])C([H])([H])C5([H])[H])c(C(F)(F)F)c4[H])c([H])c([H])c3C([H])([H])[H])nc([H])c2[H])c([H])n1


 43 47  0  0  0  0  0  0  0  0999 V2000
  -17.3689   11.4743  -19.6504 C   0  0  0  0  0  0  0  0  0  0  0  0
  -16.1646   11.2099  -19.8321 O   0  0  0  0  0  0  0  0  0  0  0  0
  -18.0240   12.3979  -20.4923 N   0  0  0  0  0  0  0  0  0  0  0  0
  -19.0629   12.6228  -20.3282 H   0  0  0  0  0  0  0  0  0  0  0  0
  -17.4072   13.0662  -21.5736 C   0  0  0  0  0  0  0  0  0  0  0  0
  -17.0053   12.4956  -22.7530 C   0  0  0  0  0  0  0  0  0  0  0  0
  -16.3723   13.2362  -23.7610 C   0  0  0  0  0  0  0  0  0  0  0  0
  -16.1591   14.5733  -23.5390 C   0  0  0  0  0  0  0  0  0  0  0  0
  -15.4963   15.3680  -24.5839 C   0  0  0  0  0  0  0  0  0  0  0  0
  -16.5451   15.2224  -22.3557 C   0  0  0  0  0  0  0  0  0  0  0  0
  -17.1496   14.4465  -21.4273 C   0  0  0  0  0  0  0  0  0  0  0  0
  -16.2806   16.5819  -22.2456 N   0  0  0  0  0  0  0  0  0  0  0  0
  -15.2828   16.9362  -22.5500 H   0  0  0  0  0  0  0  0  0  0  0  0
  -17.1444   17.5842  -21.7860 C   0  0  0  0  0  0  0  0  0  0  0  0
  -17.2441   17.9885  -20.5428 N   0  0  0  0  0  0  0  0  0  0  0  0
  -18.0493   18.9370  -20.0522 C   0  0  0  0  0  0  0  0  0  0  0  0
  -18.8796   19.5657  -20.9854 C   0  0  0  0  0  0  0  0  0  0  0  0
  -18.8272   19.1906  -22.3083 C   0  0  0  0  0  0  0  0  0  0  0  0
  -17.9820   18.2319  -22.6717 N   0  0  0  0  0  0  0  0  0  0  0  0
  -19.7019   19.8471  -23.3070 C   0  0  0  0  0  0  0  0  0  0  0  0
  -19.3881   20.9820  -23.9734 C   0  0  0  0  0  0  0  0  0  0  0  0
  -20.2825   21.4789  -24.8630 N   0  0  0  0  0  0  0  0  0  0  0  0
  -21.4700   20.9081  -25.1244 C   0  0  0  0  0  0  0  0  0  0  0  0
  -21.7964   19.7797  -24.4702 N   0  0  0  0  0  0  0  0  0  0  0  0
  -20.9298   19.2591  -23.5790 C   0  0  0  0  0  0  0  0  0  0  0  0
  -19.5866    9.6514  -16.4068 C   0  0  0  0  0  0  0  0  0  0  0  0
  -18.5691    8.9930  -17.0543 C   0  0  0  0  0  0  0  0  0  0  0  0
  -17.8289    9.5468  -18.1054 C   0  0  0  0  0  0  0  0  0  0  0  0
  -18.1028   10.8098  -18.5432 C   0  0  0  0  0  0  0  0  0  0  0  0
  -19.1200   11.4874  -17.9088 C   0  0  0  0  0  0  0  0  0  0  0  0
  -19.8595   10.9487  -16.8660 C   0  0  0  0  0  0  0  0  0  0  0  0
  -20.9341   11.7426  -16.2315 C   0  0  0  0  0  0  0  0  0  0  0  0
  -20.5987   12.2647  -15.0099 F   0  0  0  0  0  0  0  0  0  0  0  0
  -22.1163   11.0295  -16.1580 F   0  0  0  0  0  0  0  0  0  0  0  0
  -21.2118   12.8366  -17.0636 F   0  0  0  0  0  0  0  0  0  0  0  0
  -20.4166    9.0625  -15.3344 C   0  0  0  0  0  0  0  0  0  0  0  0
  -21.0183    8.4010  -10.8249 C   0  0  0  0  0  0  0  0  0  0  0  0
  -21.4856    8.8310  -12.1049 N   0  0  0  0  0  0  0  0  0  0  0  0
  -21.5762    7.7608  -13.0568 C   0  0  0  0  0  0  0  0  0  0  0  0
  -20.2348    7.4204  -13.6126 C   0  0  0  0  0  0  0  0  0  0  0  0
  -19.5733    8.5898  -14.2444 N   0  0  0  0  0  0  0  0  0  0  0  0
  -19.4803    9.6265  -13.2036 C   0  0  0  0  0  0  0  0  0  0  0  0
  -20.7980    9.9808  -12.5917 C   0  0  0  0  0  0  0  0  0  0  0  0
 37 38  1  0  0  0
 38 39  1  0  0  0
 39 40  1  0  0  0
 40 41  1  0  0  0
 41 36  1  0  0  0
 36 26  1  0  0  0
 26 27  2  0  0  0
 27 28  1  0  0  0
 28 29  2  0  0  0
 29 30  1  0  0  0
 30 31  2  0  0  0
 31 32  1  0  0  0
 32 33  1  0  0  0
 32 34  1  0  0  0
 32 35  1  0  0  0
 29  1  1  0  0  0
  1  2  2  0  0  0
  1  3  1  0  0  0
  3  5  1  0  0  0
  5  6  2  0  0  0
  6  7  1  0  0  0
  7  8  2  0  0  0
  8  9  1  0  0  0
  8 10  1  0  0  0
 10 12  1  0  0  0
 12 14  1  0  0  0
 14 15  2  0  0  0
 15 16  1  0  0  0
 16 17  2  0  0  0
 17 18  1  0  0  0
 18 19  2  0  0  0
 18 20  1  0  0  0
 20 21  2  0  0  0
 21 22  1  0  0  0
 22 23  2  0  0  0
 23 24  1  0  0  0
 24 25  2  0  0  0
 10 11  2  0  0  0
 41 42  1  0  0  0
 42 43  1  0  0  0
 43 38  1  0  0  0
 31 26  1  0  0  0
 11  5  1  0  0  0
 19 14  1  0  0  0
 25 20  1  0  0  0
  3  4  1  0  0  0
 12 13  1  0  0  0
M  END
> <minimizedAffinity>
-9.28850

> <CNNscore>
0.0681564361

> <CNNaffinity>
6.7259736061

> <CNN_VS>
0.4584183991

> <CNNaffinity_variance>
0.1381364167

$$$$
[H]c1nc([H])c(-c2nc(N([H])c3c([H])c(N([H])C(=O)c4c([H])c([H])c(C([H])([H])N5C([H])([H])C([H])([H])N(C([H])([H])[H])C([H])([H])C5([H])[H])c(C(F)(F)F)c4[H])c([H])c([H])c3C([H])([H])[H])nc([H])c2[H])c([H])n1


 43 47  0  0  0  0  0  0  0  0999 V2000
  -17.8525   11.9292  -19.2143 C   0  0  0  0  0  0  0  0  0  0  0  0
  -16.6614   11.5749  -19.1181 O   0  0  0  0  0  0  0  0  0  0  0  0
  -18.2759   12.6882  -20.3258 N   0  0  0  0  0  0  0  0  0  0  0  0
  -19.3048   12.9922  -20.4011 H   0  0  0  0  0  0  0  0  0  0  0  0
  -17.4314   13.0868  -21.3861 C   0  0  0  0  0  0  0  0  0  0  0  0
  -16.7600   12.2528  -22.2417 C   0  0  0  0  0  0  0  0  0  0  0  0
  -15.9176   12.7415  -23.2501 C   0  0  0  0  0  0  0  0  0  0  0  0
  -15.7761   14.1014  -23.3666 C   0  0  0  0  0  0  0  0  0  0  0  0
  -14.8967   14.6345  -24.4179 C   0  0  0  0  0  0  0  0  0  0  0  0
  -16.4338   15.0129  -22.5258 C   0  0  0  0  0  0  0  0  0  0  0  0
  -17.2296   14.4710  -21.5758 C   0  0  0  0  0  0  0  0  0  0  0  0
  -16.2165   16.3681  -22.7419 N   0  0  0  0  0  0  0  0  0  0  0  0
  -15.3765   16.6548  -23.3944 H   0  0  0  0  0  0  0  0  0  0  0  0
  -16.9498   17.4426  -22.2227 C   0  0  0  0  0  0  0  0  0  0  0  0
  -16.7877   17.9669  -21.0319 N   0  0  0  0  0  0  0  0  0  0  0  0
  -17.4584   18.9886  -20.4888 C   0  0  0  0  0  0  0  0  0  0  0  0
  -18.4482   19.5579  -21.2960 C   0  0  0  0  0  0  0  0  0  0  0  0
  -18.6722   19.0570  -22.5580 C   0  0  0  0  0  0  0  0  0  0  0  0
  -17.9368   18.0356  -22.9840 N   0  0  0  0  0  0  0  0  0  0  0  0
  -19.7182   19.6494  -23.4229 C   0  0  0  0  0  0  0  0  0  0  0  0
  -20.9393   19.1057  -23.6323 C   0  0  0  0  0  0  0  0  0  0  0  0
  -21.8047   19.7530  -24.4509 N   0  0  0  0  0  0  0  0  0  0  0  0
  -21.5208   20.9102  -25.0710 C   0  0  0  0  0  0  0  0  0  0  0  0
  -20.3113   21.4632  -24.8730 N   0  0  0  0  0  0  0  0  0  0  0  0
  -19.4272   20.8455  -24.0651 C   0  0  0  0  0  0  0  0  0  0  0  0
  -20.5946   10.6888  -16.0992 C   0  0  0  0  0  0  0  0  0  0  0  0
  -20.7170   11.8991  -16.7382 C   0  0  0  0  0  0  0  0  0  0  0  0
  -19.8528   12.3361  -17.7489 C   0  0  0  0  0  0  0  0  0  0  0  0
  -18.8160   11.5454  -18.1511 C   0  0  0  0  0  0  0  0  0  0  0  0
  -18.6742   10.3283  -17.5227 C   0  0  0  0  0  0  0  0  0  0  0  0
  -19.5249    9.8849  -16.5206 C   0  0  0  0  0  0  0  0  0  0  0  0
  -19.3098    8.5610  -15.8973 C   0  0  0  0  0  0  0  0  0  0  0  0
  -20.3069    7.6551  -16.1469 F   0  0  0  0  0  0  0  0  0  0  0  0
  -19.0691    8.6717  -14.5402 F   0  0  0  0  0  0  0  0  0  0  0  0
  -18.1374    8.0139  -16.4385 F   0  0  0  0  0  0  0  0  0  0  0  0
  -21.4619   10.2350  -14.9911 C   0  0  0  0  0  0  0  0  0  0  0  0
  -22.4453   10.6879  -10.5231 C   0  0  0  0  0  0  0  0  0  0  0  0
  -22.1356    9.8890  -11.6665 N   0  0  0  0  0  0  0  0  0  0  0  0
  -20.8272   10.1508  -12.1952 C   0  0  0  0  0  0  0  0  0  0  0  0
  -20.8166   11.3995  -13.0106 C   0  0  0  0  0  0  0  0  0  0  0  0
  -21.7997   11.3548  -14.1224 N   0  0  0  0  0  0  0  0  0  0  0  0
  -23.1153   11.1238  -13.5041 C   0  0  0  0  0  0  0  0  0  0  0  0
  -23.1684    9.8982  -12.6490 C   0  0  0  0  0  0  0  0  0  0  0  0
 37 38  1  0  0  0
 38 39  1  0  0  0
 39 40  1  0  0  0
 40 41  1  0  0  0
 41 36  1  0  0  0
 36 26  1  0  0  0
 26 27  2  0  0  0
 27 28  1  0  0  0
 28 29  2  0  0  0
 29 30  1  0  0  0
 30 31  2  0  0  0
 31 32  1  0  0  0
 32 33  1  0  0  0
 32 34  1  0  0  0
 32 35  1  0  0  0
 29  1  1  0  0  0
  1  2  2  0  0  0
  1  3  1  0  0  0
  3  5  1  0  0  0
  5  6  2  0  0  0
  6  7  1  0  0  0
  7  8  2  0  0  0
  8  9  1  0  0  0
  8 10  1  0  0  0
 10 12  1  0  0  0
 12 14  1  0  0  0
 14 15  2  0  0  0
 15 16  1  0  0  0
 16 17  2  0  0  0
 17 18  1  0  0  0
 18 19  2  0  0  0
 18 20  1  0  0  0
 20 21  2  0  0  0
 21 22  1  0  0  0
 22 23  2  0  0  0
 23 24  1  0  0  0
 24 25  2  0  0  0
 10 11  2  0  0  0
 41 42  1  0  0  0
 42 43  1  0  0  0
 43 38  1  0  0  0
 31 26  1  0  0  0
 11  5  1  0  0  0
 19 14  1  0  0  0
 25 20  1  0  0  0
  3  4  1  0  0  0
 12 13  1  0  0  0
M  END
> <minimizedAffinity>
-9.16939

> <CNNscore>
0.0573821440

> <CNNaffinity>
6.5689873695

> <CNN_VS>
0.3769425750

> <CNNaffinity_variance>
0.0805035457

$$$$
[H]c1nc(N([H])[H])c([H])c(-n2c(N([H])c3c([H])c(N([H])C(=O)c4c([H])c(C5([H])C([H])([H])C5([H])[H])nn4[H])c([H])c([H])c3C([H])([H])[H])nc3c([H])c([H])c([H])c([H])c32)n1


 40 45  0  0  0  0  0  0  0  0999 V2000
  -20.6325   15.8624  -16.5685 C   0  0  0  0  0  0  0  0  0  0  0  0
  -19.7666   15.9167  -17.7873 C   0  0  0  0  0  0  0  0  0  0  0  0
  -18.9411   16.9700  -18.0475 C   0  0  0  0  0  0  0  0  0  0  0  0
  -18.1276   17.0568  -19.1650 C   0  0  0  0  0  0  0  0  0  0  0  0
  -18.1152   16.0485  -20.0956 C   0  0  0  0  0  0  0  0  0  0  0  0
  -18.9683   14.9668  -19.8186 C   0  0  0  0  0  0  0  0  0  0  0  0
  -19.7862   14.8554  -18.7196 C   0  0  0  0  0  0  0  0  0  0  0  0
  -17.3472   16.0373  -21.2797 N   0  0  0  0  0  0  0  0  0  0  0  0
  -17.8068   16.2295  -22.5687 C   0  0  0  0  0  0  0  0  0  0  0  0
  -19.0023   16.4361  -22.8306 O   0  0  0  0  0  0  0  0  0  0  0  0
  -16.2984   15.8660  -21.1677 H   0  0  0  0  0  0  0  0  0  0  0  0
  -16.8919   16.2009  -23.7315 C   0  0  0  0  0  0  0  0  0  0  0  0
  -16.8960   15.3381  -24.7882 C   0  0  0  0  0  0  0  0  0  0  0  0
  -15.8701   15.6680  -25.6476 C   0  0  0  0  0  0  0  0  0  0  0  0
  -15.2682   16.7274  -25.0862 N   0  0  0  0  0  0  0  0  0  0  0  0
  -15.8732   17.0467  -23.9470 N   0  0  0  0  0  0  0  0  0  0  0  0
  -15.5871   17.8331  -23.3320 H   0  0  0  0  0  0  0  0  0  0  0  0
  -15.4814   15.0239  -26.9190 C   0  0  0  0  0  0  0  0  0  0  0  0
  -16.6333   14.4659  -27.7905 C   0  0  0  0  0  0  0  0  0  0  0  0
  -15.8548   15.6463  -28.1993 C   0  0  0  0  0  0  0  0  0  0  0  0
  -20.5523   13.7481  -18.3775 N   0  0  0  0  0  0  0  0  0  0  0  0
  -21.5892   13.8187  -18.7341 H   0  0  0  0  0  0  0  0  0  0  0  0
  -20.3012   12.5515  -17.6706 C   0  0  0  0  0  0  0  0  0  0  0  0
  -21.1182   12.1175  -16.6416 N   0  0  0  0  0  0  0  0  0  0  0  0
  -20.6811   10.9324  -16.2594 C   0  0  0  0  0  0  0  0  0  0  0  0
  -21.1068   10.0323  -15.2757 C   0  0  0  0  0  0  0  0  0  0  0  0
  -20.4513    8.8420  -15.0874 C   0  0  0  0  0  0  0  0  0  0  0  0
  -19.3624    8.5087  -15.8611 C   0  0  0  0  0  0  0  0  0  0  0  0
  -18.9241    9.3791  -16.8366 C   0  0  0  0  0  0  0  0  0  0  0  0
  -19.5977   10.5798  -17.0155 C   0  0  0  0  0  0  0  0  0  0  0  0
  -19.3926   11.6189  -17.8895 N   0  0  0  0  0  0  0  0  0  0  0  0
  -18.3524   11.4859  -18.8864 C   0  0  0  0  0  0  0  0  0  0  0  0
  -18.4990   11.9478  -20.1802 C   0  0  0  0  0  0  0  0  0  0  0  0
  -17.4928   11.8588  -21.1173 C   0  0  0  0  0  0  0  0  0  0  0  0
  -17.6591   12.3392  -22.4457 N   0  0  0  0  0  0  0  0  0  0  0  0
  -16.3235   11.2916  -20.7293 N   0  0  0  0  0  0  0  0  0  0  0  0
  -16.1613   10.8371  -19.4781 C   0  0  0  0  0  0  0  0  0  0  0  0
  -17.1687   10.9354  -18.5690 N   0  0  0  0  0  0  0  0  0  0  0  0
  -17.2059   11.8603  -23.2408 H   0  0  0  0  0  0  0  0  0  0  0  0
  -18.2356   13.1805  -22.6679 H   0  0  0  0  0  0  0  0  0  0  0  0
  1  2  1  0  0  0
  2  3  2  0  0  0
  3  4  1  0  0  0
  4  5  2  0  0  0
  5  8  1  0  0  0
  8  9  1  0  0  0
  9 10  2  0  0  0
  9 12  1  0  0  0
 12 13  2  0  0  0
 13 14  1  0  0  0
 14 15  2  0  0  0
 15 16  1  0  0  0
 14 18  1  0  0  0
 18 19  1  0  0  0
 19 20  1  0  0  0
  5  6  1  0  0  0
  6  7  2  0  0  0
  7 21  1  0  0  0
 21 23  1  0  0  0
 23 24  2  0  0  0
 24 25  1  0  0  0
 25 26  2  0  0  0
 26 27  1  0  0  0
 27 28  2  0  0  0
 28 29  1  0  0  0
 29 30  2  0  0  0
 30 31  1  0  0  0
 31 32  1  0  0  0
 32 33  2  0  0  0
 33 34  1  0  0  0
 34 35  1  0  0  0
 34 36  2  0  0  0
 36 37  1  0  0  0
 37 38  2  0  0  0
  7  2  1  0  0  0
 31 23  1  0  0  0
 38 32  1  0  0  0
 16 12  1  0  0  0
 20 18  1  0  0  0
 30 25  1  0  0  0
  8 11  1  0  0  0
 16 17  1  0  0  0
 21 22  1  0  0  0
 35 39  1  0  0  0
 35 40  1  0  0  0
M  END
> <minimizedAffinity>
-9.06750

> <CNNscore>
0.2076354921

> <CNNaffinity>
7.3431978226

> <CNN_VS>
1.5247085094

> <CNNaffinity_variance>
0.1468391418

$$$$
[H]c1nc(N([H])[H])c([H])c(-n2c(N([H])c3c([H])c(N([H])C(=O)c4c([H])c(C5([H])C([H])([H])C5([H])[H])nn4[H])c([H])c([H])c3C([H])([H])[H])nc3c([H])c([H])c([H])c([H])c32)n1


 40 45  0  0  0  0  0  0  0  0999 V2000
  -15.8818    9.9486  -21.1054 C   0  0  0  0  0  0  0  0  0  0  0  0
  -16.8593   10.7319  -20.2873 C   0  0  0  0  0  0  0  0  0  0  0  0
  -17.0436   10.5021  -18.9562 C   0  0  0  0  0  0  0  0  0  0  0  0
  -17.9397   11.2042  -18.1675 C   0  0  0  0  0  0  0  0  0  0  0  0
  -18.7114   12.2003  -18.7106 C   0  0  0  0  0  0  0  0  0  0  0  0
  -18.5139   12.4308  -20.0827 C   0  0  0  0  0  0  0  0  0  0  0  0
  -17.6337   11.7491  -20.8887 C   0  0  0  0  0  0  0  0  0  0  0  0
  -19.6705   12.9650  -18.0126 N   0  0  0  0  0  0  0  0  0  0  0  0
  -19.4242   13.9937  -17.1232 C   0  0  0  0  0  0  0  0  0  0  0  0
  -18.2772   14.3649  -16.8283 O   0  0  0  0  0  0  0  0  0  0  0  0
  -20.6963   12.7261  -18.1935 H   0  0  0  0  0  0  0  0  0  0  0  0
  -20.5252   14.7260  -16.4589 C   0  0  0  0  0  0  0  0  0  0  0  0
  -20.9713   15.9904  -16.7109 C   0  0  0  0  0  0  0  0  0  0  0  0
  -22.0176   16.2803  -15.8617 C   0  0  0  0  0  0  0  0  0  0  0  0
  -22.1789   15.1785  -15.1137 N   0  0  0  0  0  0  0  0  0  0  0  0
  -21.2933   14.2526  -15.4662 N   0  0  0  0  0  0  0  0  0  0  0  0
  -21.2220   13.3133  -15.0290 H   0  0  0  0  0  0  0  0  0  0  0  0
  -22.8154   17.5196  -15.7619 C   0  0  0  0  0  0  0  0  0  0  0  0
  -22.3466   18.5599  -14.7151 C   0  0  0  0  0  0  0  0  0  0  0  0
  -22.2228   18.8063  -16.1609 C   0  0  0  0  0  0  0  0  0  0  0  0
  -17.3498   12.0357  -22.2181 N   0  0  0  0  0  0  0  0  0  0  0  0
  -17.6453   11.2284  -22.9023 H   0  0  0  0  0  0  0  0  0  0  0  0
  -16.7630   13.1303  -22.8906 C   0  0  0  0  0  0  0  0  0  0  0  0
  -15.9598   12.9663  -24.0054 N   0  0  0  0  0  0  0  0  0  0  0  0
  -15.6549   14.1684  -24.4565 C   0  0  0  0  0  0  0  0  0  0  0  0
  -14.8832   14.6128  -25.5362 C   0  0  0  0  0  0  0  0  0  0  0  0
  -14.7288   15.9542  -25.7791 C   0  0  0  0  0  0  0  0  0  0  0  0
  -15.3290   16.8897  -24.9667 C   0  0  0  0  0  0  0  0  0  0  0  0
  -16.0941   16.4764  -23.8967 C   0  0  0  0  0  0  0  0  0  0  0  0
  -16.2413   15.1157  -23.6635 C   0  0  0  0  0  0  0  0  0  0  0  0
  -16.9285   14.4256  -22.6955 N   0  0  0  0  0  0  0  0  0  0  0  0
  -17.7305   15.1750  -21.7529 C   0  0  0  0  0  0  0  0  0  0  0  0
  -17.2326   15.6238  -20.5448 C   0  0  0  0  0  0  0  0  0  0  0  0
  -17.9840   16.3735  -19.6662 C   0  0  0  0  0  0  0  0  0  0  0  0
  -17.4570   16.8283  -18.4258 N   0  0  0  0  0  0  0  0  0  0  0  0
  -19.2583   16.6683  -20.0249 N   0  0  0  0  0  0  0  0  0  0  0  0
  -19.7602   16.2421  -21.1931 C   0  0  0  0  0  0  0  0  0  0  0  0
  -19.0001   15.5029  -22.0455 N   0  0  0  0  0  0  0  0  0  0  0  0
  -18.0613   16.9039  -17.5915 H   0  0  0  0  0  0  0  0  0  0  0  0
  -16.4558   17.0997  -18.3096 H   0  0  0  0  0  0  0  0  0  0  0  0
  1  2  1  0  0  0
  2  3  2  0  0  0
  3  4  1  0  0  0
  4  5  2  0  0  0
  5  8  1  0  0  0
  8  9  1  0  0  0
  9 10  2  0  0  0
  9 12  1  0  0  0
 12 13  2  0  0  0
 13 14  1  0  0  0
 14 15  2  0  0  0
 15 16  1  0  0  0
 14 18  1  0  0  0
 18 19  1  0  0  0
 19 20  1  0  0  0
  5  6  1  0  0  0
  6  7  2  0  0  0
  7 21  1  0  0  0
 21 23  1  0  0  0
 23 24  2  0  0  0
 24 25  1  0  0  0
 25 26  2  0  0  0
 26 27  1  0  0  0
 27 28  2  0  0  0
 28 29  1  0  0  0
 29 30  2  0  0  0
 30 31  1  0  0  0
 31 32  1  0  0  0
 32 33  2  0  0  0
 33 34  1  0  0  0
 34 35  1  0  0  0
 34 36  2  0  0  0
 36 37  1  0  0  0
 37 38  2  0  0  0
  7  2  1  0  0  0
 31 23  1  0  0  0
 38 32  1  0  0  0
 16 12  1  0  0  0
 20 18  1  0  0  0
 30 25  1  0  0  0
  8 11  1  0  0  0
 16 17  1  0  0  0
 21 22  1  0  0  0
 35 39  1  0  0  0
 35 40  1  0  0  0
M  END
> <minimizedAffinity>
-9.37587

> <CNNscore>
0.1719072461

> <CNNaffinity>
7.1287879944

> <CNN_VS>
1.2254903316

> <CNNaffinity_variance>
0.1442798078

$$$$
[H]c1nc(N([H])[H])c([H])c(-n2c(N([H])c3c([H])c(N([H])C(=O)c4c([H])c(C5([H])C([H])([H])C5([H])[H])nn4[H])c([H])c([H])c3C([H])([H])[H])nc3c([H])c([H])c([H])c([H])c32)n1


 40 45  0  0  0  0  0  0  0  0999 V2000
  -15.6522   11.1029  -21.9839 C   0  0  0  0  0  0  0  0  0  0  0  0
  -16.5835   11.2126  -20.8181 C   0  0  0  0  0  0  0  0  0  0  0  0
  -16.5385   10.3464  -19.7663 C   0  0  0  0  0  0  0  0  0  0  0  0
  -17.3845   10.4147  -18.6720 C   0  0  0  0  0  0  0  0  0  0  0  0
  -18.3422   11.3943  -18.5940 C   0  0  0  0  0  0  0  0  0  0  0  0
  -18.3805   12.2829  -19.6818 C   0  0  0  0  0  0  0  0  0  0  0  0
  -17.5551   12.2376  -20.7799 C   0  0  0  0  0  0  0  0  0  0  0  0
  -19.2711   11.5485  -17.5427 N   0  0  0  0  0  0  0  0  0  0  0  0
  -19.7818   10.5513  -16.7336 C   0  0  0  0  0  0  0  0  0  0  0  0
  -19.4646    9.3580  -16.8588 O   0  0  0  0  0  0  0  0  0  0  0  0
  -19.6131   12.5422  -17.3488 H   0  0  0  0  0  0  0  0  0  0  0  0
  -20.7502   10.8470  -15.6545 C   0  0  0  0  0  0  0  0  0  0  0  0
  -20.5184   10.9366  -14.3130 C   0  0  0  0  0  0  0  0  0  0  0  0
  -21.7000   11.2306  -13.6669 C   0  0  0  0  0  0  0  0  0  0  0  0
  -22.6213   11.3118  -14.6385 N   0  0  0  0  0  0  0  0  0  0  0  0
  -22.0600   11.0843  -15.8213 N   0  0  0  0  0  0  0  0  0  0  0  0
  -22.5724   11.0930  -16.7246 H   0  0  0  0  0  0  0  0  0  0  0  0
  -21.9448   11.4227  -12.2227 C   0  0  0  0  0  0  0  0  0  0  0  0
  -21.6978   10.1954  -11.3115 C   0  0  0  0  0  0  0  0  0  0  0  0
  -20.8186   11.3753  -11.2764 C   0  0  0  0  0  0  0  0  0  0  0  0
  -17.5089   13.1696  -21.8092 N   0  0  0  0  0  0  0  0  0  0  0  0
  -16.8121   12.8877  -22.6105 H   0  0  0  0  0  0  0  0  0  0  0  0
  -18.1532   14.4016  -22.0578 C   0  0  0  0  0  0  0  0  0  0  0  0
  -18.9434   15.0254  -21.1085 N   0  0  0  0  0  0  0  0  0  0  0  0
  -19.3127   16.1920  -21.6025 C   0  0  0  0  0  0  0  0  0  0  0  0
  -20.1049   17.2309  -21.1005 C   0  0  0  0  0  0  0  0  0  0  0  0
  -20.3321   18.3594  -21.8469 C   0  0  0  0  0  0  0  0  0  0  0  0
  -19.7863   18.4929  -23.1037 C   0  0  0  0  0  0  0  0  0  0  0  0
  -19.0023   17.4829  -23.6200 C   0  0  0  0  0  0  0  0  0  0  0  0
  -18.7812   16.3471  -22.8529 C   0  0  0  0  0  0  0  0  0  0  0  0
  -18.0596   15.2055  -23.1010 N   0  0  0  0  0  0  0  0  0  0  0  0
  -17.3024   15.1224  -24.3311 C   0  0  0  0  0  0  0  0  0  0  0  0
  -16.1817   15.8949  -24.5680 C   0  0  0  0  0  0  0  0  0  0  0  0
  -15.4365   15.7853  -25.7218 C   0  0  0  0  0  0  0  0  0  0  0  0
  -14.2848   16.5880  -25.9511 N   0  0  0  0  0  0  0  0  0  0  0  0
  -15.8401   14.8769  -26.6445 N   0  0  0  0  0  0  0  0  0  0  0  0
  -16.9251   14.1176  -26.4335 C   0  0  0  0  0  0  0  0  0  0  0  0
  -17.6461   14.2427  -25.2866 N   0  0  0  0  0  0  0  0  0  0  0  0
  -14.0443   16.9062  -26.9039 H   0  0  0  0  0  0  0  0  0  0  0  0
  -13.6466   16.8833  -25.1798 H   0  0  0  0  0  0  0  0  0  0  0  0
  1  2  1  0  0  0
  2  3  2  0  0  0
  3  4  1  0  0  0
  4  5  2  0  0  0
  5  8  1  0  0  0
  8  9  1  0  0  0
  9 10  2  0  0  0
  9 12  1  0  0  0
 12 13  2  0  0  0
 13 14  1  0  0  0
 14 15  2  0  0  0
 15 16  1  0  0  0
 14 18  1  0  0  0
 18 19  1  0  0  0
 19 20  1  0  0  0
  5  6  1  0  0  0
  6  7  2  0  0  0
  7 21  1  0  0  0
 21 23  1  0  0  0
 23 24  2  0  0  0
 24 25  1  0  0  0
 25 26  2  0  0  0
 26 27  1  0  0  0
 27 28  2  0  0  0
 28 29  1  0  0  0
 29 30  2  0  0  0
 30 31  1  0  0  0
 31 32  1  0  0  0
 32 33  2  0  0  0
 33 34  1  0  0  0
 34 35  1  0  0  0
 34 36  2  0  0  0
 36 37  1  0  0  0
 37 38  2  0  0  0
  7  2  1  0  0  0
 31 23  1  0  0  0
 38 32  1  0  0  0
 16 12  1  0  0  0
 20 18  1  0  0  0
 30 25  1  0  0  0
  8 11  1  0  0  0
 16 17  1  0  0  0
 21 22  1  0  0  0
 35 39  1  0  0  0
 35 40  1  0  0  0
M  END
> <minimizedAffinity>
-9.41133

> <CNNscore>
0.1570481360

> <CNNaffinity>
6.7057237625

> <CNN_VS>
1.0531214476

> <CNNaffinity_variance>
0.2435735166

$$$$
[H]c1nc(N([H])[H])c([H])c(-n2c(N([H])c3c([H])c(N([H])C(=O)c4c([H])c(C5([H])C([H])([H])C5([H])[H])nn4[H])c([H])c([H])c3C([H])([H])[H])nc3c([H])c([H])c([H])c([H])c32)n1


 40 45  0  0  0  0  0  0  0  0999 V2000
  -15.5910   10.2639  -21.2607 C   0  0  0  0  0  0  0  0  0  0  0  0
  -16.5615   10.8972  -20.3143 C   0  0  0  0  0  0  0  0  0  0  0  0
  -16.5423   10.6445  -18.9748 C   0  0  0  0  0  0  0  0  0  0  0  0
  -17.4247   11.2093  -18.0690 C   0  0  0  0  0  0  0  0  0  0  0  0
  -18.3945   12.0816  -18.4951 C   0  0  0  0  0  0  0  0  0  0  0  0
  -18.4059   12.3368  -19.8769 C   0  0  0  0  0  0  0  0  0  0  0  0
  -17.5442   11.7898  -20.7974 C   0  0  0  0  0  0  0  0  0  0  0  0
  -19.3592   12.6990  -17.6704 N   0  0  0  0  0  0  0  0  0  0  0  0
  -20.2844   12.0683  -16.8604 C   0  0  0  0  0  0  0  0  0  0  0  0
  -20.3698   10.8331  -16.7756 O   0  0  0  0  0  0  0  0  0  0  0  0
  -19.3736   13.7675  -17.6688 H   0  0  0  0  0  0  0  0  0  0  0  0
  -21.2426   12.8351  -16.0335 C   0  0  0  0  0  0  0  0  0  0  0  0
  -21.6899   12.5502  -14.7764 C   0  0  0  0  0  0  0  0  0  0  0  0
  -22.5751   13.5284  -14.3772 C   0  0  0  0  0  0  0  0  0  0  0  0
  -22.6415   14.3845  -15.4079 N   0  0  0  0  0  0  0  0  0  0  0  0
  -21.8506   13.9752  -16.3941 N   0  0  0  0  0  0  0  0  0  0  0  0
  -21.7341   14.4743  -17.2974 H   0  0  0  0  0  0  0  0  0  0  0  0
  -23.3128   13.6481  -13.1028 C   0  0  0  0  0  0  0  0  0  0  0  0
  -23.4692   15.0771  -12.5273 C   0  0  0  0  0  0  0  0  0  0  0  0
  -24.6156   14.3320  -13.0723 C   0  0  0  0  0  0  0  0  0  0  0  0
  -17.4736   12.1133  -22.1467 N   0  0  0  0  0  0  0  0  0  0  0  0
  -18.0159   11.4029  -22.7857 H   0  0  0  0  0  0  0  0  0  0  0  0
  -16.8584   13.1482  -22.8850 C   0  0  0  0  0  0  0  0  0  0  0  0
  -16.1677   12.9062  -24.0594 N   0  0  0  0  0  0  0  0  0  0  0  0
  -15.8052   14.0741  -24.5556 C   0  0  0  0  0  0  0  0  0  0  0  0
  -15.0934   14.4414  -25.7034 C   0  0  0  0  0  0  0  0  0  0  0  0
  -14.8516   15.7627  -25.9823 C   0  0  0  0  0  0  0  0  0  0  0  0
  -15.3035   16.7534  -25.1399 C   0  0  0  0  0  0  0  0  0  0  0  0
  -16.0070   16.4165  -24.0029 C   0  0  0  0  0  0  0  0  0  0  0  0
  -16.2441   15.0752  -23.7340 C   0  0  0  0  0  0  0  0  0  0  0  0
  -16.9012   14.4548  -22.7002 N   0  0  0  0  0  0  0  0  0  0  0  0
  -17.5577   15.2782  -21.7079 C   0  0  0  0  0  0  0  0  0  0  0  0
  -18.8926   15.6240  -21.7936 C   0  0  0  0  0  0  0  0  0  0  0  0
  -19.5276   16.3728  -20.8270 C   0  0  0  0  0  0  0  0  0  0  0  0
  -20.9030   16.7208  -20.9297 N   0  0  0  0  0  0  0  0  0  0  0  0
  -18.7916   16.7734  -19.7606 N   0  0  0  0  0  0  0  0  0  0  0  0
  -17.4946   16.4482  -19.6588 C   0  0  0  0  0  0  0  0  0  0  0  0
  -16.8879   15.7077  -20.6254 N   0  0  0  0  0  0  0  0  0  0  0  0
  -21.2467   17.6261  -20.5702 H   0  0  0  0  0  0  0  0  0  0  0  0
  -21.6090   16.0870  -21.3647 H   0  0  0  0  0  0  0  0  0  0  0  0
  1  2  1  0  0  0
  2  3  2  0  0  0
  3  4  1  0  0  0
  4  5  2  0  0  0
  5  8  1  0  0  0
  8  9  1  0  0  0
  9 10  2  0  0  0
  9 12  1  0  0  0
 12 13  2  0  0  0
 13 14  1  0  0  0
 14 15  2  0  0  0
 15 16  1  0  0  0
 14 18  1  0  0  0
 18 19  1  0  0  0
 19 20  1  0  0  0
  5  6  1  0  0  0
  6  7  2  0  0  0
  7 21  1  0  0  0
 21 23  1  0  0  0
 23 24  2  0  0  0
 24 25  1  0  0  0
 25 26  2  0  0  0
 26 27  1  0  0  0
 27 28  2  0  0  0
 28 29  1  0  0  0
 29 30  2  0  0  0
 30 31  1  0  0  0
 31 32  1  0  0  0
 32 33  2  0  0  0
 33 34  1  0  0  0
 34 35  1  0  0  0
 34 36  2  0  0  0
 36 37  1  0  0  0
 37 38  2  0  0  0
  7  2  1  0  0  0
 31 23  1  0  0  0
 38 32  1  0  0  0
 16 12  1  0  0  0
 20 18  1  0  0  0
 30 25  1  0  0  0
  8 11  1  0  0  0
 16 17  1  0  0  0
 21 22  1  0  0  0
 35 39  1  0  0  0
 35 40  1  0  0  0
M  END
> <minimizedAffinity>
-8.96121

> <CNNscore>
0.0762910098

> <CNNaffinity>
6.5552277565

> <CNN_VS>
0.5001049638

> <CNNaffinity_variance>
0.2268935144

$$$$
[H]c1nc(N([H])[H])c([H])c(-n2c(N([H])c3c([H])c(N([H])C(=O)c4c([H])c(C5([H])C([H])([H])C5([H])[H])nn4[H])c([H])c([H])c3C([H])([H])[H])nc3c([H])c([H])c([H])c([H])c32)n1


 40 45  0  0  0  0  0  0  0  0999 V2000
  -22.9053   16.1560  -16.6458 C   0  0  0  0  0  0  0  0  0  0  0  0
  -22.1138   16.2691  -17.9104 C   0  0  0  0  0  0  0  0  0  0  0  0
  -22.5117   17.0556  -18.9504 C   0  0  0  0  0  0  0  0  0  0  0  0
  -21.8075   17.1838  -20.1360 C   0  0  0  0  0  0  0  0  0  0  0  0
  -20.6333   16.4994  -20.3245 C   0  0  0  0  0  0  0  0  0  0  0  0
  -20.2305   15.6922  -19.2470 C   0  0  0  0  0  0  0  0  0  0  0  0
  -20.9097   15.5456  -18.0611 C   0  0  0  0  0  0  0  0  0  0  0  0
  -19.8446   16.5343  -21.4943 N   0  0  0  0  0  0  0  0  0  0  0  0
  -18.8057   17.4033  -21.7691 C   0  0  0  0  0  0  0  0  0  0  0  0
  -18.4460   18.2897  -20.9783 O   0  0  0  0  0  0  0  0  0  0  0  0
  -20.0719   15.8096  -22.2461 H   0  0  0  0  0  0  0  0  0  0  0  0
  -18.0479   17.3307  -23.0380 C   0  0  0  0  0  0  0  0  0  0  0  0
  -17.5984   16.2202  -23.6909 C   0  0  0  0  0  0  0  0  0  0  0  0
  -16.9386   16.6043  -24.8385 C   0  0  0  0  0  0  0  0  0  0  0  0
  -17.0057   17.9441  -24.8510 N   0  0  0  0  0  0  0  0  0  0  0  0
  -17.6645   18.3790  -23.7820 N   0  0  0  0  0  0  0  0  0  0  0  0
  -17.8449   19.3800  -23.5720 H   0  0  0  0  0  0  0  0  0  0  0  0
  -16.2850   15.7602  -25.8596 C   0  0  0  0  0  0  0  0  0  0  0  0
  -14.7424   15.6517  -25.7812 C   0  0  0  0  0  0  0  0  0  0  0  0
  -15.6162   14.5119  -25.4591 C   0  0  0  0  0  0  0  0  0  0  0  0
  -20.4719   14.8383  -16.9483 N   0  0  0  0  0  0  0  0  0  0  0  0
  -19.9432   15.4698  -16.2211 H   0  0  0  0  0  0  0  0  0  0  0  0
  -20.5493   13.4883  -16.5407 C   0  0  0  0  0  0  0  0  0  0  0  0
  -21.4677   13.0530  -15.6017 N   0  0  0  0  0  0  0  0  0  0  0  0
  -21.3571   11.7408  -15.5155 C   0  0  0  0  0  0  0  0  0  0  0  0
  -22.0167   10.7783  -14.7425 C   0  0  0  0  0  0  0  0  0  0  0  0
  -21.6930    9.4499  -14.8556 C   0  0  0  0  0  0  0  0  0  0  0  0
  -20.7139    9.0367  -15.7308 C   0  0  0  0  0  0  0  0  0  0  0  0
  -20.0499    9.9662  -16.5031 C   0  0  0  0  0  0  0  0  0  0  0  0
  -20.3884   11.3068  -16.3777 C   0  0  0  0  0  0  0  0  0  0  0  0
  -19.9080   12.4309  -17.0031 N   0  0  0  0  0  0  0  0  0  0  0  0
  -18.9206   12.2693  -18.0483 C   0  0  0  0  0  0  0  0  0  0  0  0
  -18.2109   11.0974  -18.2261 C   0  0  0  0  0  0  0  0  0  0  0  0
  -17.3014   10.9295  -19.2474 C   0  0  0  0  0  0  0  0  0  0  0  0
  -16.5783    9.7164  -19.4173 N   0  0  0  0  0  0  0  0  0  0  0  0
  -17.1140   11.9699  -20.0970 N   0  0  0  0  0  0  0  0  0  0  0  0
  -17.7931   13.1158  -19.9415 C   0  0  0  0  0  0  0  0  0  0  0  0
  -18.6865   13.2596  -18.9257 N   0  0  0  0  0  0  0  0  0  0  0  0
  -15.6086    9.7253  -19.7729 H   0  0  0  0  0  0  0  0  0  0  0  0
  -16.9904    8.7839  -19.1936 H   0  0  0  0  0  0  0  0  0  0  0  0
  1  2  1  0  0  0
  2  3  2  0  0  0
  3  4  1  0  0  0
  4  5  2  0  0  0
  5  8  1  0  0  0
  8  9  1  0  0  0
  9 10  2  0  0  0
  9 12  1  0  0  0
 12 13  2  0  0  0
 13 14  1  0  0  0
 14 15  2  0  0  0
 15 16  1  0  0  0
 14 18  1  0  0  0
 18 19  1  0  0  0
 19 20  1  0  0  0
  5  6  1  0  0  0
  6  7  2  0  0  0
  7 21  1  0  0  0
 21 23  1  0  0  0
 23 24  2  0  0  0
 24 25  1  0  0  0
 25 26  2  0  0  0
 26 27  1  0  0  0
 27 28  2  0  0  0
 28 29  1  0  0  0
 29 30  2  0  0  0
 30 31  1  0  0  0
 31 32  1  0  0  0
 32 33  2  0  0  0
 33 34  1  0  0  0
 34 35  1  0  0  0
 34 36  2  0  0  0
 36 37  1  0  0  0
 37 38  2  0  0  0
  7  2  1  0  0  0
 31 23  1  0  0  0
 38 32  1  0  0  0
 16 12  1  0  0  0
 20 18  1  0  0  0
 30 25  1  0  0  0
  8 11  1  0  0  0
 16 17  1  0  0  0
 21 22  1  0  0  0
 35 39  1  0  0  0
 35 40  1  0  0  0
M  END
> <minimizedAffinity>
-8.17789

> <CNNscore>
0.0685679317

> <CNNaffinity>
6.8472013474

> <CNN_VS>
0.4694984257

> <CNNaffinity_variance>
0.0983567014

$$$$
[H]c1nc(N([H])[H])c([H])c(-n2c(N([H])c3c([H])c(N([H])C(=O)c4c([H])c(C5([H])C([H])([H])C5([H])[H])nn4[H])c([H])c([H])c3C([H])([H])[H])nc3c([H])c([H])c([H])c([H])c32)n1


 40 45  0  0  0  0  0  0  0  0999 V2000
  -16.0760   10.6698  -20.6915 C   0  0  0  0  0  0  0  0  0  0  0  0
  -17.1711   10.8821  -19.6943 C   0  0  0  0  0  0  0  0  0  0  0  0
  -17.4706    9.9611  -18.7349 C   0  0  0  0  0  0  0  0  0  0  0  0
  -18.4772   10.1211  -17.7973 C   0  0  0  0  0  0  0  0  0  0  0  0
  -19.2474   11.2567  -17.7914 C   0  0  0  0  0  0  0  0  0  0  0  0
  -18.9308   12.2007  -18.7830 C   0  0  0  0  0  0  0  0  0  0  0  0
  -17.9394   12.0672  -19.7256 C   0  0  0  0  0  0  0  0  0  0  0  0
  -20.3113   11.5192  -16.9021 N   0  0  0  0  0  0  0  0  0  0  0  0
  -20.4497   11.0459  -15.6111 C   0  0  0  0  0  0  0  0  0  0  0  0
  -19.6139   10.2997  -15.0772 O   0  0  0  0  0  0  0  0  0  0  0  0
  -21.0910   12.1544  -17.2634 H   0  0  0  0  0  0  0  0  0  0  0  0
  -21.6167   11.4031  -14.7742 C   0  0  0  0  0  0  0  0  0  0  0  0
  -22.0848   12.6466  -14.4645 C   0  0  0  0  0  0  0  0  0  0  0  0
  -23.1956   12.5255  -13.6574 C   0  0  0  0  0  0  0  0  0  0  0  0
  -23.3724   11.2052  -13.4984 N   0  0  0  0  0  0  0  0  0  0  0  0
  -22.4354   10.5352  -14.1610 N   0  0  0  0  0  0  0  0  0  0  0  0
  -22.3641    9.4995  -14.1881 H   0  0  0  0  0  0  0  0  0  0  0  0
  -24.0378   13.5889  -13.0724 C   0  0  0  0  0  0  0  0  0  0  0  0
  -23.5541   14.1930  -11.7312 C   0  0  0  0  0  0  0  0  0  0  0  0
  -23.5235   14.9649  -12.9841 C   0  0  0  0  0  0  0  0  0  0  0  0
  -17.5442   13.0343  -20.6415 N   0  0  0  0  0  0  0  0  0  0  0  0
  -16.5166   12.8877  -21.0017 H   0  0  0  0  0  0  0  0  0  0  0  0
  -18.1638   14.1676  -21.2129 C   0  0  0  0  0  0  0  0  0  0  0  0
  -18.9722   15.0158  -20.4769 N   0  0  0  0  0  0  0  0  0  0  0  0
  -19.3108   16.0222  -21.2605 C   0  0  0  0  0  0  0  0  0  0  0  0
  -20.1026   17.1591  -21.0619 C   0  0  0  0  0  0  0  0  0  0  0  0
  -20.2924   18.0639  -22.0756 C   0  0  0  0  0  0  0  0  0  0  0  0
  -19.7086   17.8724  -23.3076 C   0  0  0  0  0  0  0  0  0  0  0  0
  -18.9243   16.7599  -23.5276 C   0  0  0  0  0  0  0  0  0  0  0  0
  -18.7413   15.8532  -22.4923 C   0  0  0  0  0  0  0  0  0  0  0  0
  -18.0289   14.6814  -22.4216 N   0  0  0  0  0  0  0  0  0  0  0  0
  -17.2377   14.2858  -23.5666 C   0  0  0  0  0  0  0  0  0  0  0  0
  -17.6863   13.3719  -24.5006 C   0  0  0  0  0  0  0  0  0  0  0  0
  -16.9502   13.0272  -25.6131 C   0  0  0  0  0  0  0  0  0  0  0  0
  -17.4260   12.0843  -26.5659 N   0  0  0  0  0  0  0  0  0  0  0  0
  -15.7420   13.6220  -25.7740 N   0  0  0  0  0  0  0  0  0  0  0  0
  -15.2886   14.5116  -24.8788 C   0  0  0  0  0  0  0  0  0  0  0  0
  -16.0325   14.8372  -23.7873 N   0  0  0  0  0  0  0  0  0  0  0  0
  -16.7718   11.4521  -27.0550 H   0  0  0  0  0  0  0  0  0  0  0  0
  -18.4378   11.9941  -26.8059 H   0  0  0  0  0  0  0  0  0  0  0  0
  1  2  1  0  0  0
  2  3  2  0  0  0
  3  4  1  0  0  0
  4  5  2  0  0  0
  5  8  1  0  0  0
  8  9  1  0  0  0
  9 10  2  0  0  0
  9 12  1  0  0  0
 12 13  2  0  0  0
 13 14  1  0  0  0
 14 15  2  0  0  0
 15 16  1  0  0  0
 14 18  1  0  0  0
 18 19  1  0  0  0
 19 20  1  0  0  0
  5  6  1  0  0  0
  6  7  2  0  0  0
  7 21  1  0  0  0
 21 23  1  0  0  0
 23 24  2  0  0  0
 24 25  1  0  0  0
 25 26  2  0  0  0
 26 27  1  0  0  0
 27 28  2  0  0  0
 28 29  1  0  0  0
 29 30  2  0  0  0
 30 31  1  0  0  0
 31 32  1  0  0  0
 32 33  2  0  0  0
 33 34  1  0  0  0
 34 35  1  0  0  0
 34 36  2  0  0  0
 36 37  1  0  0  0
 37 38  2  0  0  0
  7  2  1  0  0  0
 31 23  1  0  0  0
 38 32  1  0  0  0
 16 12  1  0  0  0
 20 18  1  0  0  0
 30 25  1  0  0  0
  8 11  1  0  0  0
 16 17  1  0  0  0
 21 22  1  0  0  0
 35 39  1  0  0  0
 35 40  1  0  0  0
M  END
> <minimizedAffinity>
-8.89642

> <CNNscore>
0.0635846481

> <CNNaffinity>
6.5349211693

> <CNN_VS>
0.4155206680

> <CNNaffinity_variance>
0.1337923855

$$$$
[H]c1nc(N([H])[H])c([H])c(-n2c(N([H])c3c([H])c(N([H])C(=O)c4c([H])c(C5([H])C([H])([H])C5([H])[H])nn4[H])c([H])c([H])c3C([H])([H])[H])nc3c([H])c([H])c([H])c([H])c32)n1


 40 45  0  0  0  0  0  0  0  0999 V2000
  -18.2812    9.9422  -17.7851 C   0  0  0  0  0  0  0  0  0  0  0  0
  -17.7275   10.5674  -19.0264 C   0  0  0  0  0  0  0  0  0  0  0  0
  -16.8963    9.8945  -19.8719 C   0  0  0  0  0  0  0  0  0  0  0  0
  -16.3628   10.4399  -21.0277 C   0  0  0  0  0  0  0  0  0  0  0  0
  -16.6579   11.7308  -21.3875 C   0  0  0  0  0  0  0  0  0  0  0  0
  -17.5160   12.4160  -20.5108 C   0  0  0  0  0  0  0  0  0  0  0  0
  -18.0582   11.9003  -19.3579 C   0  0  0  0  0  0  0  0  0  0  0  0
  -16.1571   12.3976  -22.5261 N   0  0  0  0  0  0  0  0  0  0  0  0
  -16.1814   13.7579  -22.7687 C   0  0  0  0  0  0  0  0  0  0  0  0
  -16.6759   14.5722  -21.9733 O   0  0  0  0  0  0  0  0  0  0  0  0
  -15.7079   11.7867  -23.2791 H   0  0  0  0  0  0  0  0  0  0  0  0
  -15.6126   14.3360  -24.0065 C   0  0  0  0  0  0  0  0  0  0  0  0
  -16.2752   14.9019  -25.0563 C   0  0  0  0  0  0  0  0  0  0  0  0
  -15.3606   15.3124  -26.0022 C   0  0  0  0  0  0  0  0  0  0  0  0
  -14.1617   14.9829  -25.4984 N   0  0  0  0  0  0  0  0  0  0  0  0
  -14.3081   14.4022  -24.3121 N   0  0  0  0  0  0  0  0  0  0  0  0
  -13.5219   14.0591  -23.7266 H   0  0  0  0  0  0  0  0  0  0  0  0
  -15.6023   15.9741  -27.3007 C   0  0  0  0  0  0  0  0  0  0  0  0
  -15.2765   15.1466  -28.5684 C   0  0  0  0  0  0  0  0  0  0  0  0
  -16.6613   15.4737  -28.1918 C   0  0  0  0  0  0  0  0  0  0  0  0
  -18.9904   12.5261  -18.5397 N   0  0  0  0  0  0  0  0  0  0  0  0
  -19.1271   12.0138  -17.5774 H   0  0  0  0  0  0  0  0  0  0  0  0
  -19.8066   13.6717  -18.6661 C   0  0  0  0  0  0  0  0  0  0  0  0
  -19.8106   14.4519  -19.8089 N   0  0  0  0  0  0  0  0  0  0  0  0
  -20.7417   15.3748  -19.6574 C   0  0  0  0  0  0  0  0  0  0  0  0
  -21.1860   16.4220  -20.4728 C   0  0  0  0  0  0  0  0  0  0  0  0
  -22.1954   17.2522  -20.0555 C   0  0  0  0  0  0  0  0  0  0  0  0
  -22.7914   17.0724  -18.8275 C   0  0  0  0  0  0  0  0  0  0  0  0
  -22.3710   16.0476  -18.0064 C   0  0  0  0  0  0  0  0  0  0  0  0
  -21.3486   15.2157  -18.4423 C   0  0  0  0  0  0  0  0  0  0  0  0
  -20.7365   14.1372  -17.8526 N   0  0  0  0  0  0  0  0  0  0  0  0
  -21.2375   13.6729  -16.5771 C   0  0  0  0  0  0  0  0  0  0  0  0
  -21.7862   14.5255  -15.6386 C   0  0  0  0  0  0  0  0  0  0  0  0
  -22.3015   14.0775  -14.4419 C   0  0  0  0  0  0  0  0  0  0  0  0
  -22.8633   14.9681  -13.4857 N   0  0  0  0  0  0  0  0  0  0  0  0
  -22.2560   12.7437  -14.2002 N   0  0  0  0  0  0  0  0  0  0  0  0
  -21.7275   11.8995  -15.0982 C   0  0  0  0  0  0  0  0  0  0  0  0
  -21.2243   12.3641  -16.2737 N   0  0  0  0  0  0  0  0  0  0  0  0
  -22.7673   14.7851  -12.4736 H   0  0  0  0  0  0  0  0  0  0  0  0
  -23.3863   15.8280  -13.7623 H   0  0  0  0  0  0  0  0  0  0  0  0
  1  2  1  0  0  0
  2  3  2  0  0  0
  3  4  1  0  0  0
  4  5  2  0  0  0
  5  8  1  0  0  0
  8  9  1  0  0  0
  9 10  2  0  0  0
  9 12  1  0  0  0
 12 13  2  0  0  0
 13 14  1  0  0  0
 14 15  2  0  0  0
 15 16  1  0  0  0
 14 18  1  0  0  0
 18 19  1  0  0  0
 19 20  1  0  0  0
  5  6  1  0  0  0
  6  7  2  0  0  0
  7 21  1  0  0  0
 21 23  1  0  0  0
 23 24  2  0  0  0
 24 25  1  0  0  0
 25 26  2  0  0  0
 26 27  1  0  0  0
 27 28  2  0  0  0
 28 29  1  0  0  0
 29 30  2  0  0  0
 30 31  1  0  0  0
 31 32  1  0  0  0
 32 33  2  0  0  0
 33 34  1  0  0  0
 34 35  1  0  0  0
 34 36  2  0  0  0
 36 37  1  0  0  0
 37 38  2  0  0  0
  7  2  1  0  0  0
 31 23  1  0  0  0
 38 32  1  0  0  0
 16 12  1  0  0  0
 20 18  1  0  0  0
 30 25  1  0  0  0
  8 11  1  0  0  0
 16 17  1  0  0  0
 21 22  1  0  0  0
 35 39  1  0  0  0
 35 40  1  0  0  0
M  END
> <minimizedAffinity>
-8.80645

> <CNNscore>
0.0623556674

> <CNNaffinity>
6.5715551376

> <CNN_VS>
0.4097737074

> <CNNaffinity_variance>
0.1370539069

$$$$
[H]c1nc(N([H])[H])c([H])c(-n2c(N([H])c3c([H])c(N([H])C(=O)c4c([H])c(C5([H])C([H])([H])C5([H])[H])nn4[H])c([H])c([H])c3C([H])([H])[H])nc3c([H])c([H])c([H])c([H])c32)n1


 40 45  0  0  0  0  0  0  0  0999 V2000
  -19.2721   16.4154  -16.1118 C   0  0  0  0  0  0  0  0  0  0  0  0
  -19.8253   16.9595  -17.3910 C   0  0  0  0  0  0  0  0  0  0  0  0
  -19.7127   18.2747  -17.7317 C   0  0  0  0  0  0  0  0  0  0  0  0
  -20.2134   18.8149  -18.9046 C   0  0  0  0  0  0  0  0  0  0  0  0
  -20.8699   18.0208  -19.8107 C   0  0  0  0  0  0  0  0  0  0  0  0
  -20.9802   16.6667  -19.4516 C   0  0  0  0  0  0  0  0  0  0  0  0
  -20.4946   16.1048  -18.2951 C   0  0  0  0  0  0  0  0  0  0  0  0
  -21.4398   18.4625  -21.0240 N   0  0  0  0  0  0  0  0  0  0  0  0
  -22.7640   18.7881  -21.2488 C   0  0  0  0  0  0  0  0  0  0  0  0
  -23.6317   18.7161  -20.3643 O   0  0  0  0  0  0  0  0  0  0  0  0
  -20.7768   18.5595  -21.8564 H   0  0  0  0  0  0  0  0  0  0  0  0
  -23.2361   19.2485  -22.5735 C   0  0  0  0  0  0  0  0  0  0  0  0
  -23.4012   18.5160  -23.7125 C   0  0  0  0  0  0  0  0  0  0  0  0
  -23.8611   19.3385  -24.7185 C   0  0  0  0  0  0  0  0  0  0  0  0
  -23.9630   20.5539  -24.1599 N   0  0  0  0  0  0  0  0  0  0  0  0
  -23.5922   20.5038  -22.8848 N   0  0  0  0  0  0  0  0  0  0  0  0
  -23.5857   21.3210  -22.2439 H   0  0  0  0  0  0  0  0  0  0  0  0
  -24.1841   18.9992  -26.1196 C   0  0  0  0  0  0  0  0  0  0  0  0
  -23.0333   19.1384  -27.1463 C   0  0  0  0  0  0  0  0  0  0  0  0
  -23.5628   17.8235  -26.7502 C   0  0  0  0  0  0  0  0  0  0  0  0
  -20.5007   14.7526  -17.9759 N   0  0  0  0  0  0  0  0  0  0  0  0
  -21.2755   14.4898  -17.2425 H   0  0  0  0  0  0  0  0  0  0  0  0
  -19.7329   13.6377  -18.3784 C   0  0  0  0  0  0  0  0  0  0  0  0
  -18.8749   13.6859  -19.4629 N   0  0  0  0  0  0  0  0  0  0  0  0
  -18.2353   12.5328  -19.5159 C   0  0  0  0  0  0  0  0  0  0  0  0
  -17.2658   12.0207  -20.3858 C   0  0  0  0  0  0  0  0  0  0  0  0
  -16.7617   10.7577  -20.2043 C   0  0  0  0  0  0  0  0  0  0  0  0
  -17.1986    9.9689  -19.1640 C   0  0  0  0  0  0  0  0  0  0  0  0
  -18.1531   10.4513  -18.2936 C   0  0  0  0  0  0  0  0  0  0  0  0
  -18.6538   11.7312  -18.4900 C   0  0  0  0  0  0  0  0  0  0  0  0
  -19.5902   12.4600  -17.7988 N   0  0  0  0  0  0  0  0  0  0  0  0
  -20.1516   11.8927  -16.5921 C   0  0  0  0  0  0  0  0  0  0  0  0
  -21.2689   11.0800  -16.6023 C   0  0  0  0  0  0  0  0  0  0  0  0
  -21.7782   10.5059  -15.4580 C   0  0  0  0  0  0  0  0  0  0  0  0
  -22.9297    9.6712  -15.4850 N   0  0  0  0  0  0  0  0  0  0  0  0
  -21.1398   10.7644  -14.2897 N   0  0  0  0  0  0  0  0  0  0  0  0
  -20.0538   11.5506  -14.2585 C   0  0  0  0  0  0  0  0  0  0  0  0
  -19.5682   12.1071  -15.4010 N   0  0  0  0  0  0  0  0  0  0  0  0
  -23.5977    9.6678  -14.6972 H   0  0  0  0  0  0  0  0  0  0  0  0
  -23.1432    9.0391  -16.2876 H   0  0  0  0  0  0  0  0  0  0  0  0
  1  2  1  0  0  0
  2  3  2  0  0  0
  3  4  1  0  0  0
  4  5  2  0  0  0
  5  8  1  0  0  0
  8  9  1  0  0  0
  9 10  2  0  0  0
  9 12  1  0  0  0
 12 13  2  0  0  0
 13 14  1  0  0  0
 14 15  2  0  0  0
 15 16  1  0  0  0
 14 18  1  0  0  0
 18 19  1  0  0  0
 19 20  1  0  0  0
  5  6  1  0  0  0
  6  7  2  0  0  0
  7 21  1  0  0  0
 21 23  1  0  0  0
 23 24  2  0  0  0
 24 25  1  0  0  0
 25 26  2  0  0  0
 26 27  1  0  0  0
 27 28  2  0  0  0
 28 29  1  0  0  0
 29 30  2  0  0  0
 30 31  1  0  0  0
 31 32  1  0  0  0
 32 33  2  0  0  0
 33 34  1  0  0  0
 34 35  1  0  0  0
 34 36  2  0  0  0
 36 37  1  0  0  0
 37 38  2  0  0  0
  7  2  1  0  0  0
 31 23  1  0  0  0
 38 32  1  0  0  0
 16 12  1  0  0  0
 20 18  1  0  0  0
 30 25  1  0  0  0
  8 11  1  0  0  0
 16 17  1  0  0  0
 21 22  1  0  0  0
 35 39  1  0  0  0
 35 40  1  0  0  0
M  END
> <minimizedAffinity>
-7.41189

> <CNNscore>
0.0539342314

> <CNNaffinity>
6.2683010101

> <CNN_VS>
0.3380759954

> <CNNaffinity_variance>
0.0442908406

$$$$
[H]c1nc(N([H])[H])c([H])c(-n2c(N([H])c3c([H])c(N([H])C(=O)c4c([H])c(C5([H])C([H])([H])C5([H])[H])nn4[H])c([H])c([H])c3C([H])([H])[H])nc3c([H])c([H])c([H])c([H])c32)n1


 40 45  0  0  0  0  0  0  0  0999 V2000
  -15.9326   10.3073  -20.8807 C   0  0  0  0  0  0  0  0  0  0  0  0
  -16.6138   11.5760  -21.2868 C   0  0  0  0  0  0  0  0  0  0  0  0
  -16.6480   12.0017  -22.5815 C   0  0  0  0  0  0  0  0  0  0  0  0
  -17.2661   13.1702  -22.9948 C   0  0  0  0  0  0  0  0  0  0  0  0
  -17.8957   13.9824  -22.0856 C   0  0  0  0  0  0  0  0  0  0  0  0
  -17.8563   13.5352  -20.7541 C   0  0  0  0  0  0  0  0  0  0  0  0
  -17.2497   12.3821  -20.3164 C   0  0  0  0  0  0  0  0  0  0  0  0
  -18.5371   15.2033  -22.3858 N   0  0  0  0  0  0  0  0  0  0  0  0
  -17.9510   16.3440  -22.9006 C   0  0  0  0  0  0  0  0  0  0  0  0
  -16.7394   16.4172  -23.1590 O   0  0  0  0  0  0  0  0  0  0  0  0
  -19.5883   15.2497  -22.1989 H   0  0  0  0  0  0  0  0  0  0  0  0
  -18.7404   17.5642  -23.1795 C   0  0  0  0  0  0  0  0  0  0  0  0
  -20.0959   17.7173  -23.1540 C   0  0  0  0  0  0  0  0  0  0  0  0
  -20.4118   19.0196  -23.4766 C   0  0  0  0  0  0  0  0  0  0  0  0
  -19.2336   19.6246  -23.6902 N   0  0  0  0  0  0  0  0  0  0  0  0
  -18.2381   18.7621  -23.5144 N   0  0  0  0  0  0  0  0  0  0  0  0
  -17.2325   18.9976  -23.6240 H   0  0  0  0  0  0  0  0  0  0  0  0
  -21.7421   19.6540  -23.5773 C   0  0  0  0  0  0  0  0  0  0  0  0
  -22.5988   19.2693  -24.8086 C   0  0  0  0  0  0  0  0  0  0  0  0
  -22.9566   18.8327  -23.4493 C   0  0  0  0  0  0  0  0  0  0  0  0
  -17.2940   11.8726  -19.0246 N   0  0  0  0  0  0  0  0  0  0  0  0
  -16.3321   11.9531  -18.4998 H   0  0  0  0  0  0  0  0  0  0  0  0
  -18.2963   11.2703  -18.2325 C   0  0  0  0  0  0  0  0  0  0  0  0
  -18.2224    9.9487  -17.8291 N   0  0  0  0  0  0  0  0  0  0  0  0
  -19.2447    9.7200  -17.0265 C   0  0  0  0  0  0  0  0  0  0  0  0
  -19.6751    8.5829  -16.3331 C   0  0  0  0  0  0  0  0  0  0  0  0
  -20.8018    8.6262  -15.5515 C   0  0  0  0  0  0  0  0  0  0  0  0
  -21.5315    9.7877  -15.4333 C   0  0  0  0  0  0  0  0  0  0  0  0
  -21.1275   10.9210  -16.1069 C   0  0  0  0  0  0  0  0  0  0  0  0
  -19.9853   10.8619  -16.8938 C   0  0  0  0  0  0  0  0  0  0  0  0
  -19.3575   11.8109  -17.6625 N   0  0  0  0  0  0  0  0  0  0  0  0
  -19.8733   13.1626  -17.6463 C   0  0  0  0  0  0  0  0  0  0  0  0
  -19.3977   14.1298  -16.7820 C   0  0  0  0  0  0  0  0  0  0  0  0
  -19.8597   15.4278  -16.7957 C   0  0  0  0  0  0  0  0  0  0  0  0
  -19.3598   16.4124  -15.8992 N   0  0  0  0  0  0  0  0  0  0  0  0
  -20.8185   15.7421  -17.7020 N   0  0  0  0  0  0  0  0  0  0  0  0
  -21.2934   14.8177  -18.5496 C   0  0  0  0  0  0  0  0  0  0  0  0
  -20.8225   13.5418  -18.5183 N   0  0  0  0  0  0  0  0  0  0  0  0
  -19.9775   17.1545  -15.5323 H   0  0  0  0  0  0  0  0  0  0  0  0
  -18.3659   16.4254  -15.5808 H   0  0  0  0  0  0  0  0  0  0  0  0
  1  2  1  0  0  0
  2  3  2  0  0  0
  3  4  1  0  0  0
  4  5  2  0  0  0
  5  8  1  0  0  0
  8  9  1  0  0  0
  9 10  2  0  0  0
  9 12  1  0  0  0
 12 13  2  0  0  0
 13 14  1  0  0  0
 14 15  2  0  0  0
 15 16  1  0  0  0
 14 18  1  0  0  0
 18 19  1  0  0  0
 19 20  1  0  0  0
  5  6  1  0  0  0
  6  7  2  0  0  0
  7 21  1  0  0  0
 21 23  1  0  0  0
 23 24  2  0  0  0
 24 25  1  0  0  0
 25 26  2  0  0  0
 26 27  1  0  0  0
 27 28  2  0  0  0
 28 29  1  0  0  0
 29 30  2  0  0  0
 30 31  1  0  0  0
 31 32  1  0  0  0
 32 33  2  0  0  0
 33 34  1  0  0  0
 34 35  1  0  0  0
 34 36  2  0  0  0
 36 37  1  0  0  0
 37 38  2  0  0  0
  7  2  1  0  0  0
 31 23  1  0  0  0
 38 32  1  0  0  0
 16 12  1  0  0  0
 20 18  1  0  0  0
 30 25  1  0  0  0
  8 11  1  0  0  0
 16 17  1  0  0  0
 21 22  1  0  0  0
 35 39  1  0  0  0
 35 40  1  0  0  0
M  END
> <minimizedAffinity>
-9.28304

> <CNNscore>
0.0462325625

> <CNNaffinity>
6.5611739159

> <CNN_VS>
0.3033398688

> <CNNaffinity_variance>
0.2081012726

$$$$
[H]c1nc(N([H])[H])c2c(-c3c([H])c([H])c4c(c3[H])C([H])([H])C([H])([H])N4C(=O)C([H])([H])c3c([H])c([H])c([H])c(OC(F)(F)F)c3[H])c([H])n(C([H])([H])C([H])([H])[H])c2n1


 37 41  0  0  0  0  0  0  0  0999 V2000
  -19.1628   14.0301  -19.4168 C   0  0  0  0  0  0  0  0  0  0  0  0
  -18.2761   15.0756  -19.2519 C   0  0  0  0  0  0  0  0  0  0  0  0
  -18.7227   16.3483  -19.5215 C   0  0  0  0  0  0  0  0  0  0  0  0
  -20.0299   16.5889  -19.9494 C   0  0  0  0  0  0  0  0  0  0  0  0
  -20.6898   17.7946  -20.2831 N   0  0  0  0  0  0  0  0  0  0  0  0
  -21.7819   17.4170  -21.1541 C   0  0  0  0  0  0  0  0  0  0  0  0
  -22.1926   16.0917  -20.5582 C   0  0  0  0  0  0  0  0  0  0  0  0
  -20.9034   15.5172  -20.1075 C   0  0  0  0  0  0  0  0  0  0  0  0
  -20.4585   14.2293  -19.8370 C   0  0  0  0  0  0  0  0  0  0  0  0
  -20.3267   19.0955  -19.8358 C   0  0  0  0  0  0  0  0  0  0  0  0
  -19.3403   19.2838  -19.0695 O   0  0  0  0  0  0  0  0  0  0  0  0
  -18.3781   10.7188  -18.1932 N   0  0  0  0  0  0  0  0  0  0  0  0
  -19.0416   11.8652  -18.0981 C   0  0  0  0  0  0  0  0  0  0  0  0
  -18.6888   12.6872  -19.1864 C   0  0  0  0  0  0  0  0  0  0  0  0
  -17.7789   11.9975  -19.9594 C   0  0  0  0  0  0  0  0  0  0  0  0
  -17.0841   12.2566  -21.1390 C   0  0  0  0  0  0  0  0  0  0  0  0
  -17.2885   13.4925  -21.8050 N   0  0  0  0  0  0  0  0  0  0  0  0
  -16.2472   11.3213  -21.6436 N   0  0  0  0  0  0  0  0  0  0  0  0
  -16.1045   10.1545  -20.9913 C   0  0  0  0  0  0  0  0  0  0  0  0
  -16.7638    9.8869  -19.8591 N   0  0  0  0  0  0  0  0  0  0  0  0
  -17.6101   10.7716  -19.3047 C   0  0  0  0  0  0  0  0  0  0  0  0
  -16.5550   14.2200  -21.9332 H   0  0  0  0  0  0  0  0  0  0  0  0
  -18.2394   13.6841  -22.1923 H   0  0  0  0  0  0  0  0  0  0  0  0
  -19.6383    9.5642  -16.4576 C   0  0  0  0  0  0  0  0  0  0  0  0
  -18.4003    9.5569  -17.3184 C   0  0  0  0  0  0  0  0  0  0  0  0
  -21.1038   20.2853  -20.2596 C   0  0  0  0  0  0  0  0  0  0  0  0
  -20.8637   20.5606  -21.6817 C   0  0  0  0  0  0  0  0  0  0  0  0
  -19.5936   20.7335  -22.1953 C   0  0  0  0  0  0  0  0  0  0  0  0
  -19.4003   20.9897  -23.5295 C   0  0  0  0  0  0  0  0  0  0  0  0
  -20.4667   21.0859  -24.4170 C   0  0  0  0  0  0  0  0  0  0  0  0
  -21.7211   20.9159  -23.9142 C   0  0  0  0  0  0  0  0  0  0  0  0
  -21.9126   20.6574  -22.5668 C   0  0  0  0  0  0  0  0  0  0  0  0
  -22.8000   21.0050  -24.7669 O   0  0  0  0  0  0  0  0  0  0  0  0
  -23.2190   19.8943  -25.5057 C   0  0  0  0  0  0  0  0  0  0  0  0
  -22.7057   18.7055  -25.0276 F   0  0  0  0  0  0  0  0  0  0  0  0
  -24.5893   19.8072  -25.4736 F   0  0  0  0  0  0  0  0  0  0  0  0
  -22.8490   20.0160  -26.8333 F   0  0  0  0  0  0  0  0  0  0  0  0
 24 25  1  0  0  0
 25 12  1  0  0  0
 12 13  1  0  0  0
 13 14  2  0  0  0
 14  1  1  0  0  0
  1  2  2  0  0  0
  2  3  1  0  0  0
  3  4  2  0  0  0
  4  5  1  0  0  0
  5  6  1  0  0  0
  6  7  1  0  0  0
  7  8  1  0  0  0
  8  9  2  0  0  0
  5 10  1  0  0  0
 10 11  2  0  0  0
 10 26  1  0  0  0
 26 27  1  0  0  0
 27 28  2  0  0  0
 28 29  1  0  0  0
 29 30  2  0  0  0
 30 31  1  0  0  0
 31 33  1  0  0  0
 33 34  1  0  0  0
 34 35  1  0  0  0
 34 36  1  0  0  0
 34 37  1  0  0  0
 31 32  2  0  0  0
 14 15  1  0  0  0
 15 16  2  0  0  0
 16 17  1  0  0  0
 16 18  1  0  0  0
 18 19  2  0  0  0
 19 20  1  0  0  0
 20 21  2  0  0  0
 21 12  1  0  0  0
  9  1  1  0  0  0
 32 27  1  0  0  0
 21 15  1  0  0  0
  8  4  1  0  0  0
 17 22  1  0  0  0
 17 23  1  0  0  0
M  END
> <minimizedAffinity>
-8.52532

> <CNNscore>
0.2613559365

> <CNNaffinity>
6.9635787010

> <CNN_VS>
1.8199726343

> <CNNaffinity_variance>
0.2065174282

$$$$
[H]c1nc(N([H])[H])c2c(-c3c([H])c([H])c4c(c3[H])C([H])([H])C([H])([H])N4C(=O)C([H])([H])c3c([H])c([H])c([H])c(OC(F)(F)F)c3[H])c([H])n(C([H])([H])C([H])([H])[H])c2n1


 37 41  0  0  0  0  0  0  0  0999 V2000
  -19.2623   11.2829  -17.3439 C   0  0  0  0  0  0  0  0  0  0  0  0
  -19.5235   12.4808  -17.9788 C   0  0  0  0  0  0  0  0  0  0  0  0
  -18.8529   12.7499  -19.1491 C   0  0  0  0  0  0  0  0  0  0  0  0
  -17.9339   11.8478  -19.6889 C   0  0  0  0  0  0  0  0  0  0  0  0
  -17.1403   11.9195  -20.8575 N   0  0  0  0  0  0  0  0  0  0  0  0
  -16.0259   11.0245  -20.6315 C   0  0  0  0  0  0  0  0  0  0  0  0
  -16.6874    9.9197  -19.8427 C   0  0  0  0  0  0  0  0  0  0  0  0
  -17.6891   10.6474  -19.0290 C   0  0  0  0  0  0  0  0  0  0  0  0
  -18.3630   10.3696  -17.8463 C   0  0  0  0  0  0  0  0  0  0  0  0
  -17.4122   12.7189  -22.0026 C   0  0  0  0  0  0  0  0  0  0  0  0
  -18.4317   13.4620  -22.0678 O   0  0  0  0  0  0  0  0  0  0  0  0
  -20.9122   11.3705  -14.1271 N   0  0  0  0  0  0  0  0  0  0  0  0
  -20.4112   11.9847  -15.1926 C   0  0  0  0  0  0  0  0  0  0  0  0
  -19.9219   11.0145  -16.0893 C   0  0  0  0  0  0  0  0  0  0  0  0
  -20.1442    9.7733  -15.5316 C   0  0  0  0  0  0  0  0  0  0  0  0
  -19.9051    8.4565  -15.9190 C   0  0  0  0  0  0  0  0  0  0  0  0
  -19.3017    8.2045  -17.1781 N   0  0  0  0  0  0  0  0  0  0  0  0
  -20.2720    7.4407  -15.1045 N   0  0  0  0  0  0  0  0  0  0  0  0
  -20.8638    7.7268  -13.9318 C   0  0  0  0  0  0  0  0  0  0  0  0
  -21.1029    8.9839  -13.5435 N   0  0  0  0  0  0  0  0  0  0  0  0
  -20.7643   10.0384  -14.3048 C   0  0  0  0  0  0  0  0  0  0  0  0
  -18.3658    7.7667  -17.3049 H   0  0  0  0  0  0  0  0  0  0  0  0
  -19.8334    8.4772  -18.0347 H   0  0  0  0  0  0  0  0  0  0  0  0
  -22.7935   12.6720  -13.2902 C   0  0  0  0  0  0  0  0  0  0  0  0
  -21.5286   11.9319  -12.9352 C   0  0  0  0  0  0  0  0  0  0  0  0
  -16.4970   12.7051  -23.1694 C   0  0  0  0  0  0  0  0  0  0  0  0
  -16.2821   14.0740  -23.6545 C   0  0  0  0  0  0  0  0  0  0  0  0
  -15.7757   15.0722  -22.8458 C   0  0  0  0  0  0  0  0  0  0  0  0
  -15.5856   16.3430  -23.3274 C   0  0  0  0  0  0  0  0  0  0  0  0
  -15.8922   16.6797  -24.6416 C   0  0  0  0  0  0  0  0  0  0  0  0
  -16.3920   15.6979  -25.4425 C   0  0  0  0  0  0  0  0  0  0  0  0
  -16.5826   14.4161  -24.9529 C   0  0  0  0  0  0  0  0  0  0  0  0
  -16.7062   15.9983  -26.7501 O   0  0  0  0  0  0  0  0  0  0  0  0
  -16.0833   15.3260  -27.8061 C   0  0  0  0  0  0  0  0  0  0  0  0
  -16.6144   14.0723  -28.0334 F   0  0  0  0  0  0  0  0  0  0  0  0
  -16.2139   16.0569  -28.9614 F   0  0  0  0  0  0  0  0  0  0  0  0
  -14.7285   15.1789  -27.5673 F   0  0  0  0  0  0  0  0  0  0  0  0
 24 25  1  0  0  0
 25 12  1  0  0  0
 12 13  1  0  0  0
 13 14  2  0  0  0
 14  1  1  0  0  0
  1  2  2  0  0  0
  2  3  1  0  0  0
  3  4  2  0  0  0
  4  5  1  0  0  0
  5  6  1  0  0  0
  6  7  1  0  0  0
  7  8  1  0  0  0
  8  9  2  0  0  0
  5 10  1  0  0  0
 10 11  2  0  0  0
 10 26  1  0  0  0
 26 27  1  0  0  0
 27 28  2  0  0  0
 28 29  1  0  0  0
 29 30  2  0  0  0
 30 31  1  0  0  0
 31 33  1  0  0  0
 33 34  1  0  0  0
 34 35  1  0  0  0
 34 36  1  0  0  0
 34 37  1  0  0  0
 31 32  2  0  0  0
 14 15  1  0  0  0
 15 16  2  0  0  0
 16 17  1  0  0  0
 16 18  1  0  0  0
 18 19  2  0  0  0
 19 20  1  0  0  0
 20 21  2  0  0  0
 21 12  1  0  0  0
  9  1  1  0  0  0
 32 27  1  0  0  0
 21 15  1  0  0  0
  8  4  1  0  0  0
 17 22  1  0  0  0
 17 23  1  0  0  0
M  END
> <minimizedAffinity>
-10.00858

> <CNNscore>
0.1514860839

> <CNNaffinity>
6.5928907394

> <CNN_VS>
0.9987311959

> <CNNaffinity_variance>
0.1116998941

$$$$
[H]c1nc(N([H])[H])c2c(-c3c([H])c([H])c4c(c3[H])C([H])([H])C([H])([H])N4C(=O)C([H])([H])c3c([H])c([H])c([H])c(OC(F)(F)F)c3[H])c([H])n(C([H])([H])C([H])([H])[H])c2n1


 37 41  0  0  0  0  0  0  0  0999 V2000
  -18.1093   13.2503  -19.7727 C   0  0  0  0  0  0  0  0  0  0  0  0
  -19.4082   13.5081  -19.3818 C   0  0  0  0  0  0  0  0  0  0  0  0
  -20.0083   12.6239  -18.5158 C   0  0  0  0  0  0  0  0  0  0  0  0
  -19.3357   11.4968  -18.0395 C   0  0  0  0  0  0  0  0  0  0  0  0
  -19.7531   10.4692  -17.1618 N   0  0  0  0  0  0  0  0  0  0  0  0
  -18.9074    9.3327  -17.4566 C   0  0  0  0  0  0  0  0  0  0  0  0
  -17.5973   10.0122  -17.7764 C   0  0  0  0  0  0  0  0  0  0  0  0
  -18.0269   11.2604  -18.4492 C   0  0  0  0  0  0  0  0  0  0  0  0
  -17.4151   12.1495  -19.3239 C   0  0  0  0  0  0  0  0  0  0  0  0
  -20.7953   10.5676  -16.1982 C   0  0  0  0  0  0  0  0  0  0  0  0
  -21.4602   11.6305  -16.0443 O   0  0  0  0  0  0  0  0  0  0  0  0
  -16.6890   16.0188  -21.6155 N   0  0  0  0  0  0  0  0  0  0  0  0
  -17.2214   15.5104  -20.5102 C   0  0  0  0  0  0  0  0  0  0  0  0
  -17.4893   14.1435  -20.7209 C   0  0  0  0  0  0  0  0  0  0  0  0
  -17.0973   13.8290  -22.0048 C   0  0  0  0  0  0  0  0  0  0  0  0
  -17.0913   12.6735  -22.7832 C   0  0  0  0  0  0  0  0  0  0  0  0
  -17.5694   11.4603  -22.2242 N   0  0  0  0  0  0  0  0  0  0  0  0
  -16.6096   12.7183  -24.0465 N   0  0  0  0  0  0  0  0  0  0  0  0
  -16.1435   13.8849  -24.5251 C   0  0  0  0  0  0  0  0  0  0  0  0
  -16.1395   15.0038  -23.7929 N   0  0  0  0  0  0  0  0  0  0  0  0
  -16.6031   15.0282  -22.5317 C   0  0  0  0  0  0  0  0  0  0  0  0
  -18.4106   10.9482  -22.5617 H   0  0  0  0  0  0  0  0  0  0  0  0
  -17.0408   11.0547  -21.4198 H   0  0  0  0  0  0  0  0  0  0  0  0
  -16.2199   18.1962  -20.6295 C   0  0  0  0  0  0  0  0  0  0  0  0
  -16.2455   17.3758  -21.8943 C   0  0  0  0  0  0  0  0  0  0  0  0
  -21.1379    9.4122  -15.3340 C   0  0  0  0  0  0  0  0  0  0  0  0
  -20.4963    9.5598  -14.0217 C   0  0  0  0  0  0  0  0  0  0  0  0
  -19.9047   10.7407  -13.6186 C   0  0  0  0  0  0  0  0  0  0  0  0
  -19.3125   10.8488  -12.3854 C   0  0  0  0  0  0  0  0  0  0  0  0
  -19.2821    9.7821  -11.4935 C   0  0  0  0  0  0  0  0  0  0  0  0
  -19.8646    8.6157  -11.8874 C   0  0  0  0  0  0  0  0  0  0  0  0
  -20.4615    8.5100  -13.1330 C   0  0  0  0  0  0  0  0  0  0  0  0
  -19.8518    7.5391  -11.0272 O   0  0  0  0  0  0  0  0  0  0  0  0
  -18.6428    6.9861  -10.5944 C   0  0  0  0  0  0  0  0  0  0  0  0
  -18.1928    7.5361   -9.4110 F   0  0  0  0  0  0  0  0  0  0  0  0
  -18.7945    5.6347  -10.4023 F   0  0  0  0  0  0  0  0  0  0  0  0
  -17.6536    7.1543  -11.5469 F   0  0  0  0  0  0  0  0  0  0  0  0
 24 25  1  0  0  0
 25 12  1  0  0  0
 12 13  1  0  0  0
 13 14  2  0  0  0
 14  1  1  0  0  0
  1  2  2  0  0  0
  2  3  1  0  0  0
  3  4  2  0  0  0
  4  5  1  0  0  0
  5  6  1  0  0  0
  6  7  1  0  0  0
  7  8  1  0  0  0
  8  9  2  0  0  0
  5 10  1  0  0  0
 10 11  2  0  0  0
 10 26  1  0  0  0
 26 27  1  0  0  0
 27 28  2  0  0  0
 28 29  1  0  0  0
 29 30  2  0  0  0
 30 31  1  0  0  0
 31 33  1  0  0  0
 33 34  1  0  0  0
 34 35  1  0  0  0
 34 36  1  0  0  0
 34 37  1  0  0  0
 31 32  2  0  0  0
 14 15  1  0  0  0
 15 16  2  0  0  0
 16 17  1  0  0  0
 16 18  1  0  0  0
 18 19  2  0  0  0
 19 20  1  0  0  0
 20 21  2  0  0  0
 21 12  1  0  0  0
  9  1  1  0  0  0
 32 27  1  0  0  0
 21 15  1  0  0  0
  8  4  1  0  0  0
 17 22  1  0  0  0
 17 23  1  0  0  0
M  END
> <minimizedAffinity>
-8.09611

> <CNNscore>
0.1475553662

> <CNNaffinity>
6.6541047096

> <CNN_VS>
0.9818488359

> <CNNaffinity_variance>
0.2506299019

$$$$
[H]c1nc(N([H])[H])c2c(-c3c([H])c([H])c4c(c3[H])C([H])([H])C([H])([H])N4C(=O)C([H])([H])c3c([H])c([H])c([H])c(OC(F)(F)F)c3[H])c([H])n(C([H])([H])C([H])([H])[H])c2n1


 37 41  0  0  0  0  0  0  0  0999 V2000
  -18.0772   13.0878  -21.1445 C   0  0  0  0  0  0  0  0  0  0  0  0
  -19.2377   13.5327  -20.5432 C   0  0  0  0  0  0  0  0  0  0  0  0
  -19.6246   12.9341  -19.3668 C   0  0  0  0  0  0  0  0  0  0  0  0
  -18.8757   11.9075  -18.7883 C   0  0  0  0  0  0  0  0  0  0  0  0
  -19.0849   11.1589  -17.6066 N   0  0  0  0  0  0  0  0  0  0  0  0
  -18.3556    9.9226  -17.7900 C   0  0  0  0  0  0  0  0  0  0  0  0
  -17.1510   10.4006  -18.5651 C   0  0  0  0  0  0  0  0  0  0  0  0
  -17.7098   11.4779  -19.4150 C   0  0  0  0  0  0  0  0  0  0  0  0
  -17.3136   12.0781  -20.6035 C   0  0  0  0  0  0  0  0  0  0  0  0
  -19.8602   11.5685  -16.4861 C   0  0  0  0  0  0  0  0  0  0  0  0
  -20.4497   12.6853  -16.4582 O   0  0  0  0  0  0  0  0  0  0  0  0
  -17.2995   13.8732  -24.5878 N   0  0  0  0  0  0  0  0  0  0  0  0
  -17.7910   13.0533  -23.6659 C   0  0  0  0  0  0  0  0  0  0  0  0
  -17.6909   13.6736  -22.4051 C   0  0  0  0  0  0  0  0  0  0  0  0
  -17.1173   14.9139  -22.5885 C   0  0  0  0  0  0  0  0  0  0  0  0
  -16.7735   15.9785  -21.7581 C   0  0  0  0  0  0  0  0  0  0  0  0
  -17.0403   15.8855  -20.3677 N   0  0  0  0  0  0  0  0  0  0  0  0
  -16.2153   17.0904  -22.2893 N   0  0  0  0  0  0  0  0  0  0  0  0
  -16.0044   17.1435  -23.6159 C   0  0  0  0  0  0  0  0  0  0  0  0
  -16.3291   16.1329  -24.4291 N   0  0  0  0  0  0  0  0  0  0  0  0
  -16.8866   15.0009  -23.9666 C   0  0  0  0  0  0  0  0  0  0  0  0
  -16.3081   15.8697  -19.6279 H   0  0  0  0  0  0  0  0  0  0  0  0
  -18.0392   15.8291  -20.0676 H   0  0  0  0  0  0  0  0  0  0  0  0
  -17.4647   12.2583  -26.4039 C   0  0  0  0  0  0  0  0  0  0  0  0
  -17.1804   13.6900  -26.0259 C   0  0  0  0  0  0  0  0  0  0  0  0
  -20.0024   10.6873  -15.3019 C   0  0  0  0  0  0  0  0  0  0  0  0
  -21.2403    9.9048  -15.4048 C   0  0  0  0  0  0  0  0  0  0  0  0
  -22.4890   10.4940  -15.3863 C   0  0  0  0  0  0  0  0  0  0  0  0
  -23.6289    9.7363  -15.4844 C   0  0  0  0  0  0  0  0  0  0  0  0
  -23.5778    8.3518  -15.6059 C   0  0  0  0  0  0  0  0  0  0  0  0
  -22.3479    7.7668  -15.6245 C   0  0  0  0  0  0  0  0  0  0  0  0
  -21.1992    8.5348  -15.5253 C   0  0  0  0  0  0  0  0  0  0  0  0
  -22.2619    6.3966  -15.7438 O   0  0  0  0  0  0  0  0  0  0  0  0
  -22.0485    5.5945  -14.6186 C   0  0  0  0  0  0  0  0  0  0  0  0
  -22.7894    4.4300  -14.6398 F   0  0  0  0  0  0  0  0  0  0  0  0
  -20.7212    5.2505  -14.5404 F   0  0  0  0  0  0  0  0  0  0  0  0
  -22.3617    6.2788  -13.4577 F   0  0  0  0  0  0  0  0  0  0  0  0
 24 25  1  0  0  0
 25 12  1  0  0  0
 12 13  1  0  0  0
 13 14  2  0  0  0
 14  1  1  0  0  0
  1  2  2  0  0  0
  2  3  1  0  0  0
  3  4  2  0  0  0
  4  5  1  0  0  0
  5  6  1  0  0  0
  6  7  1  0  0  0
  7  8  1  0  0  0
  8  9  2  0  0  0
  5 10  1  0  0  0
 10 11  2  0  0  0
 10 26  1  0  0  0
 26 27  1  0  0  0
 27 28  2  0  0  0
 28 29  1  0  0  0
 29 30  2  0  0  0
 30 31  1  0  0  0
 31 33  1  0  0  0
 33 34  1  0  0  0
 34 35  1  0  0  0
 34 36  1  0  0  0
 34 37  1  0  0  0
 31 32  2  0  0  0
 14 15  1  0  0  0
 15 16  2  0  0  0
 16 17  1  0  0  0
 16 18  1  0  0  0
 18 19  2  0  0  0
 19 20  1  0  0  0
 20 21  2  0  0  0
 21 12  1  0  0  0
  9  1  1  0  0  0
 32 27  1  0  0  0
 21 15  1  0  0  0
  8  4  1  0  0  0
 17 22  1  0  0  0
 17 23  1  0  0  0
M  END
> <minimizedAffinity>
-8.82389

> <CNNscore>
0.1256511509

> <CNNaffinity>
6.4229750633

> <CNN_VS>
0.8070542216

> <CNNaffinity_variance>
0.0999073759

$$$$
[H]c1nc(N([H])[H])c2c(-c3c([H])c([H])c4c(c3[H])C([H])([H])C([H])([H])N4C(=O)C([H])([H])c3c([H])c([H])c([H])c(OC(F)(F)F)c3[H])c([H])n(C([H])([H])C([H])([H])[H])c2n1


 37 41  0  0  0  0  0  0  0  0999 V2000
  -19.6550   13.0300  -18.1034 C   0  0  0  0  0  0  0  0  0  0  0  0
  -20.0462   12.7969  -19.4068 C   0  0  0  0  0  0  0  0  0  0  0  0
  -19.6684   13.7074  -20.3660 C   0  0  0  0  0  0  0  0  0  0  0  0
  -18.9126   14.8366  -20.0444 C   0  0  0  0  0  0  0  0  0  0  0  0
  -18.4255   15.8886  -20.8548 N   0  0  0  0  0  0  0  0  0  0  0  0
  -18.2159   17.0079  -19.9620 C   0  0  0  0  0  0  0  0  0  0  0  0
  -17.7481   16.3055  -18.7097 C   0  0  0  0  0  0  0  0  0  0  0  0
  -18.5313   15.0479  -18.7229 C   0  0  0  0  0  0  0  0  0  0  0  0
  -18.9099   14.1321  -17.7493 C   0  0  0  0  0  0  0  0  0  0  0  0
  -18.1997   15.8245  -22.2581 C   0  0  0  0  0  0  0  0  0  0  0  0
  -18.4274   14.7734  -22.9207 O   0  0  0  0  0  0  0  0  0  0  0  0
  -21.1743   11.3071  -15.3104 N   0  0  0  0  0  0  0  0  0  0  0  0
  -21.0715   12.3660  -16.1051 C   0  0  0  0  0  0  0  0  0  0  0  0
  -20.0901   12.1083  -17.0824 C   0  0  0  0  0  0  0  0  0  0  0  0
  -19.5920   10.8425  -16.8576 C   0  0  0  0  0  0  0  0  0  0  0  0
  -18.6387   10.0307  -17.4685 C   0  0  0  0  0  0  0  0  0  0  0  0
  -17.9561   10.5090  -18.6167 N   0  0  0  0  0  0  0  0  0  0  0  0
  -18.3956    8.7944  -16.9759 N   0  0  0  0  0  0  0  0  0  0  0  0
  -19.0850    8.3741  -15.9011 C   0  0  0  0  0  0  0  0  0  0  0  0
  -20.0047    9.1380  -15.3022 N   0  0  0  0  0  0  0  0  0  0  0  0
  -20.2946   10.3749  -15.7406 C   0  0  0  0  0  0  0  0  0  0  0  0
  -16.9327   10.6953  -18.6576 H   0  0  0  0  0  0  0  0  0  0  0  0
  -18.5196   10.6856  -19.4782 H   0  0  0  0  0  0  0  0  0  0  0  0
  -21.3882   11.5959  -12.9011 C   0  0  0  0  0  0  0  0  0  0  0  0
  -22.0400   11.0874  -14.1622 C   0  0  0  0  0  0  0  0  0  0  0  0
  -17.6839   17.0030  -22.9958 C   0  0  0  0  0  0  0  0  0  0  0  0
  -18.7687   17.9655  -23.2248 C   0  0  0  0  0  0  0  0  0  0  0  0
  -18.5650   19.3306  -23.1810 C   0  0  0  0  0  0  0  0  0  0  0  0
  -19.5988   20.2062  -23.3992 C   0  0  0  0  0  0  0  0  0  0  0  0
  -20.8879   19.7612  -23.6721 C   0  0  0  0  0  0  0  0  0  0  0  0
  -21.0929   18.4154  -23.7162 C   0  0  0  0  0  0  0  0  0  0  0  0
  -20.0470   17.5343  -23.4954 C   0  0  0  0  0  0  0  0  0  0  0  0
  -22.3587   17.9412  -23.9842 O   0  0  0  0  0  0  0  0  0  0  0  0
  -23.3156   17.8485  -22.9690 C   0  0  0  0  0  0  0  0  0  0  0  0
  -24.0242   19.0193  -22.7891 F   0  0  0  0  0  0  0  0  0  0  0  0
  -24.2126   16.8524  -23.2680 F   0  0  0  0  0  0  0  0  0  0  0  0
  -22.7251   17.5170  -21.7625 F   0  0  0  0  0  0  0  0  0  0  0  0
 24 25  1  0  0  0
 25 12  1  0  0  0
 12 13  1  0  0  0
 13 14  2  0  0  0
 14  1  1  0  0  0
  1  2  2  0  0  0
  2  3  1  0  0  0
  3  4  2  0  0  0
  4  5  1  0  0  0
  5  6  1  0  0  0
  6  7  1  0  0  0
  7  8  1  0  0  0
  8  9  2  0  0  0
  5 10  1  0  0  0
 10 11  2  0  0  0
 10 26  1  0  0  0
 26 27  1  0  0  0
 27 28  2  0  0  0
 28 29  1  0  0  0
 29 30  2  0  0  0
 30 31  1  0  0  0
 31 33  1  0  0  0
 33 34  1  0  0  0
 34 35  1  0  0  0
 34 36  1  0  0  0
 34 37  1  0  0  0
 31 32  2  0  0  0
 14 15  1  0  0  0
 15 16  2  0  0  0
 16 17  1  0  0  0
 16 18  1  0  0  0
 18 19  2  0  0  0
 19 20  1  0  0  0
 20 21  2  0  0  0
 21 12  1  0  0  0
  9  1  1  0  0  0
 32 27  1  0  0  0
 21 15  1  0  0  0
  8  4  1  0  0  0
 17 22  1  0  0  0
 17 23  1  0  0  0
M  END
> <minimizedAffinity>
-8.21055

> <CNNscore>
0.1249825135

> <CNNaffinity>
6.4462842941

> <CNN_VS>
0.8056728244

> <CNNaffinity_variance>
0.0752508342

$$$$
[H]c1nc(N([H])[H])c2c(-c3c([H])c([H])c4c(c3[H])C([H])([H])C([H])([H])N4C(=O)C([H])([H])c3c([H])c([H])c([H])c(OC(F)(F)F)c3[H])c([H])n(C([H])([H])C([H])([H])[H])c2n1


 37 41  0  0  0  0  0  0  0  0999 V2000
  -17.8767   12.5685  -20.5511 C   0  0  0  0  0  0  0  0  0  0  0  0
  -17.1137   11.5150  -20.0880 C   0  0  0  0  0  0  0  0  0  0  0  0
  -17.4844   10.9224  -18.9034 C   0  0  0  0  0  0  0  0  0  0  0  0
  -18.5957   11.3630  -18.1820 C   0  0  0  0  0  0  0  0  0  0  0  0
  -19.1468   10.9121  -16.9599 N   0  0  0  0  0  0  0  0  0  0  0  0
  -19.8990   12.0297  -16.4317 C   0  0  0  0  0  0  0  0  0  0  0  0
  -20.4432   12.6466  -17.6981 C   0  0  0  0  0  0  0  0  0  0  0  0
  -19.3478   12.4268  -18.6711 C   0  0  0  0  0  0  0  0  0  0  0  0
  -18.9786   13.0299  -19.8669 C   0  0  0  0  0  0  0  0  0  0  0  0
  -18.9761    9.6174  -16.3953 C   0  0  0  0  0  0  0  0  0  0  0  0
  -18.2864    8.7278  -16.9686 O   0  0  0  0  0  0  0  0  0  0  0  0
  -16.8989   13.5271  -23.8981 N   0  0  0  0  0  0  0  0  0  0  0  0
  -17.3429   12.6241  -23.0315 C   0  0  0  0  0  0  0  0  0  0  0  0
  -17.4658   13.2299  -21.7656 C   0  0  0  0  0  0  0  0  0  0  0  0
  -17.0798   14.5478  -21.8884 C   0  0  0  0  0  0  0  0  0  0  0  0
  -16.9911   15.6381  -21.0256 C   0  0  0  0  0  0  0  0  0  0  0  0
  -17.3749   15.4798  -19.6689 N   0  0  0  0  0  0  0  0  0  0  0  0
  -16.5659   16.8330  -21.4962 N   0  0  0  0  0  0  0  0  0  0  0  0
  -16.2370   16.9421  -22.7951 C   0  0  0  0  0  0  0  0  0  0  0  0
  -16.3170   15.9077  -23.6387 N   0  0  0  0  0  0  0  0  0  0  0  0
  -16.7317   14.6943  -23.2365 C   0  0  0  0  0  0  0  0  0  0  0  0
  -16.7255   15.5658  -18.8599 H   0  0  0  0  0  0  0  0  0  0  0  0
  -18.3769   15.2623  -19.4699 H   0  0  0  0  0  0  0  0  0  0  0  0
  -17.7341   12.6671  -26.0186 C   0  0  0  0  0  0  0  0  0  0  0  0
  -16.6120   13.3904  -25.3176 C   0  0  0  0  0  0  0  0  0  0  0  0
  -19.6096    9.2670  -15.1010 C   0  0  0  0  0  0  0  0  0  0  0  0
  -20.9256    8.6597  -15.3349 C   0  0  0  0  0  0  0  0  0  0  0  0
  -21.0920    7.2979  -15.4922 C   0  0  0  0  0  0  0  0  0  0  0  0
  -22.3351    6.7588  -15.7097 C   0  0  0  0  0  0  0  0  0  0  0  0
  -23.4740    7.5539  -15.7808 C   0  0  0  0  0  0  0  0  0  0  0  0
  -23.3139    8.8977  -15.6262 C   0  0  0  0  0  0  0  0  0  0  0  0
  -22.0576    9.4385  -15.4068 C   0  0  0  0  0  0  0  0  0  0  0  0
  -24.4223    9.7140  -15.6912 O   0  0  0  0  0  0  0  0  0  0  0  0
  -25.1449   10.0292  -14.5365 C   0  0  0  0  0  0  0  0  0  0  0  0
  -25.9574    8.9972  -14.1119 F   0  0  0  0  0  0  0  0  0  0  0  0
  -24.2773   10.3324  -13.5159 F   0  0  0  0  0  0  0  0  0  0  0  0
  -25.9403   11.1428  -14.7402 F   0  0  0  0  0  0  0  0  0  0  0  0
 24 25  1  0  0  0
 25 12  1  0  0  0
 12 13  1  0  0  0
 13 14  2  0  0  0
 14  1  1  0  0  0
  1  2  2  0  0  0
  2  3  1  0  0  0
  3  4  2  0  0  0
  4  5  1  0  0  0
  5  6  1  0  0  0
  6  7  1  0  0  0
  7  8  1  0  0  0
  8  9  2  0  0  0
  5 10  1  0  0  0
 10 11  2  0  0  0
 10 26  1  0  0  0
 26 27  1  0  0  0
 27 28  2  0  0  0
 28 29  1  0  0  0
 29 30  2  0  0  0
 30 31  1  0  0  0
 31 33  1  0  0  0
 33 34  1  0  0  0
 34 35  1  0  0  0
 34 36  1  0  0  0
 34 37  1  0  0  0
 31 32  2  0  0  0
 14 15  1  0  0  0
 15 16  2  0  0  0
 16 17  1  0  0  0
 16 18  1  0  0  0
 18 19  2  0  0  0
 19 20  1  0  0  0
 20 21  2  0  0  0
 21 12  1  0  0  0
  9  1  1  0  0  0
 32 27  1  0  0  0
 21 15  1  0  0  0
  8  4  1  0  0  0
 17 22  1  0  0  0
 17 23  1  0  0  0
M  END
> <minimizedAffinity>
-8.68690

> <CNNscore>
0.1211974844

> <CNNaffinity>
6.4516663551

> <CNN_VS>
0.7819257379

> <CNNaffinity_variance>
0.1285743415

$$$$
[H]c1nc(N([H])[H])c2c(-c3c([H])c([H])c4c(c3[H])C([H])([H])C([H])([H])N4C(=O)C([H])([H])c3c([H])c([H])c([H])c(OC(F)(F)F)c3[H])c([H])n(C([H])([H])C([H])([H])[H])c2n1


 37 41  0  0  0  0  0  0  0  0999 V2000
  -18.0384   13.1110  -21.1930 C   0  0  0  0  0  0  0  0  0  0  0  0
  -19.1972   13.5864  -20.6120 C   0  0  0  0  0  0  0  0  0  0  0  0
  -19.6084   13.0132  -19.4312 C   0  0  0  0  0  0  0  0  0  0  0  0
  -18.8853   11.9819  -18.8286 C   0  0  0  0  0  0  0  0  0  0  0  0
  -19.1218   11.2556  -17.6382 N   0  0  0  0  0  0  0  0  0  0  0  0
  -18.4134   10.0034  -17.7943 C   0  0  0  0  0  0  0  0  0  0  0  0
  -17.1915   10.4472  -18.5626 C   0  0  0  0  0  0  0  0  0  0  0  0
  -17.7206   11.5214  -19.4351 C   0  0  0  0  0  0  0  0  0  0  0  0
  -17.2999   12.0959  -20.6279 C   0  0  0  0  0  0  0  0  0  0  0  0
  -19.9019   11.6965  -16.5331 C   0  0  0  0  0  0  0  0  0  0  0  0
  -20.4709   12.8243  -16.5289 O   0  0  0  0  0  0  0  0  0  0  0  0
  -17.1968   13.8252  -24.6367 N   0  0  0  0  0  0  0  0  0  0  0  0
  -17.7087   13.0260  -23.7079 C   0  0  0  0  0  0  0  0  0  0  0  0
  -17.6271   13.6702  -22.4577 C   0  0  0  0  0  0  0  0  0  0  0  0
  -17.0435   14.9037  -22.6551 C   0  0  0  0  0  0  0  0  0  0  0  0
  -16.7083   15.9824  -21.8396 C   0  0  0  0  0  0  0  0  0  0  0  0
  -16.9998   15.9178  -20.4525 N   0  0  0  0  0  0  0  0  0  0  0  0
  -16.1349   17.0808  -22.3824 N   0  0  0  0  0  0  0  0  0  0  0  0
  -15.9007   17.1071  -23.7059 C   0  0  0  0  0  0  0  0  0  0  0  0
  -16.2168   16.0825  -24.5049 N   0  0  0  0  0  0  0  0  0  0  0  0
  -16.7885   14.9626  -24.0304 C   0  0  0  0  0  0  0  0  0  0  0  0
  -16.2806   15.9127  -19.6999 H   0  0  0  0  0  0  0  0  0  0  0  0
  -18.0039   15.8725  -20.1689 H   0  0  0  0  0  0  0  0  0  0  0  0
  -17.5070   12.2263  -26.4480 C   0  0  0  0  0  0  0  0  0  0  0  0
  -17.0538   13.6134  -26.0688 C   0  0  0  0  0  0  0  0  0  0  0  0
  -20.0738   10.8364  -15.3373 C   0  0  0  0  0  0  0  0  0  0  0  0
  -21.5017   10.6758  -15.0362 C   0  0  0  0  0  0  0  0  0  0  0  0
  -22.3280    9.8659  -15.7900 C   0  0  0  0  0  0  0  0  0  0  0  0
  -23.6594    9.7354  -15.4842 C   0  0  0  0  0  0  0  0  0  0  0  0
  -24.2315   10.4079  -14.4096 C   0  0  0  0  0  0  0  0  0  0  0  0
  -23.4197   11.2077  -13.6636 C   0  0  0  0  0  0  0  0  0  0  0  0
  -22.0761   11.3371  -13.9751 C   0  0  0  0  0  0  0  0  0  0  0  0
  -23.9551   11.8882  -12.5916 O   0  0  0  0  0  0  0  0  0  0  0  0
  -23.6276   11.5266  -11.2813 C   0  0  0  0  0  0  0  0  0  0  0  0
  -22.5217   12.1969  -10.7987 F   0  0  0  0  0  0  0  0  0  0  0  0
  -24.6847   11.7990  -10.4479 F   0  0  0  0  0  0  0  0  0  0  0  0
  -23.3768   10.1689  -11.1917 F   0  0  0  0  0  0  0  0  0  0  0  0
 24 25  1  0  0  0
 25 12  1  0  0  0
 12 13  1  0  0  0
 13 14  2  0  0  0
 14  1  1  0  0  0
  1  2  2  0  0  0
  2  3  1  0  0  0
  3  4  2  0  0  0
  4  5  1  0  0  0
  5  6  1  0  0  0
  6  7  1  0  0  0
  7  8  1  0  0  0
  8  9  2  0  0  0
  5 10  1  0  0  0
 10 11  2  0  0  0
 10 26  1  0  0  0
 26 27  1  0  0  0
 27 28  2  0  0  0
 28 29  1  0  0  0
 29 30  2  0  0  0
 30 31  1  0  0  0
 31 33  1  0  0  0
 33 34  1  0  0  0
 34 35  1  0  0  0
 34 36  1  0  0  0
 34 37  1  0  0  0
 31 32  2  0  0  0
 14 15  1  0  0  0
 15 16  2  0  0  0
 16 17  1  0  0  0
 16 18  1  0  0  0
 18 19  2  0  0  0
 19 20  1  0  0  0
 20 21  2  0  0  0
 21 12  1  0  0  0
  9  1  1  0  0  0
 32 27  1  0  0  0
 21 15  1  0  0  0
  8  4  1  0  0  0
 17 22  1  0  0  0
 17 23  1  0  0  0
M  END
> <minimizedAffinity>
-8.24714

> <CNNscore>
0.1070097312

> <CNNaffinity>
6.0905466080

> <CNN_VS>
0.6517477632

> <CNNaffinity_variance>
0.1082244143

$$$$
[H]c1nc(N([H])[H])c2c(-c3c([H])c([H])c4c(c3[H])C([H])([H])C([H])([H])N4C(=O)C([H])([H])c3c([H])c([H])c([H])c(OC(F)(F)F)c3[H])c([H])n(C([H])([H])C([H])([H])[H])c2n1


 37 41  0  0  0  0  0  0  0  0999 V2000
  -19.3503   14.2926  -19.3295 C   0  0  0  0  0  0  0  0  0  0  0  0
  -18.5067   15.3656  -19.1216 C   0  0  0  0  0  0  0  0  0  0  0  0
  -18.9688   16.6206  -19.4429 C   0  0  0  0  0  0  0  0  0  0  0  0
  -20.2493   16.8168  -19.9639 C   0  0  0  0  0  0  0  0  0  0  0  0
  -20.9177   17.9978  -20.3627 N   0  0  0  0  0  0  0  0  0  0  0  0
  -21.9358   17.5758  -21.3004 C   0  0  0  0  0  0  0  0  0  0  0  0
  -22.3499   16.2482  -20.7118 C   0  0  0  0  0  0  0  0  0  0  0  0
  -21.0796   15.7181  -20.1637 C   0  0  0  0  0  0  0  0  0  0  0  0
  -20.6188   14.4478  -19.8413 C   0  0  0  0  0  0  0  0  0  0  0  0
  -20.6230   19.3153  -19.9135 C   0  0  0  0  0  0  0  0  0  0  0  0
  -19.6978   19.5435  -19.0844 O   0  0  0  0  0  0  0  0  0  0  0  0
  -17.6723   11.0908  -19.2277 N   0  0  0  0  0  0  0  0  0  0  0  0
  -17.8223   12.3078  -19.7374 C   0  0  0  0  0  0  0  0  0  0  0  0
  -18.8562   12.9675  -19.0443 C   0  0  0  0  0  0  0  0  0  0  0  0
  -19.3375   12.1050  -18.0823 C   0  0  0  0  0  0  0  0  0  0  0  0
  -20.3213   12.1692  -17.0978 C   0  0  0  0  0  0  0  0  0  0  0  0
  -21.0684   13.3654  -16.9433 N   0  0  0  0  0  0  0  0  0  0  0  0
  -20.5330   11.1043  -16.2909 N   0  0  0  0  0  0  0  0  0  0  0  0
  -19.7834   10.0009  -16.4578 C   0  0  0  0  0  0  0  0  0  0  0  0
  -18.8337    9.9210  -17.3957 N   0  0  0  0  0  0  0  0  0  0  0  0
  -18.5722   10.9420  -18.2296 C   0  0  0  0  0  0  0  0  0  0  0  0
  -22.0929   13.4447  -17.1096 H   0  0  0  0  0  0  0  0  0  0  0  0
  -20.5545   14.2234  -16.6424 H   0  0  0  0  0  0  0  0  0  0  0  0
  -16.0259   10.3864  -20.8790 C   0  0  0  0  0  0  0  0  0  0  0  0
  -16.7431   10.0353  -19.6000 C   0  0  0  0  0  0  0  0  0  0  0  0
  -21.4016   20.4756  -20.4101 C   0  0  0  0  0  0  0  0  0  0  0  0
  -21.0712   20.7363  -21.8166 C   0  0  0  0  0  0  0  0  0  0  0  0
  -19.7801   20.9884  -22.2366 C   0  0  0  0  0  0  0  0  0  0  0  0
  -19.5018   21.2287  -23.5586 C   0  0  0  0  0  0  0  0  0  0  0  0
  -20.4999   21.2290  -24.5271 C   0  0  0  0  0  0  0  0  0  0  0  0
  -21.7748   20.9807  -24.1169 C   0  0  0  0  0  0  0  0  0  0  0  0
  -22.0522   20.7385  -22.7814 C   0  0  0  0  0  0  0  0  0  0  0  0
  -22.7875   20.9737  -25.0514 O   0  0  0  0  0  0  0  0  0  0  0  0
  -23.1858   19.7811  -25.6629 C   0  0  0  0  0  0  0  0  0  0  0  0
  -22.6021   18.6654  -25.0971 F   0  0  0  0  0  0  0  0  0  0  0  0
  -24.5485   19.6424  -25.5632 F   0  0  0  0  0  0  0  0  0  0  0  0
  -22.8740   19.7891  -27.0108 F   0  0  0  0  0  0  0  0  0  0  0  0
 24 25  1  0  0  0
 25 12  1  0  0  0
 12 13  1  0  0  0
 13 14  2  0  0  0
 14  1  1  0  0  0
  1  2  2  0  0  0
  2  3  1  0  0  0
  3  4  2  0  0  0
  4  5  1  0  0  0
  5  6  1  0  0  0
  6  7  1  0  0  0
  7  8  1  0  0  0
  8  9  2  0  0  0
  5 10  1  0  0  0
 10 11  2  0  0  0
 10 26  1  0  0  0
 26 27  1  0  0  0
 27 28  2  0  0  0
 28 29  1  0  0  0
 29 30  2  0  0  0
 30 31  1  0  0  0
 31 33  1  0  0  0
 33 34  1  0  0  0
 34 35  1  0  0  0
 34 36  1  0  0  0
 34 37  1  0  0  0
 31 32  2  0  0  0
 14 15  1  0  0  0
 15 16  2  0  0  0
 16 17  1  0  0  0
 16 18  1  0  0  0
 18 19  2  0  0  0
 19 20  1  0  0  0
 20 21  2  0  0  0
 21 12  1  0  0  0
  9  1  1  0  0  0
 32 27  1  0  0  0
 21 15  1  0  0  0
  8  4  1  0  0  0
 17 22  1  0  0  0
 17 23  1  0  0  0
M  END
> <minimizedAffinity>
-8.33920

> <CNNscore>
0.0969679207

> <CNNaffinity>
6.1497488022

> <CNN_VS>
0.5963283777

> <CNNaffinity_variance>
0.0784429759

$$$$
[H]c1nc(N([H])[H])c2c(-c3c([H])c([H])c4c(c3[H])C([H])([H])C([H])([H])N4C(=O)C([H])([H])c3c([H])c([H])c([H])c(OC(F)(F)F)c3[H])c([H])n(C([H])([H])C([H])([H])[H])c2n1


 37 41  0  0  0  0  0  0  0  0999 V2000
  -19.6488   12.8428  -17.9451 C   0  0  0  0  0  0  0  0  0  0  0  0
  -20.0259   12.5912  -19.2493 C   0  0  0  0  0  0  0  0  0  0  0  0
  -19.5706   13.4437  -20.2279 C   0  0  0  0  0  0  0  0  0  0  0  0
  -18.7518   14.5334  -19.9250 C   0  0  0  0  0  0  0  0  0  0  0  0
  -18.1816   15.5251  -20.7568 N   0  0  0  0  0  0  0  0  0  0  0  0
  -17.9206   16.6583  -19.8956 C   0  0  0  0  0  0  0  0  0  0  0  0
  -17.5253   15.9701  -18.6108 C   0  0  0  0  0  0  0  0  0  0  0  0
  -18.3863   14.7644  -18.6022 C   0  0  0  0  0  0  0  0  0  0  0  0
  -18.8430   13.9072  -17.6090 C   0  0  0  0  0  0  0  0  0  0  0  0
  -17.9302   15.4001  -22.1517 C   0  0  0  0  0  0  0  0  0  0  0  0
  -18.2099   14.3439  -22.7855 O   0  0  0  0  0  0  0  0  0  0  0  0
  -21.3324   11.3134  -15.1337 N   0  0  0  0  0  0  0  0  0  0  0  0
  -21.1448   12.3371  -15.9585 C   0  0  0  0  0  0  0  0  0  0  0  0
  -20.1633   11.9848  -16.9057 C   0  0  0  0  0  0  0  0  0  0  0  0
  -19.7536   10.6973  -16.6309 C   0  0  0  0  0  0  0  0  0  0  0  0
  -18.8437    9.8060  -17.1954 C   0  0  0  0  0  0  0  0  0  0  0  0
  -18.1088   10.2016  -18.3427 N   0  0  0  0  0  0  0  0  0  0  0  0
  -18.6918    8.5733  -16.6595 N   0  0  0  0  0  0  0  0  0  0  0  0
  -19.4282    8.2336  -15.5874 C   0  0  0  0  0  0  0  0  0  0  0  0
  -20.3076    9.0745  -15.0327 N   0  0  0  0  0  0  0  0  0  0  0  0
  -20.5072   10.3127  -15.5155 C   0  0  0  0  0  0  0  0  0  0  0  0
  -17.0748   10.3198  -18.3672 H   0  0  0  0  0  0  0  0  0  0  0  0
  -18.6424   10.3864  -19.2214 H   0  0  0  0  0  0  0  0  0  0  0  0
  -22.1549   12.4114  -13.1209 C   0  0  0  0  0  0  0  0  0  0  0  0
  -22.2330   11.1876  -13.9983 C   0  0  0  0  0  0  0  0  0  0  0  0
  -17.3250   16.5187  -22.9144 C   0  0  0  0  0  0  0  0  0  0  0  0
  -16.2288   16.0184  -23.7532 C   0  0  0  0  0  0  0  0  0  0  0  0
  -15.1960   15.2583  -23.2411 C   0  0  0  0  0  0  0  0  0  0  0  0
  -14.1847   14.8045  -24.0501 C   0  0  0  0  0  0  0  0  0  0  0  0
  -14.1552   15.0878  -25.4115 C   0  0  0  0  0  0  0  0  0  0  0  0
  -15.1722   15.8373  -25.9204 C   0  0  0  0  0  0  0  0  0  0  0  0
  -16.1915   16.2938  -25.1008 C   0  0  0  0  0  0  0  0  0  0  0  0
  -15.1731   16.1361  -27.2656 O   0  0  0  0  0  0  0  0  0  0  0  0
  -15.8288   15.3064  -28.1803 C   0  0  0  0  0  0  0  0  0  0  0  0
  -16.5688   14.3131  -27.5710 F   0  0  0  0  0  0  0  0  0  0  0  0
  -16.6810   16.0542  -28.9553 F   0  0  0  0  0  0  0  0  0  0  0  0
  -14.9244   14.7018  -29.0351 F   0  0  0  0  0  0  0  0  0  0  0  0
 24 25  1  0  0  0
 25 12  1  0  0  0
 12 13  1  0  0  0
 13 14  2  0  0  0
 14  1  1  0  0  0
  1  2  2  0  0  0
  2  3  1  0  0  0
  3  4  2  0  0  0
  4  5  1  0  0  0
  5  6  1  0  0  0
  6  7  1  0  0  0
  7  8  1  0  0  0
  8  9  2  0  0  0
  5 10  1  0  0  0
 10 11  2  0  0  0
 10 26  1  0  0  0
 26 27  1  0  0  0
 27 28  2  0  0  0
 28 29  1  0  0  0
 29 30  2  0  0  0
 30 31  1  0  0  0
 31 33  1  0  0  0
 33 34  1  0  0  0
 34 35  1  0  0  0
 34 36  1  0  0  0
 34 37  1  0  0  0
 31 32  2  0  0  0
 14 15  1  0  0  0
 15 16  2  0  0  0
 16 17  1  0  0  0
 16 18  1  0  0  0
 18 19  2  0  0  0
 19 20  1  0  0  0
 20 21  2  0  0  0
 21 12  1  0  0  0
  9  1  1  0  0  0
 32 27  1  0  0  0
 21 15  1  0  0  0
  8  4  1  0  0  0
 17 22  1  0  0  0
 17 23  1  0  0  0
M  END
> <minimizedAffinity>
-9.36487

> <CNNscore>
0.0968631804

> <CNNaffinity>
6.5409302711

> <CNN_VS>
0.6335753202

> <CNNaffinity_variance>
0.1091038808

$$$$
[H]OC([H])(c1c([H])c([H])c(C([H])([H])N2C([H])([H])C([H])([H])[C@@]([H])(C([H])([H])N(C([H])([H])[H])C([H])([H])[H])C2([H])[H])c(C(F)(F)F)c1[H])N([H])c1c([H])c([H])c(C([H])([H])[H])c(N([H])c2nc([H])c([H])c(-c3c([H])nc([H])nc3[H])n2)c1[H]


 46 50  0  0  0  0  0  0  0  0999 V2000
  -16.7920   10.2995  -20.4189 C   0  0  0  0  0  0  0  0  0  0  0  0
  -15.5391    9.7756  -20.8242 O   0  0  0  0  0  0  0  0  0  0  0  0
  -15.6267    9.0829  -21.5056 H   0  0  0  0  0  0  0  0  0  0  0  0
  -17.4911   14.0733  -22.4517 C   0  0  0  0  0  0  0  0  0  0  0  0
  -16.5344   13.1610  -22.8832 C   0  0  0  0  0  0  0  0  0  0  0  0
  -16.2991   11.9459  -22.2452 C   0  0  0  0  0  0  0  0  0  0  0  0
  -17.0309   11.6035  -21.1346 C   0  0  0  0  0  0  0  0  0  0  0  0
  -17.9764   12.4956  -20.7020 C   0  0  0  0  0  0  0  0  0  0  0  0
  -18.2243   13.7252  -21.3358 C   0  0  0  0  0  0  0  0  0  0  0  0
  -19.2592   14.6044  -20.7806 C   0  0  0  0  0  0  0  0  0  0  0  0
  -18.8769   15.3207  -19.6668 F   0  0  0  0  0  0  0  0  0  0  0  0
  -20.3357   13.8176  -20.3378 F   0  0  0  0  0  0  0  0  0  0  0  0
  -19.8260   15.4299  -21.7424 F   0  0  0  0  0  0  0  0  0  0  0  0
  -17.7702   15.3446  -23.1172 C   0  0  0  0  0  0  0  0  0  0  0  0
  -17.5813   18.2795  -21.8303 C   0  0  0  0  0  0  0  0  0  0  0  0
  -18.0666   18.3242  -23.2442 C   0  0  0  0  0  0  0  0  0  0  0  0
  -17.0868   17.3969  -23.9276 C   0  0  0  0  0  0  0  0  0  0  0  0
  -16.7452   16.3655  -22.9680 N   0  0  0  0  0  0  0  0  0  0  0  0
  -16.7617   17.0317  -21.7137 C   0  0  0  0  0  0  0  0  0  0  0  0
  -18.6971   18.3786  -20.8212 C   0  0  0  0  0  0  0  0  0  0  0  0
  -20.0015   20.3842  -20.7882 C   0  0  0  0  0  0  0  0  0  0  0  0
  -18.8155   19.7207  -20.2856 N   0  0  0  0  0  0  0  0  0  0  0  0
  -18.9098   19.7031  -18.8329 C   0  0  0  0  0  0  0  0  0  0  0  0
  -16.7343   10.4839  -19.0036 N   0  0  0  0  0  0  0  0  0  0  0  0
  -15.7921   10.6557  -18.5679 H   0  0  0  0  0  0  0  0  0  0  0  0
  -17.8701   10.4439  -18.1981 C   0  0  0  0  0  0  0  0  0  0  0  0
  -18.6439   11.5558  -18.0072 C   0  0  0  0  0  0  0  0  0  0  0  0
  -19.7832   11.5053  -17.2021 C   0  0  0  0  0  0  0  0  0  0  0  0
  -20.1344   10.3359  -16.5957 C   0  0  0  0  0  0  0  0  0  0  0  0
  -21.3620   10.3422  -15.7473 C   0  0  0  0  0  0  0  0  0  0  0  0
  -19.3720    9.1659  -16.7604 C   0  0  0  0  0  0  0  0  0  0  0  0
  -18.2590    9.2661  -17.5625 C   0  0  0  0  0  0  0  0  0  0  0  0
  -19.8450    8.0457  -16.0753 N   0  0  0  0  0  0  0  0  0  0  0  0
  -20.2455    7.2068  -16.6347 H   0  0  0  0  0  0  0  0  0  0  0  0
  -19.8670    7.8663  -14.6720 C   0  0  0  0  0  0  0  0  0  0  0  0
  -19.0019    8.3331  -13.7827 N   0  0  0  0  0  0  0  0  0  0  0  0
  -19.0234    8.1654  -12.4623 C   0  0  0  0  0  0  0  0  0  0  0  0
  -20.0592    7.4217  -11.9349 C   0  0  0  0  0  0  0  0  0  0  0  0
  -20.9936    6.9072  -12.8030 C   0  0  0  0  0  0  0  0  0  0  0  0
  -20.8955    7.1254  -14.1244 N   0  0  0  0  0  0  0  0  0  0  0  0
  -22.1366    6.1011  -12.3168 C   0  0  0  0  0  0  0  0  0  0  0  0
  -22.7148    5.1582  -13.1364 C   0  0  0  0  0  0  0  0  0  0  0  0
  -23.7519    4.4354  -12.6840 N   0  0  0  0  0  0  0  0  0  0  0  0
  -24.2613    4.5898  -11.4508 C   0  0  0  0  0  0  0  0  0  0  0  0
  -23.7181    5.4980  -10.6377 N   0  0  0  0  0  0  0  0  0  0  0  0
  -22.6561    6.2535  -11.0690 C   0  0  0  0  0  0  0  0  0  0  0  0
 21 22  1  0  0  0
 22 23  1  0  0  0
 22 20  1  0  0  0
 20 15  1  0  0  0
 15 16  1  0  0  0
 16 17  1  0  0  0
 17 18  1  0  0  0
 18 14  1  0  0  0
 14  4  1  0  0  0
  4  5  2  0  0  0
  5  6  1  0  0  0
  6  7  2  0  0  0
  7  8  1  0  0  0
  8  9  2  0  0  0
  9 10  1  0  0  0
 10 11  1  0  0  0
 10 12  1  0  0  0
 10 13  1  0  0  0
  7  1  1  0  0  0
  1  2  1  0  0  0
  1 24  1  0  0  0
 24 26  1  0  0  0
 26 27  2  0  0  0
 27 28  1  0  0  0
 28 29  2  0  0  0
 29 30  1  0  0  0
 29 31  1  0  0  0
 31 33  1  0  0  0
 33 35  1  0  0  0
 35 36  2  0  0  0
 36 37  1  0  0  0
 37 38  2  0  0  0
 38 39  1  0  0  0
 39 40  2  0  0  0
 39 41  1  0  0  0
 41 42  2  0  0  0
 42 43  1  0  0  0
 43 44  2  0  0  0
 44 45  1  0  0  0
 45 46  2  0  0  0
 31 32  2  0  0  0
 18 19  1  0  0  0
 19 15  1  0  0  0
  9  4  1  0  0  0
 32 26  1  0  0  0
 40 35  1  0  0  0
 46 41  1  0  0  0
  2  3  1  0  0  0
 24 25  1  0  0  0
 33 34  1  0  0  0
M  END
> <minimizedAffinity>
-8.65505

> <CNNscore>
0.1822015643

> <CNNaffinity>
6.8874983788

> <CNN_VS>
1.2549129725

> <CNNaffinity_variance>
0.1114605218

$$$$
[H]OC([H])(c1c([H])c([H])c(C([H])([H])N2C([H])([H])C([H])([H])[C@@]([H])(C([H])([H])N(C([H])([H])[H])C([H])([H])[H])C2([H])[H])c(C(F)(F)F)c1[H])N([H])c1c([H])c([H])c(C([H])([H])[H])c(N([H])c2nc([H])c([H])c(-c3c([H])nc([H])nc3[H])n2)c1[H]


 46 50  0  0  0  0  0  0  0  0999 V2000
  -16.4548   11.0256  -20.1479 C   0  0  0  0  0  0  0  0  0  0  0  0
  -15.8684    9.7359  -20.1107 O   0  0  0  0  0  0  0  0  0  0  0  0
  -15.0388    9.7174  -19.5977 H   0  0  0  0  0  0  0  0  0  0  0  0
  -19.6588   11.2334  -17.2232 C   0  0  0  0  0  0  0  0  0  0  0  0
  -18.9215   10.0743  -17.4390 C   0  0  0  0  0  0  0  0  0  0  0  0
  -17.8897    9.9910  -18.3703 C   0  0  0  0  0  0  0  0  0  0  0  0
  -17.5605   11.0892  -19.1266 C   0  0  0  0  0  0  0  0  0  0  0  0
  -18.2809   12.2362  -18.9207 C   0  0  0  0  0  0  0  0  0  0  0  0
  -19.3246   12.3345  -17.9848 C   0  0  0  0  0  0  0  0  0  0  0  0
  -20.0307   13.6137  -17.8532 C   0  0  0  0  0  0  0  0  0  0  0  0
  -21.3961   13.5444  -18.0286 F   0  0  0  0  0  0  0  0  0  0  0  0
  -19.5917   14.4825  -18.8664 F   0  0  0  0  0  0  0  0  0  0  0  0
  -19.7050   14.2814  -16.6803 F   0  0  0  0  0  0  0  0  0  0  0  0
  -20.7316   11.3507  -16.2370 C   0  0  0  0  0  0  0  0  0  0  0  0
  -21.1309   10.2681  -13.2414 C   0  0  0  0  0  0  0  0  0  0  0  0
  -22.2521   11.1644  -13.6612 C   0  0  0  0  0  0  0  0  0  0  0  0
  -21.4977   12.3176  -14.2842 C   0  0  0  0  0  0  0  0  0  0  0  0
  -20.3134   11.7582  -14.9051 N   0  0  0  0  0  0  0  0  0  0  0  0
  -19.9435   10.6831  -14.0539 C   0  0  0  0  0  0  0  0  0  0  0  0
  -21.4728    8.8042  -13.3558 C   0  0  0  0  0  0  0  0  0  0  0  0
  -19.8487    7.0518  -13.4847 C   0  0  0  0  0  0  0  0  0  0  0  0
  -20.5351    8.1017  -14.2099 N   0  0  0  0  0  0  0  0  0  0  0  0
  -21.2126    7.4793  -15.3382 C   0  0  0  0  0  0  0  0  0  0  0  0
  -16.9546   11.2239  -21.4712 N   0  0  0  0  0  0  0  0  0  0  0  0
  -17.6138   10.5026  -21.8612 H   0  0  0  0  0  0  0  0  0  0  0  0
  -16.6003   12.3258  -22.2462 C   0  0  0  0  0  0  0  0  0  0  0  0
  -15.4492   12.3325  -22.9854 C   0  0  0  0  0  0  0  0  0  0  0  0
  -15.1045   13.4395  -23.7631 C   0  0  0  0  0  0  0  0  0  0  0  0
  -15.9213   14.5306  -23.7904 C   0  0  0  0  0  0  0  0  0  0  0  0
  -15.5014   15.6835  -24.6396 C   0  0  0  0  0  0  0  0  0  0  0  0
  -17.1150   14.5725  -23.0484 C   0  0  0  0  0  0  0  0  0  0  0  0
  -17.4110   13.4583  -22.2979 C   0  0  0  0  0  0  0  0  0  0  0  0
  -17.8476   15.7547  -23.1655 N   0  0  0  0  0  0  0  0  0  0  0  0
  -18.3893   15.9590  -24.0831 H   0  0  0  0  0  0  0  0  0  0  0  0
  -17.9724   16.7666  -22.1846 C   0  0  0  0  0  0  0  0  0  0  0  0
  -17.7556   16.6615  -20.8812 N   0  0  0  0  0  0  0  0  0  0  0  0
  -17.8718   17.6140  -19.9585 C   0  0  0  0  0  0  0  0  0  0  0  0
  -18.2622   18.8664  -20.3865 C   0  0  0  0  0  0  0  0  0  0  0  0
  -18.5035   19.0453  -21.7286 C   0  0  0  0  0  0  0  0  0  0  0  0
  -18.3618   18.0270  -22.5925 N   0  0  0  0  0  0  0  0  0  0  0  0
  -18.9233   20.3587  -22.2684 C   0  0  0  0  0  0  0  0  0  0  0  0
  -18.9453   21.4661  -21.4510 C   0  0  0  0  0  0  0  0  0  0  0  0
  -19.3299   22.6507  -21.9524 N   0  0  0  0  0  0  0  0  0  0  0  0
  -19.7003   22.8108  -23.2335 C   0  0  0  0  0  0  0  0  0  0  0  0
  -19.6877   21.7520  -24.0457 N   0  0  0  0  0  0  0  0  0  0  0  0
  -19.2992   20.5262  -23.5648 C   0  0  0  0  0  0  0  0  0  0  0  0
 21 22  1  0  0  0
 22 23  1  0  0  0
 22 20  1  0  0  0
 20 15  1  0  0  0
 15 16  1  0  0  0
 16 17  1  0  0  0
 17 18  1  0  0  0
 18 14  1  0  0  0
 14  4  1  0  0  0
  4  5  2  0  0  0
  5  6  1  0  0  0
  6  7  2  0  0  0
  7  8  1  0  0  0
  8  9  2  0  0  0
  9 10  1  0  0  0
 10 11  1  0  0  0
 10 12  1  0  0  0
 10 13  1  0  0  0
  7  1  1  0  0  0
  1  2  1  0  0  0
  1 24  1  0  0  0
 24 26  1  0  0  0
 26 27  2  0  0  0
 27 28  1  0  0  0
 28 29  2  0  0  0
 29 30  1  0  0  0
 29 31  1  0  0  0
 31 33  1  0  0  0
 33 35  1  0  0  0
 35 36  2  0  0  0
 36 37  1  0  0  0
 37 38  2  0  0  0
 38 39  1  0  0  0
 39 40  2  0  0  0
 39 41  1  0  0  0
 41 42  2  0  0  0
 42 43  1  0  0  0
 43 44  2  0  0  0
 44 45  1  0  0  0
 45 46  2  0  0  0
 31 32  2  0  0  0
 18 19  1  0  0  0
 19 15  1  0  0  0
  9  4  1  0  0  0
 32 26  1  0  0  0
 40 35  1  0  0  0
 46 41  1  0  0  0
  2  3  1  0  0  0
 24 25  1  0  0  0
 33 34  1  0  0  0
M  END
> <minimizedAffinity>
-8.78134

> <CNNscore>
0.1472011358

> <CNNaffinity>
7.3215217590

> <CNN_VS>
1.0777363777

> <CNNaffinity_variance>
0.0624553636

$$$$
[H]OC([H])(c1c([H])c([H])c(C([H])([H])N2C([H])([H])C([H])([H])[C@@]([H])(C([H])([H])N(C([H])([H])[H])C([H])([H])[H])C2([H])[H])c(C(F)(F)F)c1[H])N([H])c1c([H])c([H])c(C([H])([H])[H])c(N([H])c2nc([H])c([H])c(-c3c([H])nc([H])nc3[H])n2)c1[H]


 46 50  0  0  0  0  0  0  0  0999 V2000
  -16.7009   11.0701  -19.9824 C   0  0  0  0  0  0  0  0  0  0  0  0
  -16.0562    9.8092  -19.9264 O   0  0  0  0  0  0  0  0  0  0  0  0
  -15.2199    9.8393  -19.4250 H   0  0  0  0  0  0  0  0  0  0  0  0
  -19.8349   11.1530  -16.9768 C   0  0  0  0  0  0  0  0  0  0  0  0
  -19.6438   12.1909  -17.8822 C   0  0  0  0  0  0  0  0  0  0  0  0
  -18.6461   12.1795  -18.8535 C   0  0  0  0  0  0  0  0  0  0  0  0
  -17.7949   11.1058  -18.9472 C   0  0  0  0  0  0  0  0  0  0  0  0
  -17.9756   10.0778  -18.0598 C   0  0  0  0  0  0  0  0  0  0  0  0
  -18.9778   10.0761  -17.0746 C   0  0  0  0  0  0  0  0  0  0  0  0
  -19.0746    8.9216  -16.1745 C   0  0  0  0  0  0  0  0  0  0  0  0
  -18.9292    9.2149  -14.8356 F   0  0  0  0  0  0  0  0  0  0  0  0
  -18.0205    8.0359  -16.4548 F   0  0  0  0  0  0  0  0  0  0  0  0
  -20.2145    8.1632  -16.4049 F   0  0  0  0  0  0  0  0  0  0  0  0
  -20.8879   11.1333  -15.9629 C   0  0  0  0  0  0  0  0  0  0  0  0
  -22.0661   11.5054  -13.0000 C   0  0  0  0  0  0  0  0  0  0  0  0
  -22.9500   12.1318  -14.0310 C   0  0  0  0  0  0  0  0  0  0  0  0
  -21.9428   12.8779  -14.8771 C   0  0  0  0  0  0  0  0  0  0  0  0
  -20.7274   12.0880  -14.8776 N   0  0  0  0  0  0  0  0  0  0  0  0
  -20.6874   11.5019  -13.5844 C   0  0  0  0  0  0  0  0  0  0  0  0
  -22.5491   10.1478  -12.5564 C   0  0  0  0  0  0  0  0  0  0  0  0
  -21.3141    8.1215  -12.2498 C   0  0  0  0  0  0  0  0  0  0  0  0
  -21.8187    9.0804  -13.2117 N   0  0  0  0  0  0  0  0  0  0  0  0
  -22.6686    8.3543  -14.1444 C   0  0  0  0  0  0  0  0  0  0  0  0
  -17.2266   11.2169  -21.3024 N   0  0  0  0  0  0  0  0  0  0  0  0
  -18.0139   10.5819  -21.5918 H   0  0  0  0  0  0  0  0  0  0  0  0
  -16.7351   12.1606  -22.2015 C   0  0  0  0  0  0  0  0  0  0  0  0
  -15.4632   12.0728  -22.6975 C   0  0  0  0  0  0  0  0  0  0  0  0
  -14.9806   13.0205  -23.6019 C   0  0  0  0  0  0  0  0  0  0  0  0
  -15.7824   14.0488  -23.9997 C   0  0  0  0  0  0  0  0  0  0  0  0
  -15.2124   15.0309  -24.9680 C   0  0  0  0  0  0  0  0  0  0  0  0
  -17.0968   14.1831  -23.5186 C   0  0  0  0  0  0  0  0  0  0  0  0
  -17.5263   13.2250  -22.6299 C   0  0  0  0  0  0  0  0  0  0  0  0
  -17.7991   15.2868  -24.0052 N   0  0  0  0  0  0  0  0  0  0  0  0
  -18.1958   15.2650  -25.0148 H   0  0  0  0  0  0  0  0  0  0  0  0
  -18.0660   16.4876  -23.3063 C   0  0  0  0  0  0  0  0  0  0  0  0
  -18.1944   17.7065  -23.8112 N   0  0  0  0  0  0  0  0  0  0  0  0
  -18.4468   18.8361  -23.1536 C   0  0  0  0  0  0  0  0  0  0  0  0
  -18.5968   18.7523  -21.7845 C   0  0  0  0  0  0  0  0  0  0  0  0
  -18.4761   17.5155  -21.1951 C   0  0  0  0  0  0  0  0  0  0  0  0
  -18.2197   16.4250  -21.9355 N   0  0  0  0  0  0  0  0  0  0  0  0
  -18.6260   17.3404  -19.7323 C   0  0  0  0  0  0  0  0  0  0  0  0
  -19.3667   18.2414  -19.0013 C   0  0  0  0  0  0  0  0  0  0  0  0
  -19.4929   18.0723  -17.6753 N   0  0  0  0  0  0  0  0  0  0  0  0
  -18.9225   17.0503  -17.0165 C   0  0  0  0  0  0  0  0  0  0  0  0
  -18.1991   16.1636  -17.7032 N   0  0  0  0  0  0  0  0  0  0  0  0
  -18.0505   16.3072  -19.0604 C   0  0  0  0  0  0  0  0  0  0  0  0
 21 22  1  0  0  0
 22 23  1  0  0  0
 22 20  1  0  0  0
 20 15  1  0  0  0
 15 16  1  0  0  0
 16 17  1  0  0  0
 17 18  1  0  0  0
 18 14  1  0  0  0
 14  4  1  0  0  0
  4  5  2  0  0  0
  5  6  1  0  0  0
  6  7  2  0  0  0
  7  8  1  0  0  0
  8  9  2  0  0  0
  9 10  1  0  0  0
 10 11  1  0  0  0
 10 12  1  0  0  0
 10 13  1  0  0  0
  7  1  1  0  0  0
  1  2  1  0  0  0
  1 24  1  0  0  0
 24 26  1  0  0  0
 26 27  2  0  0  0
 27 28  1  0  0  0
 28 29  2  0  0  0
 29 30  1  0  0  0
 29 31  1  0  0  0
 31 33  1  0  0  0
 33 35  1  0  0  0
 35 36  2  0  0  0
 36 37  1  0  0  0
 37 38  2  0  0  0
 38 39  1  0  0  0
 39 40  2  0  0  0
 39 41  1  0  0  0
 41 42  2  0  0  0
 42 43  1  0  0  0
 43 44  2  0  0  0
 44 45  1  0  0  0
 45 46  2  0  0  0
 31 32  2  0  0  0
 18 19  1  0  0  0
 19 15  1  0  0  0
  9  4  1  0  0  0
 32 26  1  0  0  0
 40 35  1  0  0  0
 46 41  1  0  0  0
  2  3  1  0  0  0
 24 25  1  0  0  0
 33 34  1  0  0  0
M  END
> <minimizedAffinity>
-8.94036

> <CNNscore>
0.1321247518

> <CNNaffinity>
7.3268637657

> <CNN_VS>
0.9680600762

> <CNNaffinity_variance>
0.1170236841

$$$$
[H]OC([H])(c1c([H])c([H])c(C([H])([H])N2C([H])([H])C([H])([H])[C@@]([H])(C([H])([H])N(C([H])([H])[H])C([H])([H])[H])C2([H])[H])c(C(F)(F)F)c1[H])N([H])c1c([H])c([H])c(C([H])([H])[H])c(N([H])c2nc([H])c([H])c(-c3c([H])nc([H])nc3[H])n2)c1[H]


 46 50  0  0  0  0  0  0  0  0999 V2000
  -18.4042   14.1054  -17.3967 C   0  0  0  0  0  0  0  0  0  0  0  0
  -18.8417   13.8204  -16.0792 O   0  0  0  0  0  0  0  0  0  0  0  0
  -18.1672   14.0336  -15.4074 H   0  0  0  0  0  0  0  0  0  0  0  0
  -20.0871   17.9060  -18.6561 C   0  0  0  0  0  0  0  0  0  0  0  0
  -19.4565   17.7412  -17.4277 C   0  0  0  0  0  0  0  0  0  0  0  0
  -18.9094   16.5310  -17.0093 C   0  0  0  0  0  0  0  0  0  0  0  0
  -18.9796   15.4296  -17.8268 C   0  0  0  0  0  0  0  0  0  0  0  0
  -19.5985   15.5822  -19.0396 C   0  0  0  0  0  0  0  0  0  0  0  0
  -20.1551   16.7971  -19.4744 C   0  0  0  0  0  0  0  0  0  0  0  0
  -20.7984   16.8420  -20.7921 C   0  0  0  0  0  0  0  0  0  0  0  0
  -22.0603   16.2897  -20.8419 F   0  0  0  0  0  0  0  0  0  0  0  0
  -20.0442   16.0724  -21.6937 F   0  0  0  0  0  0  0  0  0  0  0  0
  -20.7814   18.1143  -21.3478 F   0  0  0  0  0  0  0  0  0  0  0  0
  -20.6498   19.1710  -19.1253 C   0  0  0  0  0  0  0  0  0  0  0  0
  -23.4933   20.2707  -20.1304 C   0  0  0  0  0  0  0  0  0  0  0  0
  -22.5140   21.3805  -19.9159 C   0  0  0  0  0  0  0  0  0  0  0  0
  -21.9313   21.0109  -18.5702 C   0  0  0  0  0  0  0  0  0  0  0  0
  -21.9062   19.5630  -18.5066 N   0  0  0  0  0  0  0  0  0  0  0  0
  -23.0629   19.1586  -19.2248 C   0  0  0  0  0  0  0  0  0  0  0  0
  -23.6214   19.8700  -21.5782 C   0  0  0  0  0  0  0  0  0  0  0  0
  -22.1521   20.2450  -23.4291 C   0  0  0  0  0  0  0  0  0  0  0  0
  -23.0365   20.8607  -22.4606 N   0  0  0  0  0  0  0  0  0  0  0  0
  -24.0630   21.5778  -23.2034 C   0  0  0  0  0  0  0  0  0  0  0  0
  -18.8618   13.0414  -18.2327 N   0  0  0  0  0  0  0  0  0  0  0  0
  -19.8875   12.8076  -18.2142 H   0  0  0  0  0  0  0  0  0  0  0  0
  -18.0038   12.3174  -19.0573 C   0  0  0  0  0  0  0  0  0  0  0  0
  -17.2881   11.2547  -18.5778 C   0  0  0  0  0  0  0  0  0  0  0  0
  -16.4341   10.5317  -19.4127 C   0  0  0  0  0  0  0  0  0  0  0  0
  -16.3076   10.8844  -20.7235 C   0  0  0  0  0  0  0  0  0  0  0  0
  -15.3805   10.0751  -21.5675 C   0  0  0  0  0  0  0  0  0  0  0  0
  -17.0214   11.9687  -21.2640 C   0  0  0  0  0  0  0  0  0  0  0  0
  -17.8494   12.6496  -20.4020 C   0  0  0  0  0  0  0  0  0  0  0  0
  -16.7884   12.2198  -22.6170 N   0  0  0  0  0  0  0  0  0  0  0  0
  -17.0650   11.4735  -23.3544 H   0  0  0  0  0  0  0  0  0  0  0  0
  -16.2054   13.3857  -23.1671 C   0  0  0  0  0  0  0  0  0  0  0  0
  -15.1386   13.4652  -23.9497 N   0  0  0  0  0  0  0  0  0  0  0  0
  -14.5910   14.5622  -24.4682 C   0  0  0  0  0  0  0  0  0  0  0  0
  -15.1875   15.7701  -24.1696 C   0  0  0  0  0  0  0  0  0  0  0  0
  -16.3004   15.7596  -23.3616 C   0  0  0  0  0  0  0  0  0  0  0  0
  -16.7876   14.6045  -22.8802 N   0  0  0  0  0  0  0  0  0  0  0  0
  -17.0002   17.0125  -22.9965 C   0  0  0  0  0  0  0  0  0  0  0  0
  -17.6883   17.7232  -23.9537 C   0  0  0  0  0  0  0  0  0  0  0  0
  -18.3168   18.8588  -23.6099 N   0  0  0  0  0  0  0  0  0  0  0  0
  -18.3068   19.3432  -22.3572 C   0  0  0  0  0  0  0  0  0  0  0  0
  -17.6462   18.6722  -21.4114 N   0  0  0  0  0  0  0  0  0  0  0  0
  -16.9932   17.5072  -21.7294 C   0  0  0  0  0  0  0  0  0  0  0  0
 21 22  1  0  0  0
 22 23  1  0  0  0
 22 20  1  0  0  0
 20 15  1  0  0  0
 15 16  1  0  0  0
 16 17  1  0  0  0
 17 18  1  0  0  0
 18 14  1  0  0  0
 14  4  1  0  0  0
  4  5  2  0  0  0
  5  6  1  0  0  0
  6  7  2  0  0  0
  7  8  1  0  0  0
  8  9  2  0  0  0
  9 10  1  0  0  0
 10 11  1  0  0  0
 10 12  1  0  0  0
 10 13  1  0  0  0
  7  1  1  0  0  0
  1  2  1  0  0  0
  1 24  1  0  0  0
 24 26  1  0  0  0
 26 27  2  0  0  0
 27 28  1  0  0  0
 28 29  2  0  0  0
 29 30  1  0  0  0
 29 31  1  0  0  0
 31 33  1  0  0  0
 33 35  1  0  0  0
 35 36  2  0  0  0
 36 37  1  0  0  0
 37 38  2  0  0  0
 38 39  1  0  0  0
 39 40  2  0  0  0
 39 41  1  0  0  0
 41 42  2  0  0  0
 42 43  1  0  0  0
 43 44  2  0  0  0
 44 45  1  0  0  0
 45 46  2  0  0  0
 31 32  2  0  0  0
 18 19  1  0  0  0
 19 15  1  0  0  0
  9  4  1  0  0  0
 32 26  1  0  0  0
 40 35  1  0  0  0
 46 41  1  0  0  0
  2  3  1  0  0  0
 24 25  1  0  0  0
 33 34  1  0  0  0
M  END
> <minimizedAffinity>
-8.42469

> <CNNscore>
0.1199977472

> <CNNaffinity>
7.0626235008

> <CNN_VS>
0.8474988937

> <CNNaffinity_variance>
0.5990667939

$$$$
[H]OC([H])(c1c([H])c([H])c(C([H])([H])N2C([H])([H])C([H])([H])[C@@]([H])(C([H])([H])N(C([H])([H])[H])C([H])([H])[H])C2([H])[H])c(C(F)(F)F)c1[H])N([H])c1c([H])c([H])c(C([H])([H])[H])c(N([H])c2nc([H])c([H])c(-c3c([H])nc([H])nc3[H])n2)c1[H]


 46 50  0  0  0  0  0  0  0  0999 V2000
  -17.5577   18.5545  -20.5655 C   0  0  0  0  0  0  0  0  0  0  0  0
  -17.5321   19.1703  -19.2893 O   0  0  0  0  0  0  0  0  0  0  0  0
  -17.1605   20.0718  -19.3170 H   0  0  0  0  0  0  0  0  0  0  0  0
  -21.5757   18.8807  -22.1817 C   0  0  0  0  0  0  0  0  0  0  0  0
  -20.5352   19.7020  -22.6016 C   0  0  0  0  0  0  0  0  0  0  0  0
  -19.2410   19.6093  -22.0962 C   0  0  0  0  0  0  0  0  0  0  0  0
  -18.9468   18.6717  -21.1367 C   0  0  0  0  0  0  0  0  0  0  0  0
  -19.9654   17.8572  -20.7169 C   0  0  0  0  0  0  0  0  0  0  0  0
  -21.2758   17.9398  -21.2179 C   0  0  0  0  0  0  0  0  0  0  0  0
  -22.2879   17.0181  -20.6902 C   0  0  0  0  0  0  0  0  0  0  0  0
  -23.2012   16.5651  -21.6178 F   0  0  0  0  0  0  0  0  0  0  0  0
  -23.0656   17.6939  -19.7350 F   0  0  0  0  0  0  0  0  0  0  0  0
  -21.7277   15.9666  -19.9772 F   0  0  0  0  0  0  0  0  0  0  0  0
  -22.9363   18.9454  -22.7125 C   0  0  0  0  0  0  0  0  0  0  0  0
  -22.6771   20.1507  -25.6765 C   0  0  0  0  0  0  0  0  0  0  0  0
  -24.0406   20.3743  -25.1043 C   0  0  0  0  0  0  0  0  0  0  0  0
  -24.3548   19.0091  -24.5344 C   0  0  0  0  0  0  0  0  0  0  0  0
  -23.1011   18.4493  -24.0696 N   0  0  0  0  0  0  0  0  0  0  0  0
  -22.1352   18.9347  -24.9910 C   0  0  0  0  0  0  0  0  0  0  0  0
  -21.7879   21.3636  -25.5706 C   0  0  0  0  0  0  0  0  0  0  0  0
  -21.6150   21.6543  -27.9393 C   0  0  0  0  0  0  0  0  0  0  0  0
  -20.8861   21.4653  -26.7015 N   0  0  0  0  0  0  0  0  0  0  0  0
  -19.9796   22.5949  -26.5539 C   0  0  0  0  0  0  0  0  0  0  0  0
  -17.1823   17.1885  -20.3825 N   0  0  0  0  0  0  0  0  0  0  0  0
  -17.2180   16.7949  -19.4074 H   0  0  0  0  0  0  0  0  0  0  0  0
  -16.7777   16.3769  -21.4399 C   0  0  0  0  0  0  0  0  0  0  0  0
  -16.1235   16.8967  -22.5231 C   0  0  0  0  0  0  0  0  0  0  0  0
  -15.7175   16.0750  -23.5761 C   0  0  0  0  0  0  0  0  0  0  0  0
  -15.9731   14.7367  -23.5301 C   0  0  0  0  0  0  0  0  0  0  0  0
  -15.5154   13.9086  -24.6840 C   0  0  0  0  0  0  0  0  0  0  0  0
  -16.6424   14.1544  -22.4391 C   0  0  0  0  0  0  0  0  0  0  0  0
  -17.0224   15.0049  -21.4269 C   0  0  0  0  0  0  0  0  0  0  0  0
  -16.8424   12.7761  -22.5301 N   0  0  0  0  0  0  0  0  0  0  0  0
  -16.9623   12.3167  -23.5056 H   0  0  0  0  0  0  0  0  0  0  0  0
  -16.9124   11.8641  -21.4506 C   0  0  0  0  0  0  0  0  0  0  0  0
  -16.1905   10.7673  -21.2695 N   0  0  0  0  0  0  0  0  0  0  0  0
  -16.2556    9.9101  -20.2532 C   0  0  0  0  0  0  0  0  0  0  0  0
  -17.1755   10.1745  -19.2592 C   0  0  0  0  0  0  0  0  0  0  0  0
  -17.9581   11.2984  -19.3845 C   0  0  0  0  0  0  0  0  0  0  0  0
  -17.8265   12.1110  -20.4455 N   0  0  0  0  0  0  0  0  0  0  0  0
  -18.9666   11.6541  -18.3602 C   0  0  0  0  0  0  0  0  0  0  0  0
  -19.5748   12.8887  -18.3894 C   0  0  0  0  0  0  0  0  0  0  0  0
  -20.4860   13.1993  -17.4536 N   0  0  0  0  0  0  0  0  0  0  0  0
  -20.8390   12.3506  -16.4742 C   0  0  0  0  0  0  0  0  0  0  0  0
  -20.2631   11.1478  -16.4245 N   0  0  0  0  0  0  0  0  0  0  0  0
  -19.3276   10.7982  -17.3665 C   0  0  0  0  0  0  0  0  0  0  0  0
 21 22  1  0  0  0
 22 23  1  0  0  0
 22 20  1  0  0  0
 20 15  1  0  0  0
 15 16  1  0  0  0
 16 17  1  0  0  0
 17 18  1  0  0  0
 18 14  1  0  0  0
 14  4  1  0  0  0
  4  5  2  0  0  0
  5  6  1  0  0  0
  6  7  2  0  0  0
  7  8  1  0  0  0
  8  9  2  0  0  0
  9 10  1  0  0  0
 10 11  1  0  0  0
 10 12  1  0  0  0
 10 13  1  0  0  0
  7  1  1  0  0  0
  1  2  1  0  0  0
  1 24  1  0  0  0
 24 26  1  0  0  0
 26 27  2  0  0  0
 27 28  1  0  0  0
 28 29  2  0  0  0
 29 30  1  0  0  0
 29 31  1  0  0  0
 31 33  1  0  0  0
 33 35  1  0  0  0
 35 36  2  0  0  0
 36 37  1  0  0  0
 37 38  2  0  0  0
 38 39  1  0  0  0
 39 40  2  0  0  0
 39 41  1  0  0  0
 41 42  2  0  0  0
 42 43  1  0  0  0
 43 44  2  0  0  0
 44 45  1  0  0  0
 45 46  2  0  0  0
 31 32  2  0  0  0
 18 19  1  0  0  0
 19 15  1  0  0  0
  9  4  1  0  0  0
 32 26  1  0  0  0
 40 35  1  0  0  0
 46 41  1  0  0  0
  2  3  1  0  0  0
 24 25  1  0  0  0
 33 34  1  0  0  0
M  END
> <minimizedAffinity>
-8.94379

> <CNNscore>
0.1111761704

> <CNNaffinity>
7.2044763565

> <CNN_VS>
0.8009660840

> <CNNaffinity_variance>
0.2820564508

$$$$
[H]OC([H])(c1c([H])c([H])c(C([H])([H])N2C([H])([H])C([H])([H])[C@@]([H])(C([H])([H])N(C([H])([H])[H])C([H])([H])[H])C2([H])[H])c(C(F)(F)F)c1[H])N([H])c1c([H])c([H])c(C([H])([H])[H])c(N([H])c2nc([H])c([H])c(-c3c([H])nc([H])nc3[H])n2)c1[H]


 46 50  0  0  0  0  0  0  0  0999 V2000
  -17.3464   10.1382  -19.5611 C   0  0  0  0  0  0  0  0  0  0  0  0
  -16.0653    9.5930  -19.8259 O   0  0  0  0  0  0  0  0  0  0  0  0
  -16.0949    8.8710  -20.4813 H   0  0  0  0  0  0  0  0  0  0  0  0
  -17.8031   13.7879  -21.8707 C   0  0  0  0  0  0  0  0  0  0  0  0
  -18.6206   13.4849  -20.7873 C   0  0  0  0  0  0  0  0  0  0  0  0
  -18.4864   12.3212  -20.0346 C   0  0  0  0  0  0  0  0  0  0  0  0
  -17.5091   11.4099  -20.3523 C   0  0  0  0  0  0  0  0  0  0  0  0
  -16.6982   11.6998  -21.4178 C   0  0  0  0  0  0  0  0  0  0  0  0
  -16.8224   12.8699  -22.1862 C   0  0  0  0  0  0  0  0  0  0  0  0
  -15.9001   13.0729  -23.3089 C   0  0  0  0  0  0  0  0  0  0  0  0
  -16.4588   12.9044  -24.5576 F   0  0  0  0  0  0  0  0  0  0  0  0
  -14.8855   12.1030  -23.2461 F   0  0  0  0  0  0  0  0  0  0  0  0
  -15.2135   14.2765  -23.2206 F   0  0  0  0  0  0  0  0  0  0  0  0
  -17.9114   15.0122  -22.6621 C   0  0  0  0  0  0  0  0  0  0  0  0
  -19.0786   18.0012  -22.7564 C   0  0  0  0  0  0  0  0  0  0  0  0
  -17.9296   17.8247  -23.6973 C   0  0  0  0  0  0  0  0  0  0  0  0
  -16.9330   17.0986  -22.8216 C   0  0  0  0  0  0  0  0  0  0  0  0
  -17.6979   16.2501  -21.9293 N   0  0  0  0  0  0  0  0  0  0  0  0
  -18.8834   16.9885  -21.6707 C   0  0  0  0  0  0  0  0  0  0  0  0
  -20.4190   17.9173  -23.4414 C   0  0  0  0  0  0  0  0  0  0  0  0
  -21.1938   20.0762  -24.1225 C   0  0  0  0  0  0  0  0  0  0  0  0
  -21.2628   19.0474  -23.1047 N   0  0  0  0  0  0  0  0  0  0  0  0
  -22.6575   18.6476  -22.9843 C   0  0  0  0  0  0  0  0  0  0  0  0
  -17.4175   10.3852  -18.1560 N   0  0  0  0  0  0  0  0  0  0  0  0
  -16.5679   10.7874  -17.6835 H   0  0  0  0  0  0  0  0  0  0  0  0
  -18.5601   10.1136  -17.4067 C   0  0  0  0  0  0  0  0  0  0  0  0
  -19.4906   11.0843  -17.1551 C   0  0  0  0  0  0  0  0  0  0  0  0
  -20.6351   10.8019  -16.4072 C   0  0  0  0  0  0  0  0  0  0  0  0
  -20.8337    9.5447  -15.9188 C   0  0  0  0  0  0  0  0  0  0  0  0
  -22.0749    9.3021  -15.1269 C   0  0  0  0  0  0  0  0  0  0  0  0
  -19.9068    8.5128  -16.1499 C   0  0  0  0  0  0  0  0  0  0  0  0
  -18.7956    8.8402  -16.8917 C   0  0  0  0  0  0  0  0  0  0  0  0
  -20.2353    7.2798  -15.5842 N   0  0  0  0  0  0  0  0  0  0  0  0
  -20.8731    6.5937  -16.1315 H   0  0  0  0  0  0  0  0  0  0  0  0
  -19.8172    6.7964  -14.3219 C   0  0  0  0  0  0  0  0  0  0  0  0
  -19.8008    5.5394  -13.9016 N   0  0  0  0  0  0  0  0  0  0  0  0
  -19.4062    5.0846  -12.7144 C   0  0  0  0  0  0  0  0  0  0  0  0
  -18.9569    6.0129  -11.7976 C   0  0  0  0  0  0  0  0  0  0  0  0
  -18.9471    7.3369  -12.1695 C   0  0  0  0  0  0  0  0  0  0  0  0
  -19.3639    7.7094  -13.3905 N   0  0  0  0  0  0  0  0  0  0  0  0
  -18.4774    8.3942  -11.2452 C   0  0  0  0  0  0  0  0  0  0  0  0
  -17.4193    8.1513  -10.3988 C   0  0  0  0  0  0  0  0  0  0  0  0
  -17.0047    9.1178   -9.5641 N   0  0  0  0  0  0  0  0  0  0  0  0
  -17.5812   10.3298   -9.5137 C   0  0  0  0  0  0  0  0  0  0  0  0
  -18.6091   10.5894  -10.3243 N   0  0  0  0  0  0  0  0  0  0  0  0
  -19.0577    9.6232  -11.1903 C   0  0  0  0  0  0  0  0  0  0  0  0
 21 22  1  0  0  0
 22 23  1  0  0  0
 22 20  1  0  0  0
 20 15  1  0  0  0
 15 16  1  0  0  0
 16 17  1  0  0  0
 17 18  1  0  0  0
 18 14  1  0  0  0
 14  4  1  0  0  0
  4  5  2  0  0  0
  5  6  1  0  0  0
  6  7  2  0  0  0
  7  8  1  0  0  0
  8  9  2  0  0  0
  9 10  1  0  0  0
 10 11  1  0  0  0
 10 12  1  0  0  0
 10 13  1  0  0  0
  7  1  1  0  0  0
  1  2  1  0  0  0
  1 24  1  0  0  0
 24 26  1  0  0  0
 26 27  2  0  0  0
 27 28  1  0  0  0
 28 29  2  0  0  0
 29 30  1  0  0  0
 29 31  1  0  0  0
 31 33  1  0  0  0
 33 35  1  0  0  0
 35 36  2  0  0  0
 36 37  1  0  0  0
 37 38  2  0  0  0
 38 39  1  0  0  0
 39 40  2  0  0  0
 39 41  1  0  0  0
 41 42  2  0  0  0
 42 43  1  0  0  0
 43 44  2  0  0  0
 44 45  1  0  0  0
 45 46  2  0  0  0
 31 32  2  0  0  0
 18 19  1  0  0  0
 19 15  1  0  0  0
  9  4  1  0  0  0
 32 26  1  0  0  0
 40 35  1  0  0  0
 46 41  1  0  0  0
  2  3  1  0  0  0
 24 25  1  0  0  0
 33 34  1  0  0  0
M  END
> <minimizedAffinity>
-9.82533

> <CNNscore>
0.1105875224

> <CNNaffinity>
6.6635446548

> <CNN_VS>
0.7369049191

> <CNNaffinity_variance>
0.1740430295

$$$$
[H]OC([H])(c1c([H])c([H])c(C([H])([H])N2C([H])([H])C([H])([H])[C@@]([H])(C([H])([H])N(C([H])([H])[H])C([H])([H])[H])C2([H])[H])c(C(F)(F)F)c1[H])N([H])c1c([H])c([H])c(C([H])([H])[H])c(N([H])c2nc([H])c([H])c(-c3c([H])nc([H])nc3[H])n2)c1[H]


 46 50  0  0  0  0  0  0  0  0999 V2000
  -16.4461   11.2217  -20.4707 C   0  0  0  0  0  0  0  0  0  0  0  0
  -15.7430   10.0075  -20.6713 O   0  0  0  0  0  0  0  0  0  0  0  0
  -14.8642   10.0105  -20.2476 H   0  0  0  0  0  0  0  0  0  0  0  0
  -19.3176   10.7056  -17.2534 C   0  0  0  0  0  0  0  0  0  0  0  0
  -18.4960    9.6726  -17.6911 C   0  0  0  0  0  0  0  0  0  0  0  0
  -17.5685    9.8214  -18.7190 C   0  0  0  0  0  0  0  0  0  0  0  0
  -17.4350   11.0341  -19.3498 C   0  0  0  0  0  0  0  0  0  0  0  0
  -18.2398   12.0583  -18.9251 C   0  0  0  0  0  0  0  0  0  0  0  0
  -19.1800   11.9223  -17.8896 C   0  0  0  0  0  0  0  0  0  0  0  0
  -19.9920   13.0876  -17.5220 C   0  0  0  0  0  0  0  0  0  0  0  0
  -21.3305   12.8242  -17.3248 F   0  0  0  0  0  0  0  0  0  0  0  0
  -19.9697   14.0107  -18.5810 F   0  0  0  0  0  0  0  0  0  0  0  0
  -19.4535   13.7944  -16.4552 F   0  0  0  0  0  0  0  0  0  0  0  0
  -20.2831   10.5790  -16.1631 C   0  0  0  0  0  0  0  0  0  0  0  0
  -20.6949    9.2696  -13.2612 C   0  0  0  0  0  0  0  0  0  0  0  0
  -21.6911   10.3528  -13.5271 C   0  0  0  0  0  0  0  0  0  0  0  0
  -20.8061   11.4443  -14.0862 C   0  0  0  0  0  0  0  0  0  0  0  0
  -19.7472   10.7880  -14.8274 N   0  0  0  0  0  0  0  0  0  0  0  0
  -19.4991    9.5917  -14.1030 C   0  0  0  0  0  0  0  0  0  0  0  0
  -21.2527    7.8875  -13.4889 C   0  0  0  0  0  0  0  0  0  0  0  0
  -19.9078    5.9589  -13.9325 C   0  0  0  0  0  0  0  0  0  0  0  0
  -20.4925    7.1625  -14.4882 N   0  0  0  0  0  0  0  0  0  0  0  0
  -21.3363    6.7606  -15.6045 C   0  0  0  0  0  0  0  0  0  0  0  0
  -17.1034   11.5365  -21.6992 N   0  0  0  0  0  0  0  0  0  0  0  0
  -17.9548   10.9758  -21.9593 H   0  0  0  0  0  0  0  0  0  0  0  0
  -16.6570   12.5472  -22.5476 C   0  0  0  0  0  0  0  0  0  0  0  0
  -15.3887   12.5345  -23.0601 C   0  0  0  0  0  0  0  0  0  0  0  0
  -14.9514   13.5491  -23.9135 C   0  0  0  0  0  0  0  0  0  0  0  0
  -15.7945   14.5682  -24.2441 C   0  0  0  0  0  0  0  0  0  0  0  0
  -15.2719   15.6240  -25.1601 C   0  0  0  0  0  0  0  0  0  0  0  0
  -17.1072   14.6264  -23.7434 C   0  0  0  0  0  0  0  0  0  0  0  0
  -17.4912   13.6043  -22.9067 C   0  0  0  0  0  0  0  0  0  0  0  0
  -17.8546   15.7294  -24.1592 N   0  0  0  0  0  0  0  0  0  0  0  0
  -18.2547   15.7544  -25.1674 H   0  0  0  0  0  0  0  0  0  0  0  0
  -18.1656   16.8732  -23.3868 C   0  0  0  0  0  0  0  0  0  0  0  0
  -18.3598   18.1119  -23.8167 N   0  0  0  0  0  0  0  0  0  0  0  0
  -18.6536   19.1878  -23.0899 C   0  0  0  0  0  0  0  0  0  0  0  0
  -18.7758   19.0171  -21.7261 C   0  0  0  0  0  0  0  0  0  0  0  0
  -18.5870   17.7553  -21.2127 C   0  0  0  0  0  0  0  0  0  0  0  0
  -18.2924   16.7234  -22.0200 N   0  0  0  0  0  0  0  0  0  0  0  0
  -18.7031   17.4881  -19.7609 C   0  0  0  0  0  0  0  0  0  0  0  0
  -19.6565   18.1410  -19.0127 C   0  0  0  0  0  0  0  0  0  0  0  0
  -19.7498   17.8912  -17.6968 N   0  0  0  0  0  0  0  0  0  0  0  0
  -18.9454   17.0212  -17.0643 C   0  0  0  0  0  0  0  0  0  0  0  0
  -18.0130   16.3759  -17.7681 N   0  0  0  0  0  0  0  0  0  0  0  0
  -17.8911   16.6080  -19.1157 C   0  0  0  0  0  0  0  0  0  0  0  0
 21 22  1  0  0  0
 22 23  1  0  0  0
 22 20  1  0  0  0
 20 15  1  0  0  0
 15 16  1  0  0  0
 16 17  1  0  0  0
 17 18  1  0  0  0
 18 14  1  0  0  0
 14  4  1  0  0  0
  4  5  2  0  0  0
  5  6  1  0  0  0
  6  7  2  0  0  0
  7  8  1  0  0  0
  8  9  2  0  0  0
  9 10  1  0  0  0
 10 11  1  0  0  0
 10 12  1  0  0  0
 10 13  1  0  0  0
  7  1  1  0  0  0
  1  2  1  0  0  0
  1 24  1  0  0  0
 24 26  1  0  0  0
 26 27  2  0  0  0
 27 28  1  0  0  0
 28 29  2  0  0  0
 29 30  1  0  0  0
 29 31  1  0  0  0
 31 33  1  0  0  0
 33 35  1  0  0  0
 35 36  2  0  0  0
 36 37  1  0  0  0
 37 38  2  0  0  0
 38 39  1  0  0  0
 39 40  2  0  0  0
 39 41  1  0  0  0
 41 42  2  0  0  0
 42 43  1  0  0  0
 43 44  2  0  0  0
 44 45  1  0  0  0
 45 46  2  0  0  0
 31 32  2  0  0  0
 18 19  1  0  0  0
 19 15  1  0  0  0
  9  4  1  0  0  0
 32 26  1  0  0  0
 40 35  1  0  0  0
 46 41  1  0  0  0
  2  3  1  0  0  0
 24 25  1  0  0  0
 33 34  1  0  0  0
M  END
> <minimizedAffinity>
-8.89593

> <CNNscore>
0.1050966009

> <CNNaffinity>
7.3989486694

> <CNN_VS>
0.7776043415

> <CNNaffinity_variance>
0.1520300508

$$$$
[H]OC([H])(c1c([H])c([H])c(C([H])([H])N2C([H])([H])C([H])([H])[C@@]([H])(C([H])([H])N(C([H])([H])[H])C([H])([H])[H])C2([H])[H])c(C(F)(F)F)c1[H])N([H])c1c([H])c([H])c(C([H])([H])[H])c(N([H])c2nc([H])c([H])c(-c3c([H])nc([H])nc3[H])n2)c1[H]


 46 50  0  0  0  0  0  0  0  0999 V2000
  -19.0748    9.2835  -16.7647 C   0  0  0  0  0  0  0  0  0  0  0  0
  -17.9450    8.4969  -16.4277 O   0  0  0  0  0  0  0  0  0  0  0  0
  -17.9220    7.6500  -16.9113 H   0  0  0  0  0  0  0  0  0  0  0  0
  -17.8711   12.2796  -19.6694 C   0  0  0  0  0  0  0  0  0  0  0  0
  -18.8122   12.5385  -18.6790 C   0  0  0  0  0  0  0  0  0  0  0  0
  -19.2076   11.5907  -17.7385 C   0  0  0  0  0  0  0  0  0  0  0  0
  -18.6596   10.3316  -17.7642 C   0  0  0  0  0  0  0  0  0  0  0  0
  -17.7309   10.0672  -18.7360 C   0  0  0  0  0  0  0  0  0  0  0  0
  -17.3228   11.0136  -19.6914 C   0  0  0  0  0  0  0  0  0  0  0  0
  -16.3235   10.6167  -20.6894 C   0  0  0  0  0  0  0  0  0  0  0  0
  -16.4185   11.2711  -21.8988 F   0  0  0  0  0  0  0  0  0  0  0  0
  -16.5123    9.2617  -21.0093 F   0  0  0  0  0  0  0  0  0  0  0  0
  -15.0285   10.6619  -20.1907 F   0  0  0  0  0  0  0  0  0  0  0  0
  -17.4252   13.2643  -20.6537 C   0  0  0  0  0  0  0  0  0  0  0  0
  -17.4767   15.8917  -22.4973 C   0  0  0  0  0  0  0  0  0  0  0  0
  -16.6426   16.0904  -21.2720 C   0  0  0  0  0  0  0  0  0  0  0  0
  -17.5461   15.5257  -20.1987 C   0  0  0  0  0  0  0  0  0  0  0  0
  -18.2807   14.4310  -20.8013 N   0  0  0  0  0  0  0  0  0  0  0  0
  -18.4838   14.8408  -22.1460 C   0  0  0  0  0  0  0  0  0  0  0  0
  -16.6574   15.5730  -23.7222 C   0  0  0  0  0  0  0  0  0  0  0  0
  -16.8764   13.7131  -25.2114 C   0  0  0  0  0  0  0  0  0  0  0  0
  -16.4767   14.1439  -23.8871 N   0  0  0  0  0  0  0  0  0  0  0  0
  -15.0826   13.7639  -23.7086 C   0  0  0  0  0  0  0  0  0  0  0  0
  -19.5525    9.8755  -15.5558 N   0  0  0  0  0  0  0  0  0  0  0  0
  -18.8911   10.4879  -15.0131 H   0  0  0  0  0  0  0  0  0  0  0  0
  -20.8465    9.6689  -15.0833 C   0  0  0  0  0  0  0  0  0  0  0  0
  -21.9380   10.0512  -15.8142 C   0  0  0  0  0  0  0  0  0  0  0  0
  -23.2314    9.8358  -15.3350 C   0  0  0  0  0  0  0  0  0  0  0  0
  -23.4157    9.2373  -14.1241 C   0  0  0  0  0  0  0  0  0  0  0  0
  -24.8204    9.0331  -13.6640 C   0  0  0  0  0  0  0  0  0  0  0  0
  -22.3265    8.8264  -13.3353 C   0  0  0  0  0  0  0  0  0  0  0  0
  -21.0726    9.0604  -13.8501 C   0  0  0  0  0  0  0  0  0  0  0  0
  -22.6635    8.2353  -12.1166 N   0  0  0  0  0  0  0  0  0  0  0  0
  -23.6537    8.3928  -11.7020 H   0  0  0  0  0  0  0  0  0  0  0  0
  -21.8276    7.4182  -11.3194 C   0  0  0  0  0  0  0  0  0  0  0  0
  -22.0584    6.1781  -10.9120 N   0  0  0  0  0  0  0  0  0  0  0  0
  -21.2713    5.4090  -10.1630 C   0  0  0  0  0  0  0  0  0  0  0  0
  -20.0683    5.9448   -9.7510 C   0  0  0  0  0  0  0  0  0  0  0  0
  -19.7653    7.2289  -10.1392 C   0  0  0  0  0  0  0  0  0  0  0  0
  -20.6193    7.9359  -10.8970 N   0  0  0  0  0  0  0  0  0  0  0  0
  -18.4938    7.8752   -9.7412 C   0  0  0  0  0  0  0  0  0  0  0  0
  -18.4658    9.2188   -9.4432 C   0  0  0  0  0  0  0  0  0  0  0  0
  -17.3060    9.7930   -9.0858 N   0  0  0  0  0  0  0  0  0  0  0  0
  -16.1528    9.1094   -9.0034 C   0  0  0  0  0  0  0  0  0  0  0  0
  -16.1541    7.8055   -9.2878 N   0  0  0  0  0  0  0  0  0  0  0  0
  -17.3233    7.1874   -9.6562 C   0  0  0  0  0  0  0  0  0  0  0  0
 21 22  1  0  0  0
 22 23  1  0  0  0
 22 20  1  0  0  0
 20 15  1  0  0  0
 15 16  1  0  0  0
 16 17  1  0  0  0
 17 18  1  0  0  0
 18 14  1  0  0  0
 14  4  1  0  0  0
  4  5  2  0  0  0
  5  6  1  0  0  0
  6  7  2  0  0  0
  7  8  1  0  0  0
  8  9  2  0  0  0
  9 10  1  0  0  0
 10 11  1  0  0  0
 10 12  1  0  0  0
 10 13  1  0  0  0
  7  1  1  0  0  0
  1  2  1  0  0  0
  1 24  1  0  0  0
 24 26  1  0  0  0
 26 27  2  0  0  0
 27 28  1  0  0  0
 28 29  2  0  0  0
 29 30  1  0  0  0
 29 31  1  0  0  0
 31 33  1  0  0  0
 33 35  1  0  0  0
 35 36  2  0  0  0
 36 37  1  0  0  0
 37 38  2  0  0  0
 38 39  1  0  0  0
 39 40  2  0  0  0
 39 41  1  0  0  0
 41 42  2  0  0  0
 42 43  1  0  0  0
 43 44  2  0  0  0
 44 45  1  0  0  0
 45 46  2  0  0  0
 31 32  2  0  0  0
 18 19  1  0  0  0
 19 15  1  0  0  0
  9  4  1  0  0  0
 32 26  1  0  0  0
 40 35  1  0  0  0
 46 41  1  0  0  0
  2  3  1  0  0  0
 24 25  1  0  0  0
 33 34  1  0  0  0
M  END
> <minimizedAffinity>
-8.86033

> <CNNscore>
0.1028244644

> <CNNaffinity>
6.1763982773

> <CNN_VS>
0.6350848675

> <CNNaffinity_variance>
0.5002172589

$$$$
[H]OC([H])(c1c([H])c([H])c(C([H])([H])N2C([H])([H])C([H])([H])[C@@]([H])(C([H])([H])N(C([H])([H])[H])C([H])([H])[H])C2([H])[H])c(C(F)(F)F)c1[H])N([H])c1c([H])c([H])c(C([H])([H])[H])c(N([H])c2nc([H])c([H])c(-c3c([H])nc([H])nc3[H])n2)c1[H]


 46 50  0  0  0  0  0  0  0  0999 V2000
  -17.2445   10.0592  -19.6394 C   0  0  0  0  0  0  0  0  0  0  0  0
  -16.0235    9.3500  -19.7612 O   0  0  0  0  0  0  0  0  0  0  0  0
  -16.1049    8.5613  -20.3297 H   0  0  0  0  0  0  0  0  0  0  0  0
  -17.1907   13.4714  -22.3257 C   0  0  0  0  0  0  0  0  0  0  0  0
  -16.3454   12.3798  -22.4914 C   0  0  0  0  0  0  0  0  0  0  0  0
  -16.3512   11.2769  -21.6415 C   0  0  0  0  0  0  0  0  0  0  0  0
  -17.2222   11.2356  -20.5803 C   0  0  0  0  0  0  0  0  0  0  0  0
  -18.0596   12.3062  -20.4091 C   0  0  0  0  0  0  0  0  0  0  0  0
  -18.0644   13.4257  -21.2587 C   0  0  0  0  0  0  0  0  0  0  0  0
  -19.0028   14.5172  -20.9754 C   0  0  0  0  0  0  0  0  0  0  0  0
  -18.5606   15.4383  -20.0503 F   0  0  0  0  0  0  0  0  0  0  0  0
  -20.1680   13.9792  -20.4035 F   0  0  0  0  0  0  0  0  0  0  0  0
  -19.4576   15.1392  -22.1304 F   0  0  0  0  0  0  0  0  0  0  0  0
  -17.2173   14.6301  -23.2167 C   0  0  0  0  0  0  0  0  0  0  0  0
  -16.9385   17.8216  -23.4203 C   0  0  0  0  0  0  0  0  0  0  0  0
  -16.6708   17.1568  -24.7329 C   0  0  0  0  0  0  0  0  0  0  0  0
  -15.7486   16.0325  -24.3176 C   0  0  0  0  0  0  0  0  0  0  0  0
  -16.1678   15.6121  -22.9952 N   0  0  0  0  0  0  0  0  0  0  0  0
  -16.6088   16.8080  -22.3685 C   0  0  0  0  0  0  0  0  0  0  0  0
  -18.3344   18.3821  -23.3178 C   0  0  0  0  0  0  0  0  0  0  0  0
  -18.4590   19.9980  -21.5575 C   0  0  0  0  0  0  0  0  0  0  0  0
  -18.7133   18.6236  -21.9393 N   0  0  0  0  0  0  0  0  0  0  0  0
  -20.1313   18.3692  -21.7292 C   0  0  0  0  0  0  0  0  0  0  0  0
  -17.3534   10.4811  -18.2791 N   0  0  0  0  0  0  0  0  0  0  0  0
  -16.5041   10.9059  -17.8263 H   0  0  0  0  0  0  0  0  0  0  0  0
  -18.5317   10.3486  -17.5480 C   0  0  0  0  0  0  0  0  0  0  0  0
  -19.3671   11.4137  -17.3497 C   0  0  0  0  0  0  0  0  0  0  0  0
  -20.5484   11.2706  -16.6197 C   0  0  0  0  0  0  0  0  0  0  0  0
  -20.8793   10.0565  -16.0952 C   0  0  0  0  0  0  0  0  0  0  0  0
  -22.1539    9.9640  -15.3247 C   0  0  0  0  0  0  0  0  0  0  0  0
  -20.0541    8.9316  -16.2710 C   0  0  0  0  0  0  0  0  0  0  0  0
  -18.9016    9.1229  -16.9971 C   0  0  0  0  0  0  0  0  0  0  0  0
  -20.5134    7.7571  -15.6730 N   0  0  0  0  0  0  0  0  0  0  0  0
  -21.3270    7.2060  -16.1329 H   0  0  0  0  0  0  0  0  0  0  0  0
  -20.0223    7.1731  -14.4815 C   0  0  0  0  0  0  0  0  0  0  0  0
  -19.9597    5.8844  -14.1778 N   0  0  0  0  0  0  0  0  0  0  0  0
  -19.4965    5.3351  -13.0573 C   0  0  0  0  0  0  0  0  0  0  0  0
  -19.0198    6.1884  -12.0833 C   0  0  0  0  0  0  0  0  0  0  0  0
  -19.0550    7.5402  -12.3340 C   0  0  0  0  0  0  0  0  0  0  0  0
  -19.5405    8.0100  -13.4945 N   0  0  0  0  0  0  0  0  0  0  0  0
  -18.5602    8.5217  -11.3418 C   0  0  0  0  0  0  0  0  0  0  0  0
  -17.5322    8.1847  -10.4906 C   0  0  0  0  0  0  0  0  0  0  0  0
  -17.0943    9.0832   -9.5942 N   0  0  0  0  0  0  0  0  0  0  0  0
  -17.6187   10.3150   -9.4855 C   0  0  0  0  0  0  0  0  0  0  0  0
  -18.6166   10.6653  -10.2995 N   0  0  0  0  0  0  0  0  0  0  0  0
  -19.0877    9.7703  -11.2278 C   0  0  0  0  0  0  0  0  0  0  0  0
 21 22  1  0  0  0
 22 23  1  0  0  0
 22 20  1  0  0  0
 20 15  1  0  0  0
 15 16  1  0  0  0
 16 17  1  0  0  0
 17 18  1  0  0  0
 18 14  1  0  0  0
 14  4  1  0  0  0
  4  5  2  0  0  0
  5  6  1  0  0  0
  6  7  2  0  0  0
  7  8  1  0  0  0
  8  9  2  0  0  0
  9 10  1  0  0  0
 10 11  1  0  0  0
 10 12  1  0  0  0
 10 13  1  0  0  0
  7  1  1  0  0  0
  1  2  1  0  0  0
  1 24  1  0  0  0
 24 26  1  0  0  0
 26 27  2  0  0  0
 27 28  1  0  0  0
 28 29  2  0  0  0
 29 30  1  0  0  0
 29 31  1  0  0  0
 31 33  1  0  0  0
 33 35  1  0  0  0
 35 36  2  0  0  0
 36 37  1  0  0  0
 37 38  2  0  0  0
 38 39  1  0  0  0
 39 40  2  0  0  0
 39 41  1  0  0  0
 41 42  2  0  0  0
 42 43  1  0  0  0
 43 44  2  0  0  0
 44 45  1  0  0  0
 45 46  2  0  0  0
 31 32  2  0  0  0
 18 19  1  0  0  0
 19 15  1  0  0  0
  9  4  1  0  0  0
 32 26  1  0  0  0
 40 35  1  0  0  0
 46 41  1  0  0  0
  2  3  1  0  0  0
 24 25  1  0  0  0
 33 34  1  0  0  0
M  END
> <minimizedAffinity>
-9.42848

> <CNNscore>
0.0923113227

> <CNNaffinity>
6.7032499313

> <CNN_VS>
0.6187858582

> <CNNaffinity_variance>
0.2114178240

$$$$
[H]c1c([H])c(Cl)c(-c2c([H])c3c([H])nc(N([H])c4c([H])c([H])c([H])c(SC([H])([H])[H])c4[H])nc3n(C([H])([H])[H])c2=O)c(Cl)c1[H]


 30 33  0  0  0  0  0  0  0  0999 V2000
  -16.7746   10.5726  -19.7784 C   0  0  0  0  0  0  0  0  0  0  0  0
  -15.8016   10.1708  -20.5692 N   0  0  0  0  0  0  0  0  0  0  0  0
  -15.5069   10.7670  -21.7311 C   0  0  0  0  0  0  0  0  0  0  0  0
  -16.2740   11.8697  -22.1175 C   0  0  0  0  0  0  0  0  0  0  0  0
  -16.0195   12.5192  -23.2937 C   0  0  0  0  0  0  0  0  0  0  0  0
  -16.7808   13.5942  -23.6521 C   0  0  0  0  0  0  0  0  0  0  0  0
  -17.7975   14.0145  -22.8264 C   0  0  0  0  0  0  0  0  0  0  0  0
  -18.5137   15.0008  -23.1316 O   0  0  0  0  0  0  0  0  0  0  0  0
  -18.0597   13.3933  -21.6762 N   0  0  0  0  0  0  0  0  0  0  0  0
  -19.1252   13.8112  -20.7818 C   0  0  0  0  0  0  0  0  0  0  0  0
  -17.3020   12.3161  -21.3101 C   0  0  0  0  0  0  0  0  0  0  0  0
  -17.5288   11.6628  -20.1661 N   0  0  0  0  0  0  0  0  0  0  0  0
  -16.4836   14.2668  -24.9154 C   0  0  0  0  0  0  0  0  0  0  0  0
  -15.7601   15.4394  -24.9007 C   0  0  0  0  0  0  0  0  0  0  0  0
  -15.1819   16.1530  -23.4011 Cl  0  0  0  0  0  0  0  0  0  0  0  0
  -15.4995   16.0458  -26.1207 C   0  0  0  0  0  0  0  0  0  0  0  0
  -15.9473   15.4971  -27.3074 C   0  0  0  0  0  0  0  0  0  0  0  0
  -16.6691   14.3260  -27.3164 C   0  0  0  0  0  0  0  0  0  0  0  0
  -16.9344   13.7153  -26.1186 C   0  0  0  0  0  0  0  0  0  0  0  0
  -17.8498   12.2194  -26.0570 Cl  0  0  0  0  0  0  0  0  0  0  0  0
  -17.0678    9.9332  -18.5628 N   0  0  0  0  0  0  0  0  0  0  0  0
  -16.3662    9.2134  -18.1785 H   0  0  0  0  0  0  0  0  0  0  0  0
  -19.8963   11.8271  -17.1587 C   0  0  0  0  0  0  0  0  0  0  0  0
  -20.5177   10.8199  -16.4501 C   0  0  0  0  0  0  0  0  0  0  0  0
  -20.0244    9.5373  -16.4147 C   0  0  0  0  0  0  0  0  0  0  0  0
  -18.8535    9.1943  -17.1066 C   0  0  0  0  0  0  0  0  0  0  0  0
  -18.2252   10.1753  -17.8137 C   0  0  0  0  0  0  0  0  0  0  0  0
  -18.7558   11.4816  -17.8301 C   0  0  0  0  0  0  0  0  0  0  0  0
  -19.1986   14.6980  -17.0743 C   0  0  0  0  0  0  0  0  0  0  0  0
  -20.5615   13.4927  -17.1873 S   0  0  0  0  0  0  0  0  0  0  0  0
 29 30  1  0  0  0
 30 23  1  0  0  0
 23 24  2  0  0  0
 24 25  1  0  0  0
 25 26  2  0  0  0
 26 27  1  0  0  0
 27 21  1  0  0  0
 21  1  1  0  0  0
  1  2  2  0  0  0
  2  3  1  0  0  0
  3  4  2  0  0  0
  4  5  1  0  0  0
  5  6  2  0  0  0
  6 13  1  0  0  0
 13 14  2  0  0  0
 14 15  1  0  0  0
 14 16  1  0  0  0
 16 17  2  0  0  0
 17 18  1  0  0  0
 18 19  2  0  0  0
 19 20  1  0  0  0
  6  7  1  0  0  0
  7  8  2  0  0  0
  7  9  1  0  0  0
  9 10  1  0  0  0
  9 11  1  0  0  0
 11 12  2  0  0  0
 27 28  2  0  0  0
 28 23  1  0  0  0
 12  1  1  0  0  0
 11  4  1  0  0  0
 19 13  1  0  0  0
 21 22  1  0  0  0
M  END
> <minimizedAffinity>
-10.44165

> <CNNscore>
0.9911593199

> <CNNaffinity>
8.0507221222

> <CNN_VS>
7.9795484543

> <CNNaffinity_variance>
0.0534840114

$$$$
[H]c1c([H])c(Cl)c(-c2c([H])c3c([H])nc(N([H])c4c([H])c([H])c([H])c(SC([H])([H])[H])c4[H])nc3n(C([H])([H])[H])c2=O)c(Cl)c1[H]


 30 33  0  0  0  0  0  0  0  0999 V2000
  -16.7471   10.5567  -19.7440 C   0  0  0  0  0  0  0  0  0  0  0  0
  -15.7820   10.1492  -20.5414 N   0  0  0  0  0  0  0  0  0  0  0  0
  -15.4932   10.7423  -21.7065 C   0  0  0  0  0  0  0  0  0  0  0  0
  -16.2582   11.8479  -22.0889 C   0  0  0  0  0  0  0  0  0  0  0  0
  -16.0096   12.4944  -23.2680 C   0  0  0  0  0  0  0  0  0  0  0  0
  -16.7686   13.5723  -23.6223 C   0  0  0  0  0  0  0  0  0  0  0  0
  -17.7771   13.9986  -22.7896 C   0  0  0  0  0  0  0  0  0  0  0  0
  -18.4911   14.9877  -23.0910 O   0  0  0  0  0  0  0  0  0  0  0  0
  -18.0335   13.3803  -21.6366 N   0  0  0  0  0  0  0  0  0  0  0  0
  -19.0903   13.8045  -20.7348 C   0  0  0  0  0  0  0  0  0  0  0  0
  -17.2781   12.3003  -21.2744 C   0  0  0  0  0  0  0  0  0  0  0  0
  -17.4992   11.6498  -20.1278 N   0  0  0  0  0  0  0  0  0  0  0  0
  -16.4779   14.2416  -24.8889 C   0  0  0  0  0  0  0  0  0  0  0  0
  -16.9418   13.6913  -26.0640 C   0  0  0  0  0  0  0  0  0  0  0  0
  -17.8765   12.2020  -26.0843 Cl  0  0  0  0  0  0  0  0  0  0  0  0
  -16.6442   14.3574  -27.2437 C   0  0  0  0  0  0  0  0  0  0  0  0
  -15.9106   15.5287  -27.2436 C   0  0  0  0  0  0  0  0  0  0  0  0
  -15.4500   16.0738  -26.0676 C   0  0  0  0  0  0  0  0  0  0  0  0
  -15.7361   15.4268  -24.8938 C   0  0  0  0  0  0  0  0  0  0  0  0
  -15.1796   16.0666  -23.3574 Cl  0  0  0  0  0  0  0  0  0  0  0  0
  -17.0341    9.9206  -18.5253 N   0  0  0  0  0  0  0  0  0  0  0  0
  -16.3064    9.2415  -18.1162 H   0  0  0  0  0  0  0  0  0  0  0  0
  -19.8436    9.1151  -16.2855 C   0  0  0  0  0  0  0  0  0  0  0  0
  -20.4918   10.3328  -16.2835 C   0  0  0  0  0  0  0  0  0  0  0  0
  -20.0337   11.4077  -17.0075 C   0  0  0  0  0  0  0  0  0  0  0  0
  -18.8730   11.3105  -17.7889 C   0  0  0  0  0  0  0  0  0  0  0  0
  -18.2173   10.1159  -17.8033 C   0  0  0  0  0  0  0  0  0  0  0  0
  -18.7126    9.0316  -17.0502 C   0  0  0  0  0  0  0  0  0  0  0  0
  -22.2738    7.8633  -15.1617 C   0  0  0  0  0  0  0  0  0  0  0  0
  -20.4638    7.7285  -15.3316 S   0  0  0  0  0  0  0  0  0  0  0  0
 29 30  1  0  0  0
 30 23  1  0  0  0
 23 24  2  0  0  0
 24 25  1  0  0  0
 25 26  2  0  0  0
 26 27  1  0  0  0
 27 21  1  0  0  0
 21  1  1  0  0  0
  1  2  2  0  0  0
  2  3  1  0  0  0
  3  4  2  0  0  0
  4  5  1  0  0  0
  5  6  2  0  0  0
  6 13  1  0  0  0
 13 14  2  0  0  0
 14 15  1  0  0  0
 14 16  1  0  0  0
 16 17  2  0  0  0
 17 18  1  0  0  0
 18 19  2  0  0  0
 19 20  1  0  0  0
  6  7  1  0  0  0
  7  8  2  0  0  0
  7  9  1  0  0  0
  9 10  1  0  0  0
  9 11  1  0  0  0
 11 12  2  0  0  0
 27 28  2  0  0  0
 28 23  1  0  0  0
 12  1  1  0  0  0
 11  4  1  0  0  0
 19 13  1  0  0  0
 21 22  1  0  0  0
M  END
> <minimizedAffinity>
-10.41928

> <CNNscore>
0.9911102653

> <CNNaffinity>
7.9868631363

> <CNN_VS>
7.9158620834

> <CNNaffinity_variance>
0.0513577163

$$$$
[H]c1c([H])c(Cl)c(-c2c([H])c3c([H])nc(N([H])c4c([H])c([H])c([H])c(SC([H])([H])[H])c4[H])nc3n(C([H])([H])[H])c2=O)c(Cl)c1[H]


 30 33  0  0  0  0  0  0  0  0999 V2000
  -16.7480   10.5529  -19.7595 C   0  0  0  0  0  0  0  0  0  0  0  0
  -15.7832   10.1476  -20.5584 N   0  0  0  0  0  0  0  0  0  0  0  0
  -15.4958   10.7428  -21.7227 C   0  0  0  0  0  0  0  0  0  0  0  0
  -16.2620   11.8484  -22.1026 C   0  0  0  0  0  0  0  0  0  0  0  0
  -16.0148   12.4970  -23.2809 C   0  0  0  0  0  0  0  0  0  0  0  0
  -16.7751   13.5749  -23.6329 C   0  0  0  0  0  0  0  0  0  0  0  0
  -17.7833   13.9989  -22.7987 C   0  0  0  0  0  0  0  0  0  0  0  0
  -18.4983   14.9879  -23.0979 O   0  0  0  0  0  0  0  0  0  0  0  0
  -18.0383   13.3785  -21.6465 N   0  0  0  0  0  0  0  0  0  0  0  0
  -19.0948   13.8003  -20.7432 C   0  0  0  0  0  0  0  0  0  0  0  0
  -17.2817   12.2986  -21.2867 C   0  0  0  0  0  0  0  0  0  0  0  0
  -17.5014   11.6460  -20.1410 N   0  0  0  0  0  0  0  0  0  0  0  0
  -16.4858   14.2465  -24.8985 C   0  0  0  0  0  0  0  0  0  0  0  0
  -15.7567   15.4157  -24.8899 C   0  0  0  0  0  0  0  0  0  0  0  0
  -15.1620   16.1260  -23.3952 Cl  0  0  0  0  0  0  0  0  0  0  0  0
  -15.5041   16.0213  -26.1119 C   0  0  0  0  0  0  0  0  0  0  0  0
  -15.9648   15.4750  -27.2949 C   0  0  0  0  0  0  0  0  0  0  0  0
  -16.6922   14.3074  -27.2978 C   0  0  0  0  0  0  0  0  0  0  0  0
  -16.9499   13.6976  -26.0979 C   0  0  0  0  0  0  0  0  0  0  0  0
  -17.8718   12.2059  -26.0287 Cl  0  0  0  0  0  0  0  0  0  0  0  0
  -17.0336    9.9145  -18.5416 N   0  0  0  0  0  0  0  0  0  0  0  0
  -16.3072    9.2315  -18.1368 H   0  0  0  0  0  0  0  0  0  0  0  0
  -19.8319    9.1181  -16.2847 C   0  0  0  0  0  0  0  0  0  0  0  0
  -20.4815   10.3350  -16.2862 C   0  0  0  0  0  0  0  0  0  0  0  0
  -20.0279   11.4065  -17.0182 C   0  0  0  0  0  0  0  0  0  0  0  0
  -18.8706   11.3063  -17.8043 C   0  0  0  0  0  0  0  0  0  0  0  0
  -18.2137   10.1124  -17.8153 C   0  0  0  0  0  0  0  0  0  0  0  0
  -18.7043    9.0316  -17.0541 C   0  0  0  0  0  0  0  0  0  0  0  0
  -22.2608    7.8435  -15.1838 C   0  0  0  0  0  0  0  0  0  0  0  0
  -20.4462    7.7358  -15.3206 S   0  0  0  0  0  0  0  0  0  0  0  0
 29 30  1  0  0  0
 30 23  1  0  0  0
 23 24  2  0  0  0
 24 25  1  0  0  0
 25 26  2  0  0  0
 26 27  1  0  0  0
 27 21  1  0  0  0
 21  1  1  0  0  0
  1  2  2  0  0  0
  2  3  1  0  0  0
  3  4  2  0  0  0
  4  5  1  0  0  0
  5  6  2  0  0  0
  6 13  1  0  0  0
 13 14  2  0  0  0
 14 15  1  0  0  0
 14 16  1  0  0  0
 16 17  2  0  0  0
 17 18  1  0  0  0
 18 19  2  0  0  0
 19 20  1  0  0  0
  6  7  1  0  0  0
  7  8  2  0  0  0
  7  9  1  0  0  0
  9 10  1  0  0  0
  9 11  1  0  0  0
 11 12  2  0  0  0
 27 28  2  0  0  0
 28 23  1  0  0  0
 12  1  1  0  0  0
 11  4  1  0  0  0
 19 13  1  0  0  0
 21 22  1  0  0  0
M  END
> <minimizedAffinity>
-10.44769

> <CNNscore>
0.9908853173

> <CNNaffinity>
7.9776430130

> <CNN_VS>
7.9049291611

> <CNNaffinity_variance>
0.0506704934

$$$$
[H]c1c([H])c(Cl)c(-c2c([H])c3c([H])nc(N([H])c4c([H])c([H])c([H])c(SC([H])([H])[H])c4[H])nc3n(C([H])([H])[H])c2=O)c(Cl)c1[H]


 30 33  0  0  0  0  0  0  0  0999 V2000
  -17.8969   11.6003  -19.1637 C   0  0  0  0  0  0  0  0  0  0  0  0
  -17.4944   10.6979  -20.0339 N   0  0  0  0  0  0  0  0  0  0  0  0
  -17.0693   11.0049  -21.2658 C   0  0  0  0  0  0  0  0  0  0  0  0
  -17.0547   12.3516  -21.6398 C   0  0  0  0  0  0  0  0  0  0  0  0
  -16.6308   12.7255  -22.8850 C   0  0  0  0  0  0  0  0  0  0  0  0
  -16.6245   14.0463  -23.2299 C   0  0  0  0  0  0  0  0  0  0  0  0
  -17.0449   14.9896  -22.3212 C   0  0  0  0  0  0  0  0  0  0  0  0
  -17.0496   16.2120  -22.6121 O   0  0  0  0  0  0  0  0  0  0  0  0
  -17.4615   14.6431  -21.1031 N   0  0  0  0  0  0  0  0  0  0  0  0
  -17.9116   15.6134  -20.1203 C   0  0  0  0  0  0  0  0  0  0  0  0
  -17.4708   13.3227  -20.7499 C   0  0  0  0  0  0  0  0  0  0  0  0
  -17.8801   12.9293  -19.5397 N   0  0  0  0  0  0  0  0  0  0  0  0
  -16.1657   14.4136  -24.5682 C   0  0  0  0  0  0  0  0  0  0  0  0
  -17.0639   14.4098  -25.6133 C   0  0  0  0  0  0  0  0  0  0  0  0
  -18.7519   13.9744  -25.3829 Cl  0  0  0  0  0  0  0  0  0  0  0  0
  -16.5882   14.7645  -26.8670 C   0  0  0  0  0  0  0  0  0  0  0  0
  -15.2644   15.1090  -27.0637 C   0  0  0  0  0  0  0  0  0  0  0  0
  -14.3719   15.1112  -26.0168 C   0  0  0  0  0  0  0  0  0  0  0  0
  -14.8273   14.7629  -24.7720 C   0  0  0  0  0  0  0  0  0  0  0  0
  -13.7431   14.7445  -23.3922 Cl  0  0  0  0  0  0  0  0  0  0  0  0
  -18.3393   11.2575  -17.8757 N   0  0  0  0  0  0  0  0  0  0  0  0
  -17.8448   10.4530  -17.3596 H   0  0  0  0  0  0  0  0  0  0  0  0
  -20.9561   13.7733  -17.2577 C   0  0  0  0  0  0  0  0  0  0  0  0
  -21.4913   13.2662  -16.0919 C   0  0  0  0  0  0  0  0  0  0  0  0
  -21.0068   12.1243  -15.4995 C   0  0  0  0  0  0  0  0  0  0  0  0
  -19.9341   11.4176  -16.0628 C   0  0  0  0  0  0  0  0  0  0  0  0
  -19.3921   11.9019  -17.2156 C   0  0  0  0  0  0  0  0  0  0  0  0
  -19.9111   13.0761  -17.7987 C   0  0  0  0  0  0  0  0  0  0  0  0
  -22.1249   16.4316  -16.7063 C   0  0  0  0  0  0  0  0  0  0  0  0
  -21.6075   15.2661  -18.0092 S   0  0  0  0  0  0  0  0  0  0  0  0
 29 30  1  0  0  0
 30 23  1  0  0  0
 23 24  2  0  0  0
 24 25  1  0  0  0
 25 26  2  0  0  0
 26 27  1  0  0  0
 27 21  1  0  0  0
 21  1  1  0  0  0
  1  2  2  0  0  0
  2  3  1  0  0  0
  3  4  2  0  0  0
  4  5  1  0  0  0
  5  6  2  0  0  0
  6 13  1  0  0  0
 13 14  2  0  0  0
 14 15  1  0  0  0
 14 16  1  0  0  0
 16 17  2  0  0  0
 17 18  1  0  0  0
 18 19  2  0  0  0
 19 20  1  0  0  0
  6  7  1  0  0  0
  7  8  2  0  0  0
  7  9  1  0  0  0
  9 10  1  0  0  0
  9 11  1  0  0  0
 11 12  2  0  0  0
 27 28  2  0  0  0
 28 23  1  0  0  0
 12  1  1  0  0  0
 11  4  1  0  0  0
 19 13  1  0  0  0
 21 22  1  0  0  0
M  END
> <minimizedAffinity>
-7.74783

> <CNNscore>
0.4717613459

> <CNNaffinity>
7.1536836624

> <CNN_VS>
3.3748314381

> <CNNaffinity_variance>
0.4026516080

$$$$
[H]c1c([H])c(Cl)c(-c2c([H])c3c([H])nc(N([H])c4c([H])c([H])c([H])c(SC([H])([H])[H])c4[H])nc3n(C([H])([H])[H])c2=O)c(Cl)c1[H]


 30 33  0  0  0  0  0  0  0  0999 V2000
  -17.8401   11.2173  -19.3301 C   0  0  0  0  0  0  0  0  0  0  0  0
  -17.5967   10.0076  -18.8709 N   0  0  0  0  0  0  0  0  0  0  0  0
  -18.2170    9.4893  -17.8036 C   0  0  0  0  0  0  0  0  0  0  0  0
  -19.1685   10.2769  -17.1494 C   0  0  0  0  0  0  0  0  0  0  0  0
  -19.8342    9.8010  -16.0538 C   0  0  0  0  0  0  0  0  0  0  0  0
  -20.7599   10.5867  -15.4297 C   0  0  0  0  0  0  0  0  0  0  0  0
  -21.0145   11.8507  -15.9089 C   0  0  0  0  0  0  0  0  0  0  0  0
  -21.8612   12.5952  -15.3540 O   0  0  0  0  0  0  0  0  0  0  0  0
  -20.3750   12.3309  -16.9756 N   0  0  0  0  0  0  0  0  0  0  0  0
  -20.6201   13.6603  -17.5070 C   0  0  0  0  0  0  0  0  0  0  0  0
  -19.4468   11.5505  -17.6062 C   0  0  0  0  0  0  0  0  0  0  0  0
  -18.7815   11.9904  -18.6789 N   0  0  0  0  0  0  0  0  0  0  0  0
  -21.4543   10.0491  -14.2613 C   0  0  0  0  0  0  0  0  0  0  0  0
  -22.6724    9.4270  -14.4284 C   0  0  0  0  0  0  0  0  0  0  0  0
  -23.4186    9.2606  -16.0120 Cl  0  0  0  0  0  0  0  0  0  0  0  0
  -23.2983    8.9306  -13.2944 C   0  0  0  0  0  0  0  0  0  0  0  0
  -22.7244    9.0539  -12.0432 C   0  0  0  0  0  0  0  0  0  0  0  0
  -21.5079    9.6758  -11.8821 C   0  0  0  0  0  0  0  0  0  0  0  0
  -20.8775   10.1714  -12.9935 C   0  0  0  0  0  0  0  0  0  0  0  0
  -19.3238   10.9763  -12.8602 Cl  0  0  0  0  0  0  0  0  0  0  0  0
  -17.1783   11.7427  -20.4518 N   0  0  0  0  0  0  0  0  0  0  0  0
  -16.3833   11.1686  -20.8952 H   0  0  0  0  0  0  0  0  0  0  0  0
  -17.8018   14.2027  -23.1200 C   0  0  0  0  0  0  0  0  0  0  0  0
  -18.1310   15.2984  -22.3494 C   0  0  0  0  0  0  0  0  0  0  0  0
  -18.1433   15.2509  -20.9757 C   0  0  0  0  0  0  0  0  0  0  0  0
  -17.8174   14.0711  -20.2908 C   0  0  0  0  0  0  0  0  0  0  0  0
  -17.4903   12.9767  -21.0342 C   0  0  0  0  0  0  0  0  0  0  0  0
  -17.4863   13.0574  -22.4419 C   0  0  0  0  0  0  0  0  0  0  0  0
  -17.7560   12.6087  -25.6086 C   0  0  0  0  0  0  0  0  0  0  0  0
  -17.7932   14.2927  -24.9114 S   0  0  0  0  0  0  0  0  0  0  0  0
 29 30  1  0  0  0
 30 23  1  0  0  0
 23 24  2  0  0  0
 24 25  1  0  0  0
 25 26  2  0  0  0
 26 27  1  0  0  0
 27 21  1  0  0  0
 21  1  1  0  0  0
  1  2  2  0  0  0
  2  3  1  0  0  0
  3  4  2  0  0  0
  4  5  1  0  0  0
  5  6  2  0  0  0
  6 13  1  0  0  0
 13 14  2  0  0  0
 14 15  1  0  0  0
 14 16  1  0  0  0
 16 17  2  0  0  0
 17 18  1  0  0  0
 18 19  2  0  0  0
 19 20  1  0  0  0
  6  7  1  0  0  0
  7  8  2  0  0  0
  7  9  1  0  0  0
  9 10  1  0  0  0
  9 11  1  0  0  0
 11 12  2  0  0  0
 27 28  2  0  0  0
 28 23  1  0  0  0
 12  1  1  0  0  0
 11  4  1  0  0  0
 19 13  1  0  0  0
 21 22  1  0  0  0
M  END
> <minimizedAffinity>
-7.85141

> <CNNscore>
0.4287078679

> <CNNaffinity>
6.5703287125

> <CNN_VS>
2.8167517185

> <CNNaffinity_variance>
0.2280970514

$$$$
[H]c1c([H])c(Cl)c(-c2c([H])c3c([H])nc(N([H])c4c([H])c([H])c([H])c(SC([H])([H])[H])c4[H])nc3n(C([H])([H])[H])c2=O)c(Cl)c1[H]


 30 33  0  0  0  0  0  0  0  0999 V2000
  -19.2366   13.2320  -19.1520 C   0  0  0  0  0  0  0  0  0  0  0  0
  -19.7973   14.2938  -19.6919 N   0  0  0  0  0  0  0  0  0  0  0  0
  -19.4571   14.7713  -20.8955 C   0  0  0  0  0  0  0  0  0  0  0  0
  -18.4565   14.1048  -21.6085 C   0  0  0  0  0  0  0  0  0  0  0  0
  -18.0672   14.5462  -22.8428 C   0  0  0  0  0  0  0  0  0  0  0  0
  -17.0880   13.8804  -23.5222 C   0  0  0  0  0  0  0  0  0  0  0  0
  -16.5017   12.7710  -22.9587 C   0  0  0  0  0  0  0  0  0  0  0  0
  -15.5983   12.1393  -23.5618 O   0  0  0  0  0  0  0  0  0  0  0  0
  -16.8688   12.3266  -21.7565 N   0  0  0  0  0  0  0  0  0  0  0  0
  -16.2705   11.1590  -21.1333 C   0  0  0  0  0  0  0  0  0  0  0  0
  -17.8485   12.9876  -21.0697 C   0  0  0  0  0  0  0  0  0  0  0  0
  -18.2484   12.5780  -19.8618 N   0  0  0  0  0  0  0  0  0  0  0  0
  -16.6943   14.3773  -24.8393 C   0  0  0  0  0  0  0  0  0  0  0  0
  -15.9184   15.5127  -24.9270 C   0  0  0  0  0  0  0  0  0  0  0  0
  -15.3865   16.3846  -23.4955 Cl  0  0  0  0  0  0  0  0  0  0  0  0
  -15.5666   15.9509  -26.1951 C   0  0  0  0  0  0  0  0  0  0  0  0
  -15.9771   15.2764  -27.3294 C   0  0  0  0  0  0  0  0  0  0  0  0
  -16.7515   14.1432  -27.2361 C   0  0  0  0  0  0  0  0  0  0  0  0
  -17.1071   13.6982  -25.9897 C   0  0  0  0  0  0  0  0  0  0  0  0
  -18.0935   12.2594  -25.7978 Cl  0  0  0  0  0  0  0  0  0  0  0  0
  -19.6079   12.7468  -17.8875 N   0  0  0  0  0  0  0  0  0  0  0  0
  -20.0440   13.4324  -17.1818 H   0  0  0  0  0  0  0  0  0  0  0  0
  -20.3425    9.5920  -16.1364 C   0  0  0  0  0  0  0  0  0  0  0  0
  -19.3152    8.8128  -16.6267 C   0  0  0  0  0  0  0  0  0  0  0  0
  -18.3824    9.3018  -17.5101 C   0  0  0  0  0  0  0  0  0  0  0  0
  -18.4366   10.6305  -17.9559 C   0  0  0  0  0  0  0  0  0  0  0  0
  -19.4449   11.4165  -17.4839 C   0  0  0  0  0  0  0  0  0  0  0  0
  -20.3862   10.8858  -16.5781 C   0  0  0  0  0  0  0  0  0  0  0  0
  -23.2290    9.3314  -15.5567 C   0  0  0  0  0  0  0  0  0  0  0  0
  -21.5460    8.9284  -14.9838 S   0  0  0  0  0  0  0  0  0  0  0  0
 29 30  1  0  0  0
 30 23  1  0  0  0
 23 24  2  0  0  0
 24 25  1  0  0  0
 25 26  2  0  0  0
 26 27  1  0  0  0
 27 21  1  0  0  0
 21  1  1  0  0  0
  1  2  2  0  0  0
  2  3  1  0  0  0
  3  4  2  0  0  0
  4  5  1  0  0  0
  5  6  2  0  0  0
  6 13  1  0  0  0
 13 14  2  0  0  0
 14 15  1  0  0  0
 14 16  1  0  0  0
 16 17  2  0  0  0
 17 18  1  0  0  0
 18 19  2  0  0  0
 19 20  1  0  0  0
  6  7  1  0  0  0
  7  8  2  0  0  0
  7  9  1  0  0  0
  9 10  1  0  0  0
  9 11  1  0  0  0
 11 12  2  0  0  0
 27 28  2  0  0  0
 28 23  1  0  0  0
 12  1  1  0  0  0
 11  4  1  0  0  0
 19 13  1  0  0  0
 21 22  1  0  0  0
M  END
> <minimizedAffinity>
-9.98193

> <CNNscore>
0.3447512090

> <CNNaffinity>
7.0233893394

> <CNN_VS>
2.4213218689

> <CNNaffinity_variance>
0.1232951880

$$$$
[H]c1c([H])c(Cl)c(-c2c([H])c3c([H])nc(N([H])c4c([H])c([H])c([H])c(SC([H])([H])[H])c4[H])nc3n(C([H])([H])[H])c2=O)c(Cl)c1[H]


 30 33  0  0  0  0  0  0  0  0999 V2000
  -18.8149   11.9236  -18.9658 C   0  0  0  0  0  0  0  0  0  0  0  0
  -19.5277   12.9657  -19.3392 N   0  0  0  0  0  0  0  0  0  0  0  0
  -19.2833   13.6589  -20.4582 C   0  0  0  0  0  0  0  0  0  0  0  0
  -18.2173   13.2506  -21.2649 C   0  0  0  0  0  0  0  0  0  0  0  0
  -17.9200   13.9200  -22.4198 C   0  0  0  0  0  0  0  0  0  0  0  0
  -16.8746   13.5044  -23.1932 C   0  0  0  0  0  0  0  0  0  0  0  0
  -16.1295   12.4158  -22.8036 C   0  0  0  0  0  0  0  0  0  0  0  0
  -15.1620   12.0119  -23.4963 O   0  0  0  0  0  0  0  0  0  0  0  0
  -16.4051   11.7515  -21.6810 N   0  0  0  0  0  0  0  0  0  0  0  0
  -15.6387   10.5987  -21.2410 C   0  0  0  0  0  0  0  0  0  0  0  0
  -17.4502   12.1611  -20.9010 C   0  0  0  0  0  0  0  0  0  0  0  0
  -17.7630   11.5255  -19.7675 N   0  0  0  0  0  0  0  0  0  0  0  0
  -16.5824   14.2409  -24.4216 C   0  0  0  0  0  0  0  0  0  0  0  0
  -16.9975   13.7266  -25.6307 C   0  0  0  0  0  0  0  0  0  0  0  0
  -17.8715   12.2046  -25.7395 Cl  0  0  0  0  0  0  0  0  0  0  0  0
  -16.7003   14.4563  -26.7723 C   0  0  0  0  0  0  0  0  0  0  0  0
  -16.0141   15.6540  -26.7027 C   0  0  0  0  0  0  0  0  0  0  0  0
  -15.6021   16.1630  -25.4929 C   0  0  0  0  0  0  0  0  0  0  0  0
  -15.8885   15.4530  -24.3561 C   0  0  0  0  0  0  0  0  0  0  0  0
  -15.3926   16.0440  -22.7799 Cl  0  0  0  0  0  0  0  0  0  0  0  0
  -19.0878   11.2095  -17.7876 N   0  0  0  0  0  0  0  0  0  0  0  0
  -18.5171   10.3207  -17.5816 H   0  0  0  0  0  0  0  0  0  0  0  0
  -21.7941   10.8064  -15.3235 C   0  0  0  0  0  0  0  0  0  0  0  0
  -21.9829   12.1269  -14.9719 C   0  0  0  0  0  0  0  0  0  0  0  0
  -21.2498   13.1460  -15.5319 C   0  0  0  0  0  0  0  0  0  0  0  0
  -20.2664   12.8828  -16.4968 C   0  0  0  0  0  0  0  0  0  0  0  0
  -20.0638   11.5842  -16.8569 C   0  0  0  0  0  0  0  0  0  0  0  0
  -20.8324   10.5611  -16.2646 C   0  0  0  0  0  0  0  0  0  0  0  0
  -23.8483    8.7440  -15.8360 C   0  0  0  0  0  0  0  0  0  0  0  0
  -22.7654    9.4961  -14.5771 S   0  0  0  0  0  0  0  0  0  0  0  0
 29 30  1  0  0  0
 30 23  1  0  0  0
 23 24  2  0  0  0
 24 25  1  0  0  0
 25 26  2  0  0  0
 26 27  1  0  0  0
 27 21  1  0  0  0
 21  1  1  0  0  0
  1  2  2  0  0  0
  2  3  1  0  0  0
  3  4  2  0  0  0
  4  5  1  0  0  0
  5  6  2  0  0  0
  6 13  1  0  0  0
 13 14  2  0  0  0
 14 15  1  0  0  0
 14 16  1  0  0  0
 16 17  2  0  0  0
 17 18  1  0  0  0
 18 19  2  0  0  0
 19 20  1  0  0  0
  6  7  1  0  0  0
  7  8  2  0  0  0
  7  9  1  0  0  0
  9 10  1  0  0  0
  9 11  1  0  0  0
 11 12  2  0  0  0
 27 28  2  0  0  0
 28 23  1  0  0  0
 12  1  1  0  0  0
 11  4  1  0  0  0
 19 13  1  0  0  0
 21 22  1  0  0  0
M  END
> <minimizedAffinity>
-9.10780

> <CNNscore>
0.3423784971

> <CNNaffinity>
6.9268708229

> <CNN_VS>
2.3716115952

> <CNNaffinity_variance>
0.2692485452

$$$$
[H]c1c([H])c(Cl)c(-c2c([H])c3c([H])nc(N([H])c4c([H])c([H])c([H])c(SC([H])([H])[H])c4[H])nc3n(C([H])([H])[H])c2=O)c(Cl)c1[H]


 30 33  0  0  0  0  0  0  0  0999 V2000
  -18.8135   11.8601  -19.0209 C   0  0  0  0  0  0  0  0  0  0  0  0
  -19.5518   12.8795  -19.4069 N   0  0  0  0  0  0  0  0  0  0  0  0
  -19.3148   13.5749  -20.5262 C   0  0  0  0  0  0  0  0  0  0  0  0
  -18.2283   13.1944  -21.3190 C   0  0  0  0  0  0  0  0  0  0  0  0
  -17.9374   13.8674  -22.4734 C   0  0  0  0  0  0  0  0  0  0  0  0
  -16.8717   13.4792  -23.2332 C   0  0  0  0  0  0  0  0  0  0  0  0
  -16.0998   12.4143  -22.8303 C   0  0  0  0  0  0  0  0  0  0  0  0
  -15.1132   12.0358  -23.5103 O   0  0  0  0  0  0  0  0  0  0  0  0
  -16.3689   11.7469  -21.7079 N   0  0  0  0  0  0  0  0  0  0  0  0
  -15.5745   10.6186  -21.2543 C   0  0  0  0  0  0  0  0  0  0  0  0
  -17.4342   12.1291  -20.9416 C   0  0  0  0  0  0  0  0  0  0  0  0
  -17.7413   11.4894  -19.8089 N   0  0  0  0  0  0  0  0  0  0  0  0
  -16.5869   14.2188  -24.4614 C   0  0  0  0  0  0  0  0  0  0  0  0
  -15.9039   15.4132  -24.3859 C   0  0  0  0  0  0  0  0  0  0  0  0
  -15.3631   16.0761  -22.8496 Cl  0  0  0  0  0  0  0  0  0  0  0  0
  -15.6539   16.0835  -25.5742 C   0  0  0  0  0  0  0  0  0  0  0  0
  -16.0727   15.5752  -26.7893 C   0  0  0  0  0  0  0  0  0  0  0  0
  -16.7541   14.3822  -26.8589 C   0  0  0  0  0  0  0  0  0  0  0  0
  -17.0086   13.7084  -25.6929 C   0  0  0  0  0  0  0  0  0  0  0  0
  -17.8730   12.1813  -25.7089 Cl  0  0  0  0  0  0  0  0  0  0  0  0
  -19.0789   11.1432  -17.8427 N   0  0  0  0  0  0  0  0  0  0  0  0
  -18.5128   10.2493  -17.6465 H   0  0  0  0  0  0  0  0  0  0  0  0
  -21.7546   10.7498  -15.3437 C   0  0  0  0  0  0  0  0  0  0  0  0
  -21.9352   12.0711  -14.9910 C   0  0  0  0  0  0  0  0  0  0  0  0
  -21.2066   13.0877  -15.5613 C   0  0  0  0  0  0  0  0  0  0  0  0
  -20.2363   12.8209  -16.5384 C   0  0  0  0  0  0  0  0  0  0  0  0
  -20.0419   11.5214  -16.9000 C   0  0  0  0  0  0  0  0  0  0  0  0
  -20.8056   10.5010  -16.2969 C   0  0  0  0  0  0  0  0  0  0  0  0
  -23.8076    8.6804  -15.8322 C   0  0  0  0  0  0  0  0  0  0  0  0
  -22.7198    9.4429  -14.5838 S   0  0  0  0  0  0  0  0  0  0  0  0
 29 30  1  0  0  0
 30 23  1  0  0  0
 23 24  2  0  0  0
 24 25  1  0  0  0
 25 26  2  0  0  0
 26 27  1  0  0  0
 27 21  1  0  0  0
 21  1  1  0  0  0
  1  2  2  0  0  0
  2  3  1  0  0  0
  3  4  2  0  0  0
  4  5  1  0  0  0
  5  6  2  0  0  0
  6 13  1  0  0  0
 13 14  2  0  0  0
 14 15  1  0  0  0
 14 16  1  0  0  0
 16 17  2  0  0  0
 17 18  1  0  0  0
 18 19  2  0  0  0
 19 20  1  0  0  0
  6  7  1  0  0  0
  7  8  2  0  0  0
  7  9  1  0  0  0
  9 10  1  0  0  0
  9 11  1  0  0  0
 11 12  2  0  0  0
 27 28  2  0  0  0
 28 23  1  0  0  0
 12  1  1  0  0  0
 11  4  1  0  0  0
 19 13  1  0  0  0
 21 22  1  0  0  0
M  END
> <minimizedAffinity>
-8.99961

> <CNNscore>
0.3411140442

> <CNNaffinity>
6.9263734818

> <CNN_VS>
2.3626832962

> <CNNaffinity_variance>
0.2842606902

$$$$
[H]c1c([H])c(Cl)c(-c2c([H])c3c([H])nc(N([H])c4c([H])c([H])c([H])c(SC([H])([H])[H])c4[H])nc3n(C([H])([H])[H])c2=O)c(Cl)c1[H]


 30 33  0  0  0  0  0  0  0  0999 V2000
  -19.0712   13.3317  -19.2484 C   0  0  0  0  0  0  0  0  0  0  0  0
  -19.6525   14.3728  -19.8067 N   0  0  0  0  0  0  0  0  0  0  0  0
  -19.3381   14.8212  -21.0284 C   0  0  0  0  0  0  0  0  0  0  0  0
  -18.3427   14.1460  -21.7406 C   0  0  0  0  0  0  0  0  0  0  0  0
  -17.9794   14.5580  -22.9929 C   0  0  0  0  0  0  0  0  0  0  0  0
  -17.0049   13.8842  -23.6712 C   0  0  0  0  0  0  0  0  0  0  0  0
  -16.3971   12.7965  -23.0884 C   0  0  0  0  0  0  0  0  0  0  0  0
  -15.4974   12.1581  -23.6900 O   0  0  0  0  0  0  0  0  0  0  0  0
  -16.7388   12.3809  -21.8686 N   0  0  0  0  0  0  0  0  0  0  0  0
  -16.1173   11.2367  -21.2248 C   0  0  0  0  0  0  0  0  0  0  0  0
  -17.7136   13.0500  -21.1828 C   0  0  0  0  0  0  0  0  0  0  0  0
  -18.0884   12.6691  -19.9576 N   0  0  0  0  0  0  0  0  0  0  0  0
  -16.6391   14.3495  -25.0077 C   0  0  0  0  0  0  0  0  0  0  0  0
  -17.0965   13.6604  -26.1099 C   0  0  0  0  0  0  0  0  0  0  0  0
  -18.1108   12.2324  -25.9548 Cl  0  0  0  0  0  0  0  0  0  0  0  0
  -16.7267   14.1347  -27.3598 C   0  0  0  0  0  0  0  0  0  0  0  0
  -15.9301   15.2556  -27.4976 C   0  0  0  0  0  0  0  0  0  0  0  0
  -15.4763   15.9399  -26.3939 C   0  0  0  0  0  0  0  0  0  0  0  0
  -15.8334   15.4830  -25.1521 C   0  0  0  0  0  0  0  0  0  0  0  0
  -15.2897   16.3078  -23.7016 Cl  0  0  0  0  0  0  0  0  0  0  0  0
  -19.4157   12.8770  -17.9651 N   0  0  0  0  0  0  0  0  0  0  0  0
  -19.7781   13.5917  -17.2468 H   0  0  0  0  0  0  0  0  0  0  0  0
  -20.2741    9.7772  -16.1725 C   0  0  0  0  0  0  0  0  0  0  0  0
  -19.3083    8.9386  -16.6888 C   0  0  0  0  0  0  0  0  0  0  0  0
  -18.3767    9.3695  -17.6033 C   0  0  0  0  0  0  0  0  0  0  0  0
  -18.3690   10.6971  -18.0556 C   0  0  0  0  0  0  0  0  0  0  0  0
  -19.3161   11.5414  -17.5582 C   0  0  0  0  0  0  0  0  0  0  0  0
  -20.2578   11.0694  -16.6209 C   0  0  0  0  0  0  0  0  0  0  0  0
  -23.1604    9.5602  -15.5738 C   0  0  0  0  0  0  0  0  0  0  0  0
  -21.4775    9.1886  -14.9797 S   0  0  0  0  0  0  0  0  0  0  0  0
 29 30  1  0  0  0
 30 23  1  0  0  0
 23 24  2  0  0  0
 24 25  1  0  0  0
 25 26  2  0  0  0
 26 27  1  0  0  0
 27 21  1  0  0  0
 21  1  1  0  0  0
  1  2  2  0  0  0
  2  3  1  0  0  0
  3  4  2  0  0  0
  4  5  1  0  0  0
  5  6  2  0  0  0
  6 13  1  0  0  0
 13 14  2  0  0  0
 14 15  1  0  0  0
 14 16  1  0  0  0
 16 17  2  0  0  0
 17 18  1  0  0  0
 18 19  2  0  0  0
 19 20  1  0  0  0
  6  7  1  0  0  0
  7  8  2  0  0  0
  7  9  1  0  0  0
  9 10  1  0  0  0
  9 11  1  0  0  0
 11 12  2  0  0  0
 27 28  2  0  0  0
 28 23  1  0  0  0
 12  1  1  0  0  0
 11  4  1  0  0  0
 19 13  1  0  0  0
 21 22  1  0  0  0
M  END
> <minimizedAffinity>
-9.90152

> <CNNscore>
0.3227704763

> <CNNaffinity>
7.0226449966

> <CNN_VS>
2.2667024136

> <CNNaffinity_variance>
0.1083331108

$$$$
[H]c1nc(N([H])[H])c2c(-c3c([H])c([H])c(C([H])([H])c4nc([H])c(C([H])([H])[H])o4)c(OC([H])([H])[H])c3[H])nn(C([H])([H])C([H])([H])N3C([H])([H])C([H])([H])C([H])(N(C([H])([H])[H])C([H])([H])[H])C([H])([H])C3([H])[H])c2n1


 38 42  0  0  0  0  0  0  0  0999 V2000
  -18.6111   12.7906  -19.3774 C   0  0  0  0  0  0  0  0  0  0  0  0
  -18.8488   11.9950  -18.3104 N   0  0  0  0  0  0  0  0  0  0  0  0
  -18.1767   10.8922  -18.3605 N   0  0  0  0  0  0  0  0  0  0  0  0
  -17.4534   10.9242  -19.4953 C   0  0  0  0  0  0  0  0  0  0  0  0
  -16.5931   10.0291  -20.0396 N   0  0  0  0  0  0  0  0  0  0  0  0
  -16.0014   10.3004  -21.2121 C   0  0  0  0  0  0  0  0  0  0  0  0
  -16.2328   11.4432  -21.8794 N   0  0  0  0  0  0  0  0  0  0  0  0
  -17.0849   12.3649  -21.3713 C   0  0  0  0  0  0  0  0  0  0  0  0
  -17.3612   13.5470  -22.0868 N   0  0  0  0  0  0  0  0  0  0  0  0
  -17.7123   12.1288  -20.1689 C   0  0  0  0  0  0  0  0  0  0  0  0
  -18.2748   13.6900  -22.5566 H   0  0  0  0  0  0  0  0  0  0  0  0
  -16.6615   14.3292  -22.1761 H   0  0  0  0  0  0  0  0  0  0  0  0
  -19.2039   16.5012  -19.9155 C   0  0  0  0  0  0  0  0  0  0  0  0
  -18.5737   15.2935  -19.6329 C   0  0  0  0  0  0  0  0  0  0  0  0
  -19.2297   14.0849  -19.6407 C   0  0  0  0  0  0  0  0  0  0  0  0
  -20.5993   14.1443  -19.9554 C   0  0  0  0  0  0  0  0  0  0  0  0
  -21.2096   15.3423  -20.2319 C   0  0  0  0  0  0  0  0  0  0  0  0
  -20.5431   16.5479  -20.2224 C   0  0  0  0  0  0  0  0  0  0  0  0
  -17.1007   17.7471  -20.1813 C   0  0  0  0  0  0  0  0  0  0  0  0
  -18.4568   17.6421  -19.8804 O   0  0  0  0  0  0  0  0  0  0  0  0
  -21.2594   17.7957  -20.5277 C   0  0  0  0  0  0  0  0  0  0  0  0
  -22.2784   17.6447  -21.5927 C   0  0  0  0  0  0  0  0  0  0  0  0
  -23.5512   17.2277  -21.5346 N   0  0  0  0  0  0  0  0  0  0  0  0
  -24.0876   17.2598  -22.7706 C   0  0  0  0  0  0  0  0  0  0  0  0
  -23.0858   17.7153  -23.5896 C   0  0  0  0  0  0  0  0  0  0  0  0
  -23.1393   17.9391  -25.0528 C   0  0  0  0  0  0  0  0  0  0  0  0
  -22.0422   17.9270  -22.8467 O   0  0  0  0  0  0  0  0  0  0  0  0
  -18.1475    9.7692  -17.4112 C   0  0  0  0  0  0  0  0  0  0  0  0
  -19.5432    9.4373  -16.9422 C   0  0  0  0  0  0  0  0  0  0  0  0
  -19.7888    9.6696  -15.5840 N   0  0  0  0  0  0  0  0  0  0  0  0
  -19.8370    8.5644  -14.7065 C   0  0  0  0  0  0  0  0  0  0  0  0
  -19.2010    8.9218  -13.3553 C   0  0  0  0  0  0  0  0  0  0  0  0
  -19.3500   10.3850  -13.0623 C   0  0  0  0  0  0  0  0  0  0  0  0
  -20.6349   10.9082  -13.6774 C   0  0  0  0  0  0  0  0  0  0  0  0
  -20.3958   10.8711  -15.1921 C   0  0  0  0  0  0  0  0  0  0  0  0
  -19.3559   10.7031  -11.6564 N   0  0  0  0  0  0  0  0  0  0  0  0
  -18.8434    9.6654  -10.8088 C   0  0  0  0  0  0  0  0  0  0  0  0
  -20.6592   11.0908  -11.2091 C   0  0  0  0  0  0  0  0  0  0  0  0
 19 20  1  0  0  0
 20 13  1  0  0  0
 13 14  2  0  0  0
 14 15  1  0  0  0
 15 16  2  0  0  0
 16 17  1  0  0  0
 17 18  2  0  0  0
 18 21  1  0  0  0
 21 22  1  0  0  0
 22 23  2  0  0  0
 23 24  1  0  0  0
 24 25  2  0  0  0
 25 26  1  0  0  0
 25 27  1  0  0  0
 15  1  1  0  0  0
  1  2  2  0  0  0
  2  3  1  0  0  0
  3 28  1  0  0  0
 28 29  1  0  0  0
 29 30  1  0  0  0
 30 31  1  0  0  0
 31 32  1  0  0  0
 32 33  1  0  0  0
 33 34  1  0  0  0
 34 35  1  0  0  0
 33 36  1  0  0  0
 36 37  1  0  0  0
 36 38  1  0  0  0
  3  4  1  0  0  0
  4  5  2  0  0  0
  5  6  1  0  0  0
  6  7  2  0  0  0
  7  8  1  0  0  0
  8  9  1  0  0  0
  8 10  2  0  0  0
 18 13  1  0  0  0
 27 22  1  0  0  0
 10  1  1  0  0  0
 35 30  1  0  0  0
 10  4  1  0  0  0
  9 11  1  0  0  0
  9 12  1  0  0  0
M  END
> <minimizedAffinity>
-7.85817

> <CNNscore>
0.8460304737

> <CNNaffinity>
7.5792870522

> <CNN_VS>
6.4123077393

> <CNNaffinity_variance>
0.1428420991

$$$$
[H]c1nc(N([H])[H])c2c(-c3c([H])c([H])c(C([H])([H])c4nc([H])c(C([H])([H])[H])o4)c(OC([H])([H])[H])c3[H])nn(C([H])([H])C([H])([H])N3C([H])([H])C([H])([H])C([H])(N(C([H])([H])[H])C([H])([H])[H])C([H])([H])C3([H])[H])c2n1


 38 42  0  0  0  0  0  0  0  0999 V2000
  -18.3694   12.4133  -19.8580 C   0  0  0  0  0  0  0  0  0  0  0  0
  -18.5669   13.2915  -20.8668 N   0  0  0  0  0  0  0  0  0  0  0  0
  -17.7519   13.0999  -21.8515 N   0  0  0  0  0  0  0  0  0  0  0  0
  -16.9666   12.0598  -21.5147 C   0  0  0  0  0  0  0  0  0  0  0  0
  -15.9467   11.4532  -22.1699 N   0  0  0  0  0  0  0  0  0  0  0  0
  -15.3036   10.4250  -21.5973 C   0  0  0  0  0  0  0  0  0  0  0  0
  -15.6361    9.9661  -20.3793 N   0  0  0  0  0  0  0  0  0  0  0  0
  -16.6490   10.5429  -19.6901 C   0  0  0  0  0  0  0  0  0  0  0  0
  -16.9752   10.0909  -18.3960 N   0  0  0  0  0  0  0  0  0  0  0  0
  -17.3383   11.5996  -20.2412 C   0  0  0  0  0  0  0  0  0  0  0  0
  -16.7459   10.6543  -17.5559 H   0  0  0  0  0  0  0  0  0  0  0  0
  -17.4604    9.1718  -18.2248 H   0  0  0  0  0  0  0  0  0  0  0  0
  -20.3349   13.3814  -16.7581 C   0  0  0  0  0  0  0  0  0  0  0  0
  -19.6261   13.4710  -17.9519 C   0  0  0  0  0  0  0  0  0  0  0  0
  -19.0967   12.3764  -18.5943 C   0  0  0  0  0  0  0  0  0  0  0  0
  -19.3176   11.1403  -17.9606 C   0  0  0  0  0  0  0  0  0  0  0  0
  -20.0182   11.0651  -16.7826 C   0  0  0  0  0  0  0  0  0  0  0  0
  -20.5454   12.1680  -16.1473 C   0  0  0  0  0  0  0  0  0  0  0  0
  -21.0760   15.7228  -16.8824 C   0  0  0  0  0  0  0  0  0  0  0  0
  -20.8176   14.5321  -16.2068 O   0  0  0  0  0  0  0  0  0  0  0  0
  -21.2856   12.0158  -14.8855 C   0  0  0  0  0  0  0  0  0  0  0  0
  -20.6654   11.0467  -13.9518 C   0  0  0  0  0  0  0  0  0  0  0  0
  -19.5571   11.1377  -13.2031 N   0  0  0  0  0  0  0  0  0  0  0  0
  -19.3935    9.9946  -12.5083 C   0  0  0  0  0  0  0  0  0  0  0  0
  -20.4518    9.1980  -12.8649 C   0  0  0  0  0  0  0  0  0  0  0  0
  -20.7578    7.8280  -12.3925 C   0  0  0  0  0  0  0  0  0  0  0  0
  -21.1704    9.8644  -13.7166 O   0  0  0  0  0  0  0  0  0  0  0  0
  -17.6343   13.8264  -23.1248 C   0  0  0  0  0  0  0  0  0  0  0  0
  -16.7463   15.0361  -22.9629 C   0  0  0  0  0  0  0  0  0  0  0  0
  -17.3335   16.1261  -22.3100 N   0  0  0  0  0  0  0  0  0  0  0  0
  -16.8297   16.5105  -21.0483 C   0  0  0  0  0  0  0  0  0  0  0  0
  -16.8369   18.0397  -20.9089 C   0  0  0  0  0  0  0  0  0  0  0  0
  -17.9366   18.6479  -21.7272 C   0  0  0  0  0  0  0  0  0  0  0  0
  -19.1142   17.6937  -21.8032 C   0  0  0  0  0  0  0  0  0  0  0  0
  -18.6269   16.5276  -22.6726 C   0  0  0  0  0  0  0  0  0  0  0  0
  -18.4085   19.9141  -21.2252 N   0  0  0  0  0  0  0  0  0  0  0  0
  -19.2258   19.8217  -20.0499 C   0  0  0  0  0  0  0  0  0  0  0  0
  -19.0991   20.6573  -22.2351 C   0  0  0  0  0  0  0  0  0  0  0  0
 19 20  1  0  0  0
 20 13  1  0  0  0
 13 14  2  0  0  0
 14 15  1  0  0  0
 15 16  2  0  0  0
 16 17  1  0  0  0
 17 18  2  0  0  0
 18 21  1  0  0  0
 21 22  1  0  0  0
 22 23  2  0  0  0
 23 24  1  0  0  0
 24 25  2  0  0  0
 25 26  1  0  0  0
 25 27  1  0  0  0
 15  1  1  0  0  0
  1  2  2  0  0  0
  2  3  1  0  0  0
  3 28  1  0  0  0
 28 29  1  0  0  0
 29 30  1  0  0  0
 30 31  1  0  0  0
 31 32  1  0  0  0
 32 33  1  0  0  0
 33 34  1  0  0  0
 34 35  1  0  0  0
 33 36  1  0  0  0
 36 37  1  0  0  0
 36 38  1  0  0  0
  3  4  1  0  0  0
  4  5  2  0  0  0
  5  6  1  0  0  0
  6  7  2  0  0  0
  7  8  1  0  0  0
  8  9  1  0  0  0
  8 10  2  0  0  0
 18 13  1  0  0  0
 27 22  1  0  0  0
 10  1  1  0  0  0
 35 30  1  0  0  0
 10  4  1  0  0  0
  9 11  1  0  0  0
  9 12  1  0  0  0
M  END
> <minimizedAffinity>
-8.02843

> <CNNscore>
0.7461630702

> <CNNaffinity>
7.5415358543

> <CNN_VS>
5.6272153854

> <CNNaffinity_variance>
0.0514457636

$$$$
[H]c1nc(N([H])[H])c2c(-c3c([H])c([H])c(C([H])([H])c4nc([H])c(C([H])([H])[H])o4)c(OC([H])([H])[H])c3[H])nn(C([H])([H])C([H])([H])N3C([H])([H])C([H])([H])C([H])(N(C([H])([H])[H])C([H])([H])[H])C([H])([H])C3([H])[H])c2n1


 38 42  0  0  0  0  0  0  0  0999 V2000
  -18.3090   12.4599  -19.7363 C   0  0  0  0  0  0  0  0  0  0  0  0
  -18.6753   13.4436  -20.5883 N   0  0  0  0  0  0  0  0  0  0  0  0
  -17.9766   13.4371  -21.6757 N   0  0  0  0  0  0  0  0  0  0  0  0
  -17.1004   12.4204  -21.5735 C   0  0  0  0  0  0  0  0  0  0  0  0
  -16.1359   11.9757  -22.4158 N   0  0  0  0  0  0  0  0  0  0  0  0
  -15.3728   10.9306  -22.0638 C   0  0  0  0  0  0  0  0  0  0  0  0
  -15.5293   10.2976  -20.8893 N   0  0  0  0  0  0  0  0  0  0  0  0
  -16.4811   10.7090  -20.0184 C   0  0  0  0  0  0  0  0  0  0  0  0
  -16.6225   10.0735  -18.7686 N   0  0  0  0  0  0  0  0  0  0  0  0
  -17.2890   11.7763  -20.3400 C   0  0  0  0  0  0  0  0  0  0  0  0
  -16.3241   10.5398  -17.8916 H   0  0  0  0  0  0  0  0  0  0  0  0
  -17.0323    9.1083  -18.6695 H   0  0  0  0  0  0  0  0  0  0  0  0
  -19.7705   10.7899  -16.6566 C   0  0  0  0  0  0  0  0  0  0  0  0
  -19.2585   10.9804  -17.9361 C   0  0  0  0  0  0  0  0  0  0  0  0
  -18.8744   12.2109  -18.4151 C   0  0  0  0  0  0  0  0  0  0  0  0
  -19.0341   13.2833  -17.5191 C   0  0  0  0  0  0  0  0  0  0  0  0
  -19.5409   13.0823  -16.2594 C   0  0  0  0  0  0  0  0  0  0  0  0
  -19.9222   11.8451  -15.7887 C   0  0  0  0  0  0  0  0  0  0  0  0
  -19.2433    8.4862  -15.9770 C   0  0  0  0  0  0  0  0  0  0  0  0
  -20.1196    9.5250  -16.2835 O   0  0  0  0  0  0  0  0  0  0  0  0
  -20.4588   11.7009  -14.4269 C   0  0  0  0  0  0  0  0  0  0  0  0
  -21.8514   12.1876  -14.2877 C   0  0  0  0  0  0  0  0  0  0  0  0
  -23.0145   11.5211  -14.2679 N   0  0  0  0  0  0  0  0  0  0  0  0
  -24.0277   12.3973  -14.1193 C   0  0  0  0  0  0  0  0  0  0  0  0
  -23.4332   13.6317  -14.0491 C   0  0  0  0  0  0  0  0  0  0  0  0
  -24.0904   14.9489  -13.8855 C   0  0  0  0  0  0  0  0  0  0  0  0
  -22.1514   13.4524  -14.1532 O   0  0  0  0  0  0  0  0  0  0  0  0
  -18.0544   14.3268  -22.8442 C   0  0  0  0  0  0  0  0  0  0  0  0
  -17.3420   15.6280  -22.5660 C   0  0  0  0  0  0  0  0  0  0  0  0
  -18.1641   16.7594  -22.5074 N   0  0  0  0  0  0  0  0  0  0  0  0
  -18.4186   17.3463  -21.2487 C   0  0  0  0  0  0  0  0  0  0  0  0
  -18.4646   18.8765  -21.3676 C   0  0  0  0  0  0  0  0  0  0  0  0
  -18.9277   19.2951  -22.7311 C   0  0  0  0  0  0  0  0  0  0  0  0
  -19.8966   18.2679  -23.2871 C   0  0  0  0  0  0  0  0  0  0  0  0
  -19.0424   17.0250  -23.5674 C   0  0  0  0  0  0  0  0  0  0  0  0
  -19.5667   20.5869  -22.7615 N   0  0  0  0  0  0  0  0  0  0  0  0
  -19.4941   21.2577  -24.0274 C   0  0  0  0  0  0  0  0  0  0  0  0
  -19.0675   21.4464  -21.7313 C   0  0  0  0  0  0  0  0  0  0  0  0
 19 20  1  0  0  0
 20 13  1  0  0  0
 13 14  2  0  0  0
 14 15  1  0  0  0
 15 16  2  0  0  0
 16 17  1  0  0  0
 17 18  2  0  0  0
 18 21  1  0  0  0
 21 22  1  0  0  0
 22 23  2  0  0  0
 23 24  1  0  0  0
 24 25  2  0  0  0
 25 26  1  0  0  0
 25 27  1  0  0  0
 15  1  1  0  0  0
  1  2  2  0  0  0
  2  3  1  0  0  0
  3 28  1  0  0  0
 28 29  1  0  0  0
 29 30  1  0  0  0
 30 31  1  0  0  0
 31 32  1  0  0  0
 32 33  1  0  0  0
 33 34  1  0  0  0
 34 35  1  0  0  0
 33 36  1  0  0  0
 36 37  1  0  0  0
 36 38  1  0  0  0
  3  4  1  0  0  0
  4  5  2  0  0  0
  5  6  1  0  0  0
  6  7  2  0  0  0
  7  8  1  0  0  0
  8  9  1  0  0  0
  8 10  2  0  0  0
 18 13  1  0  0  0
 27 22  1  0  0  0
 10  1  1  0  0  0
 35 30  1  0  0  0
 10  4  1  0  0  0
  9 11  1  0  0  0
  9 12  1  0  0  0
M  END
> <minimizedAffinity>
-7.55446

> <CNNscore>
0.7232196331

> <CNNaffinity>
7.5343375206

> <CNN_VS>
5.4489808083

> <CNNaffinity_variance>
0.1618203968

$$$$
[H]c1nc(N([H])[H])c2c(-c3c([H])c([H])c(C([H])([H])c4nc([H])c(C([H])([H])[H])o4)c(OC([H])([H])[H])c3[H])nn(C([H])([H])C([H])([H])N3C([H])([H])C([H])([H])C([H])(N(C([H])([H])[H])C([H])([H])[H])C([H])([H])C3([H])[H])c2n1


 38 42  0  0  0  0  0  0  0  0999 V2000
  -18.6400   13.5509  -19.7190 C   0  0  0  0  0  0  0  0  0  0  0  0
  -19.6044   13.7727  -18.7978 N   0  0  0  0  0  0  0  0  0  0  0  0
  -19.7914   12.7522  -18.0269 N   0  0  0  0  0  0  0  0  0  0  0  0
  -18.9326   11.7957  -18.4262 C   0  0  0  0  0  0  0  0  0  0  0  0
  -18.7167   10.5355  -17.9761 N   0  0  0  0  0  0  0  0  0  0  0  0
  -17.7936    9.7642  -18.5692 C   0  0  0  0  0  0  0  0  0  0  0  0
  -17.0634   10.1992  -19.6095 N   0  0  0  0  0  0  0  0  0  0  0  0
  -17.2468   11.4516  -20.0907 C   0  0  0  0  0  0  0  0  0  0  0  0
  -16.5114   11.8982  -21.2066 N   0  0  0  0  0  0  0  0  0  0  0  0
  -18.1820   12.2786  -19.5103 C   0  0  0  0  0  0  0  0  0  0  0  0
  -16.9595   12.0122  -22.1351 H   0  0  0  0  0  0  0  0  0  0  0  0
  -15.4864   12.1335  -21.1496 H   0  0  0  0  0  0  0  0  0  0  0  0
  -16.8533   16.3066  -21.6225 C   0  0  0  0  0  0  0  0  0  0  0  0
  -17.2496   15.4562  -20.5952 C   0  0  0  0  0  0  0  0  0  0  0  0
  -18.2080   14.4830  -20.7543 C   0  0  0  0  0  0  0  0  0  0  0  0
  -18.7741   14.3986  -22.0392 C   0  0  0  0  0  0  0  0  0  0  0  0
  -18.3749   15.2438  -23.0443 C   0  0  0  0  0  0  0  0  0  0  0  0
  -17.4129   16.2152  -22.8748 C   0  0  0  0  0  0  0  0  0  0  0  0
  -15.9632   18.2395  -20.3904 C   0  0  0  0  0  0  0  0  0  0  0  0
  -15.8920   17.2369  -21.3550 O   0  0  0  0  0  0  0  0  0  0  0  0
  -17.0329   17.0885  -23.9957 C   0  0  0  0  0  0  0  0  0  0  0  0
  -16.1411   16.4305  -24.9792 C   0  0  0  0  0  0  0  0  0  0  0  0
  -14.9252   15.8853  -24.8319 N   0  0  0  0  0  0  0  0  0  0  0  0
  -14.5059   15.4040  -26.0189 C   0  0  0  0  0  0  0  0  0  0  0  0
  -15.5198   15.6789  -26.9011 C   0  0  0  0  0  0  0  0  0  0  0  0
  -15.5766   15.3636  -28.3472 C   0  0  0  0  0  0  0  0  0  0  0  0
  -16.4585   16.2836  -26.2385 O   0  0  0  0  0  0  0  0  0  0  0  0
  -20.7340   12.5818  -16.9109 C   0  0  0  0  0  0  0  0  0  0  0  0
  -19.9875   12.4015  -15.6116 C   0  0  0  0  0  0  0  0  0  0  0  0
  -20.2912   11.2322  -14.9046 N   0  0  0  0  0  0  0  0  0  0  0  0
  -21.1859   10.3053  -15.4825 C   0  0  0  0  0  0  0  0  0  0  0  0
  -20.7421    8.8671  -15.1781 C   0  0  0  0  0  0  0  0  0  0  0  0
  -19.9997    8.7986  -13.8770 C   0  0  0  0  0  0  0  0  0  0  0  0
  -20.5285    9.8535  -12.9227 C   0  0  0  0  0  0  0  0  0  0  0  0
  -20.0779   11.1928  -13.5195 C   0  0  0  0  0  0  0  0  0  0  0  0
  -20.0774    7.5152  -13.2253 N   0  0  0  0  0  0  0  0  0  0  0  0
  -19.0951    7.3070  -12.2007 C   0  0  0  0  0  0  0  0  0  0  0  0
  -20.0242    6.4405  -14.1694 C   0  0  0  0  0  0  0  0  0  0  0  0
 19 20  1  0  0  0
 20 13  1  0  0  0
 13 14  2  0  0  0
 14 15  1  0  0  0
 15 16  2  0  0  0
 16 17  1  0  0  0
 17 18  2  0  0  0
 18 21  1  0  0  0
 21 22  1  0  0  0
 22 23  2  0  0  0
 23 24  1  0  0  0
 24 25  2  0  0  0
 25 26  1  0  0  0
 25 27  1  0  0  0
 15  1  1  0  0  0
  1  2  2  0  0  0
  2  3  1  0  0  0
  3 28  1  0  0  0
 28 29  1  0  0  0
 29 30  1  0  0  0
 30 31  1  0  0  0
 31 32  1  0  0  0
 32 33  1  0  0  0
 33 34  1  0  0  0
 34 35  1  0  0  0
 33 36  1  0  0  0
 36 37  1  0  0  0
 36 38  1  0  0  0
  3  4  1  0  0  0
  4  5  2  0  0  0
  5  6  1  0  0  0
  6  7  2  0  0  0
  7  8  1  0  0  0
  8  9  1  0  0  0
  8 10  2  0  0  0
 18 13  1  0  0  0
 27 22  1  0  0  0
 10  1  1  0  0  0
 35 30  1  0  0  0
 10  4  1  0  0  0
  9 11  1  0  0  0
  9 12  1  0  0  0
M  END
> <minimizedAffinity>
-7.96081

> <CNNscore>
0.6847738028

> <CNNaffinity>
7.4404387474

> <CNN_VS>
5.0950174332

> <CNNaffinity_variance>
0.0869231448

$$$$
[H]c1nc(N([H])[H])c2c(-c3c([H])c([H])c(C([H])([H])c4nc([H])c(C([H])([H])[H])o4)c(OC([H])([H])[H])c3[H])nn(C([H])([H])C([H])([H])N3C([H])([H])C([H])([H])C([H])(N(C([H])([H])[H])C([H])([H])[H])C([H])([H])C3([H])[H])c2n1


 38 42  0  0  0  0  0  0  0  0999 V2000
  -19.7014   11.6542  -17.3911 C   0  0  0  0  0  0  0  0  0  0  0  0
  -20.1861   12.7884  -17.9448 N   0  0  0  0  0  0  0  0  0  0  0  0
  -19.6120   13.0710  -19.0678 N   0  0  0  0  0  0  0  0  0  0  0  0
  -18.7028   12.1054  -19.2982 C   0  0  0  0  0  0  0  0  0  0  0  0
  -17.8257   11.9194  -20.3148 N   0  0  0  0  0  0  0  0  0  0  0  0
  -17.0005   10.8624  -20.2989 C   0  0  0  0  0  0  0  0  0  0  0  0
  -17.0090    9.9668  -19.2977 N   0  0  0  0  0  0  0  0  0  0  0  0
  -17.8695   10.1145  -18.2625 C   0  0  0  0  0  0  0  0  0  0  0  0
  -17.8547    9.1997  -17.1908 N   0  0  0  0  0  0  0  0  0  0  0  0
  -18.7364   11.1837  -18.2393 C   0  0  0  0  0  0  0  0  0  0  0  0
  -17.4738    9.4646  -16.2631 H   0  0  0  0  0  0  0  0  0  0  0  0
  -18.2249    8.2178  -17.2817 H   0  0  0  0  0  0  0  0  0  0  0  0
  -21.0797    9.3383  -14.7179 C   0  0  0  0  0  0  0  0  0  0  0  0
  -20.7309    9.8589  -15.9600 C   0  0  0  0  0  0  0  0  0  0  0  0
  -20.1104   11.0761  -16.1161 C   0  0  0  0  0  0  0  0  0  0  0  0
  -19.8463   11.7753  -14.9245 C   0  0  0  0  0  0  0  0  0  0  0  0
  -20.1958   11.2511  -13.7050 C   0  0  0  0  0  0  0  0  0  0  0  0
  -20.8166   10.0299  -13.5594 C   0  0  0  0  0  0  0  0  0  0  0  0
  -22.6761    7.6645  -15.5526 C   0  0  0  0  0  0  0  0  0  0  0  0
  -21.6917    8.1196  -14.6782 O   0  0  0  0  0  0  0  0  0  0  0  0
  -21.1644    9.5278  -12.2214 C   0  0  0  0  0  0  0  0  0  0  0  0
  -20.2639   10.0229  -11.1538 C   0  0  0  0  0  0  0  0  0  0  0  0
  -20.4596   10.9446  -10.2003 N   0  0  0  0  0  0  0  0  0  0  0  0
  -19.3434   11.0571   -9.4534 C   0  0  0  0  0  0  0  0  0  0  0  0
  -18.4539   10.1624   -9.9923 C   0  0  0  0  0  0  0  0  0  0  0  0
  -17.0684    9.8806   -9.5512 C   0  0  0  0  0  0  0  0  0  0  0  0
  -19.0454    9.5796  -10.9906 O   0  0  0  0  0  0  0  0  0  0  0  0
  -19.8424   14.2024  -19.9789 C   0  0  0  0  0  0  0  0  0  0  0  0
  -18.9654   15.3715  -19.6020 C   0  0  0  0  0  0  0  0  0  0  0  0
  -19.3934   16.1063  -18.4902 N   0  0  0  0  0  0  0  0  0  0  0  0
  -20.5307   16.9325  -18.6224 C   0  0  0  0  0  0  0  0  0  0  0  0
  -21.3732   16.8981  -17.3391 C   0  0  0  0  0  0  0  0  0  0  0  0
  -20.5126   16.6376  -16.1389 C   0  0  0  0  0  0  0  0  0  0  0  0
  -19.1308   17.2269  -16.3546 C   0  0  0  0  0  0  0  0  0  0  0  0
  -18.4926   16.3577  -17.4457 C   0  0  0  0  0  0  0  0  0  0  0  0
  -21.0465   17.1674  -14.9093 N   0  0  0  0  0  0  0  0  0  0  0  0
  -22.2123   16.4869  -14.4240 C   0  0  0  0  0  0  0  0  0  0  0  0
  -21.3150   18.5698  -15.0122 C   0  0  0  0  0  0  0  0  0  0  0  0
 19 20  1  0  0  0
 20 13  1  0  0  0
 13 14  2  0  0  0
 14 15  1  0  0  0
 15 16  2  0  0  0
 16 17  1  0  0  0
 17 18  2  0  0  0
 18 21  1  0  0  0
 21 22  1  0  0  0
 22 23  2  0  0  0
 23 24  1  0  0  0
 24 25  2  0  0  0
 25 26  1  0  0  0
 25 27  1  0  0  0
 15  1  1  0  0  0
  1  2  2  0  0  0
  2  3  1  0  0  0
  3 28  1  0  0  0
 28 29  1  0  0  0
 29 30  1  0  0  0
 30 31  1  0  0  0
 31 32  1  0  0  0
 32 33  1  0  0  0
 33 34  1  0  0  0
 34 35  1  0  0  0
 33 36  1  0  0  0
 36 37  1  0  0  0
 36 38  1  0  0  0
  3  4  1  0  0  0
  4  5  2  0  0  0
  5  6  1  0  0  0
  6  7  2  0  0  0
  7  8  1  0  0  0
  8  9  1  0  0  0
  8 10  2  0  0  0
 18 13  1  0  0  0
 27 22  1  0  0  0
 10  1  1  0  0  0
 35 30  1  0  0  0
 10  4  1  0  0  0
  9 11  1  0  0  0
  9 12  1  0  0  0
M  END
> <minimizedAffinity>
-7.11980

> <CNNscore>
0.5984010696

> <CNNaffinity>
7.0885353088

> <CNN_VS>
4.2417869568

> <CNNaffinity_variance>
0.1407478005

$$$$
[H]c1nc(N([H])[H])c2c(-c3c([H])c([H])c(C([H])([H])c4nc([H])c(C([H])([H])[H])o4)c(OC([H])([H])[H])c3[H])nn(C([H])([H])C([H])([H])N3C([H])([H])C([H])([H])C([H])(N(C([H])([H])[H])C([H])([H])[H])C([H])([H])C3([H])[H])c2n1


 38 42  0  0  0  0  0  0  0  0999 V2000
  -18.3396   13.7514  -19.6102 C   0  0  0  0  0  0  0  0  0  0  0  0
  -19.1226   14.1574  -18.5855 N   0  0  0  0  0  0  0  0  0  0  0  0
  -19.3586   13.2076  -17.7413 N   0  0  0  0  0  0  0  0  0  0  0  0
  -18.7217   12.1118  -18.1947 C   0  0  0  0  0  0  0  0  0  0  0  0
  -18.6446   10.8495  -17.7070 N   0  0  0  0  0  0  0  0  0  0  0  0
  -17.9425    9.9194  -18.3708 C   0  0  0  0  0  0  0  0  0  0  0  0
  -17.3029   10.1949  -19.5196 N   0  0  0  0  0  0  0  0  0  0  0  0
  -17.3535   11.4432  -20.0419 C   0  0  0  0  0  0  0  0  0  0  0  0
  -16.7175   11.7267  -21.2669 N   0  0  0  0  0  0  0  0  0  0  0  0
  -18.0607   12.4297  -19.3922 C   0  0  0  0  0  0  0  0  0  0  0  0
  -17.2651   11.8796  -22.1343 H   0  0  0  0  0  0  0  0  0  0  0  0
  -15.6702   11.7953  -21.3564 H   0  0  0  0  0  0  0  0  0  0  0  0
  -17.9662   15.2624  -23.0724 C   0  0  0  0  0  0  0  0  0  0  0  0
  -18.3861   14.4437  -22.0288 C   0  0  0  0  0  0  0  0  0  0  0  0
  -17.9138   14.5654  -20.7430 C   0  0  0  0  0  0  0  0  0  0  0  0
  -16.9640   15.5835  -20.5434 C   0  0  0  0  0  0  0  0  0  0  0  0
  -16.5576   16.3843  -21.5815 C   0  0  0  0  0  0  0  0  0  0  0  0
  -17.0376   16.2548  -22.8662 C   0  0  0  0  0  0  0  0  0  0  0  0
  -18.3332   13.9190  -25.0991 C   0  0  0  0  0  0  0  0  0  0  0  0
  -18.5012   15.0548  -24.3101 O   0  0  0  0  0  0  0  0  0  0  0  0
  -16.5579   17.1471  -23.9325 C   0  0  0  0  0  0  0  0  0  0  0  0
  -15.8016   16.4429  -24.9944 C   0  0  0  0  0  0  0  0  0  0  0  0
  -14.6346   15.7847  -24.9491 N   0  0  0  0  0  0  0  0  0  0  0  0
  -14.3451   15.3060  -26.1752 C   0  0  0  0  0  0  0  0  0  0  0  0
  -15.3875   15.7007  -26.9748 C   0  0  0  0  0  0  0  0  0  0  0  0
  -15.5734   15.4392  -28.4208 C   0  0  0  0  0  0  0  0  0  0  0  0
  -16.2177   16.3666  -26.2309 O   0  0  0  0  0  0  0  0  0  0  0  0
  -20.1546   13.2300  -16.5048 C   0  0  0  0  0  0  0  0  0  0  0  0
  -21.4059   14.0518  -16.6967 C   0  0  0  0  0  0  0  0  0  0  0  0
  -21.1965   15.4186  -16.9133 N   0  0  0  0  0  0  0  0  0  0  0  0
  -20.5270   16.1662  -15.9200 C   0  0  0  0  0  0  0  0  0  0  0  0
  -19.6050   17.2121  -16.5634 C   0  0  0  0  0  0  0  0  0  0  0  0
  -20.1366   17.6490  -17.8958 C   0  0  0  0  0  0  0  0  0  0  0  0
  -21.6530   17.5905  -17.8929 C   0  0  0  0  0  0  0  0  0  0  0  0
  -21.9942   16.0957  -17.8464 C   0  0  0  0  0  0  0  0  0  0  0  0
  -19.7330   18.9784  -18.2800 N   0  0  0  0  0  0  0  0  0  0  0  0
  -20.8179   19.8620  -18.5966 C   0  0  0  0  0  0  0  0  0  0  0  0
  -18.7997   18.9532  -19.3651 C   0  0  0  0  0  0  0  0  0  0  0  0
 19 20  1  0  0  0
 20 13  1  0  0  0
 13 14  2  0  0  0
 14 15  1  0  0  0
 15 16  2  0  0  0
 16 17  1  0  0  0
 17 18  2  0  0  0
 18 21  1  0  0  0
 21 22  1  0  0  0
 22 23  2  0  0  0
 23 24  1  0  0  0
 24 25  2  0  0  0
 25 26  1  0  0  0
 25 27  1  0  0  0
 15  1  1  0  0  0
  1  2  2  0  0  0
  2  3  1  0  0  0
  3 28  1  0  0  0
 28 29  1  0  0  0
 29 30  1  0  0  0
 30 31  1  0  0  0
 31 32  1  0  0  0
 32 33  1  0  0  0
 33 34  1  0  0  0
 34 35  1  0  0  0
 33 36  1  0  0  0
 36 37  1  0  0  0
 36 38  1  0  0  0
  3  4  1  0  0  0
  4  5  2  0  0  0
  5  6  1  0  0  0
  6  7  2  0  0  0
  7  8  1  0  0  0
  8  9  1  0  0  0
  8 10  2  0  0  0
 18 13  1  0  0  0
 27 22  1  0  0  0
 10  1  1  0  0  0
 35 30  1  0  0  0
 10  4  1  0  0  0
  9 11  1  0  0  0
  9 12  1  0  0  0
M  END
> <minimizedAffinity>
-8.20973

> <CNNscore>
0.5201565027

> <CNNaffinity>
7.5036864281

> <CNN_VS>
3.9030911922

> <CNNaffinity_variance>
0.0522121489

$$$$
[H]c1nc(N([H])[H])c2c(-c3c([H])c([H])c(C([H])([H])c4nc([H])c(C([H])([H])[H])o4)c(OC([H])([H])[H])c3[H])nn(C([H])([H])C([H])([H])N3C([H])([H])C([H])([H])C([H])(N(C([H])([H])[H])C([H])([H])[H])C([H])([H])C3([H])[H])c2n1


 38 42  0  0  0  0  0  0  0  0999 V2000
  -19.1809   12.6374  -18.7033 C   0  0  0  0  0  0  0  0  0  0  0  0
  -19.5425   11.8272  -17.6832 N   0  0  0  0  0  0  0  0  0  0  0  0
  -18.8975   10.7072  -17.6931 N   0  0  0  0  0  0  0  0  0  0  0  0
  -18.0660   10.7421  -18.7511 C   0  0  0  0  0  0  0  0  0  0  0  0
  -17.1801    9.8346  -19.2295 N   0  0  0  0  0  0  0  0  0  0  0  0
  -16.4696   10.1131  -20.3323 C   0  0  0  0  0  0  0  0  0  0  0  0
  -16.6048   11.2753  -20.9923 N   0  0  0  0  0  0  0  0  0  0  0  0
  -17.4783   12.2100  -20.5485 C   0  0  0  0  0  0  0  0  0  0  0  0
  -17.6524   13.4138  -21.2599 N   0  0  0  0  0  0  0  0  0  0  0  0
  -18.2264   11.9670  -19.4186 C   0  0  0  0  0  0  0  0  0  0  0  0
  -18.5116   13.5920  -21.8129 H   0  0  0  0  0  0  0  0  0  0  0  0
  -16.9273   14.1777  -21.2625 H   0  0  0  0  0  0  0  0  0  0  0  0
  -19.7944   16.3807  -18.8494 C   0  0  0  0  0  0  0  0  0  0  0  0
  -19.2428   15.1463  -18.5214 C   0  0  0  0  0  0  0  0  0  0  0  0
  -19.7369   13.9537  -18.9955 C   0  0  0  0  0  0  0  0  0  0  0  0
  -20.8530   14.0587  -19.8451 C   0  0  0  0  0  0  0  0  0  0  0  0
  -21.3883   15.2826  -20.1608 C   0  0  0  0  0  0  0  0  0  0  0  0
  -20.8851   16.4719  -19.6811 C   0  0  0  0  0  0  0  0  0  0  0  0
  -19.3186   17.9309  -17.0009 C   0  0  0  0  0  0  0  0  0  0  0  0
  -19.2236   17.5024  -18.3231 O   0  0  0  0  0  0  0  0  0  0  0  0
  -21.5085   17.7492  -20.0594 C   0  0  0  0  0  0  0  0  0  0  0  0
  -21.4142   18.0446  -21.5083 C   0  0  0  0  0  0  0  0  0  0  0  0
  -20.3987   18.5243  -22.2404 N   0  0  0  0  0  0  0  0  0  0  0  0
  -20.7859   18.6254  -23.5273 C   0  0  0  0  0  0  0  0  0  0  0  0
  -22.0852   18.1860  -23.5515 C   0  0  0  0  0  0  0  0  0  0  0  0
  -22.9902   18.0890  -24.7199 C   0  0  0  0  0  0  0  0  0  0  0  0
  -22.4066   17.8559  -22.3375 O   0  0  0  0  0  0  0  0  0  0  0  0
  -18.9906    9.5646  -16.7717 C   0  0  0  0  0  0  0  0  0  0  0  0
  -20.2656    9.6370  -15.9672 C   0  0  0  0  0  0  0  0  0  0  0  0
  -20.1153   10.0741  -14.6461 N   0  0  0  0  0  0  0  0  0  0  0  0
  -20.3967   11.4244  -14.3440 C   0  0  0  0  0  0  0  0  0  0  0  0
  -21.0747   11.5388  -12.9711 C   0  0  0  0  0  0  0  0  0  0  0  0
  -20.6439   10.4242  -12.0651 C   0  0  0  0  0  0  0  0  0  0  0  0
  -19.2204   10.0118  -12.3920 C   0  0  0  0  0  0  0  0  0  0  0  0
  -19.3063    9.3392  -13.7680 C   0  0  0  0  0  0  0  0  0  0  0  0
  -20.7127   10.7496  -10.6625 N   0  0  0  0  0  0  0  0  0  0  0  0
  -21.3086   12.0224  -10.3750 C   0  0  0  0  0  0  0  0  0  0  0  0
  -19.4269   10.6675  -10.0386 C   0  0  0  0  0  0  0  0  0  0  0  0
 19 20  1  0  0  0
 20 13  1  0  0  0
 13 14  2  0  0  0
 14 15  1  0  0  0
 15 16  2  0  0  0
 16 17  1  0  0  0
 17 18  2  0  0  0
 18 21  1  0  0  0
 21 22  1  0  0  0
 22 23  2  0  0  0
 23 24  1  0  0  0
 24 25  2  0  0  0
 25 26  1  0  0  0
 25 27  1  0  0  0
 15  1  1  0  0  0
  1  2  2  0  0  0
  2  3  1  0  0  0
  3 28  1  0  0  0
 28 29  1  0  0  0
 29 30  1  0  0  0
 30 31  1  0  0  0
 31 32  1  0  0  0
 32 33  1  0  0  0
 33 34  1  0  0  0
 34 35  1  0  0  0
 33 36  1  0  0  0
 36 37  1  0  0  0
 36 38  1  0  0  0
  3  4  1  0  0  0
  4  5  2  0  0  0
  5  6  1  0  0  0
  6  7  2  0  0  0
  7  8  1  0  0  0
  8  9  1  0  0  0
  8 10  2  0  0  0
 18 13  1  0  0  0
 27 22  1  0  0  0
 10  1  1  0  0  0
 35 30  1  0  0  0
 10  4  1  0  0  0
  9 11  1  0  0  0
  9 12  1  0  0  0
M  END
> <minimizedAffinity>
-7.76242

> <CNNscore>
0.5192768574

> <CNNaffinity>
7.1688437462

> <CNN_VS>
3.7226147652

> <CNNaffinity_variance>
0.1489205658

$$$$
[H]c1nc(N([H])[H])c2c(-c3c([H])c([H])c(C([H])([H])c4nc([H])c(C([H])([H])[H])o4)c(OC([H])([H])[H])c3[H])nn(C([H])([H])C([H])([H])N3C([H])([H])C([H])([H])C([H])(N(C([H])([H])[H])C([H])([H])[H])C([H])([H])C3([H])[H])c2n1


 38 42  0  0  0  0  0  0  0  0999 V2000
  -18.7280   13.6863  -19.6189 C   0  0  0  0  0  0  0  0  0  0  0  0
  -19.7248   13.9380  -18.7408 N   0  0  0  0  0  0  0  0  0  0  0  0
  -19.9547   12.9355  -17.9581 N   0  0  0  0  0  0  0  0  0  0  0  0
  -19.0931   11.9610  -18.3044 C   0  0  0  0  0  0  0  0  0  0  0  0
  -18.9108   10.7076  -17.8216 N   0  0  0  0  0  0  0  0  0  0  0  0
  -17.9751    9.9138  -18.3627 C   0  0  0  0  0  0  0  0  0  0  0  0
  -17.1994   10.3191  -19.3818 N   0  0  0  0  0  0  0  0  0  0  0  0
  -17.3479   11.5637  -19.8943 C   0  0  0  0  0  0  0  0  0  0  0  0
  -16.5640   11.9791  -20.9890 N   0  0  0  0  0  0  0  0  0  0  0  0
  -18.2947   12.4131  -19.3675 C   0  0  0  0  0  0  0  0  0  0  0  0
  -16.9739   12.0797  -21.9364 H   0  0  0  0  0  0  0  0  0  0  0  0
  -15.5390   12.2033  -20.8963 H   0  0  0  0  0  0  0  0  0  0  0  0
  -16.8254   16.3739  -21.5075 C   0  0  0  0  0  0  0  0  0  0  0  0
  -17.2716   15.5487  -20.4800 C   0  0  0  0  0  0  0  0  0  0  0  0
  -18.2442   14.5923  -20.6544 C   0  0  0  0  0  0  0  0  0  0  0  0
  -18.7704   14.4978  -21.9554 C   0  0  0  0  0  0  0  0  0  0  0  0
  -18.3221   15.3181  -22.9605 C   0  0  0  0  0  0  0  0  0  0  0  0
  -17.3463   16.2728  -22.7756 C   0  0  0  0  0  0  0  0  0  0  0  0
  -15.9057   18.2610  -20.2270 C   0  0  0  0  0  0  0  0  0  0  0  0
  -15.8544   17.2892  -21.2239 O   0  0  0  0  0  0  0  0  0  0  0  0
  -16.9129   17.1196  -23.8974 C   0  0  0  0  0  0  0  0  0  0  0  0
  -16.0838   16.4001  -24.8926 C   0  0  0  0  0  0  0  0  0  0  0  0
  -14.9126   15.7614  -24.7596 N   0  0  0  0  0  0  0  0  0  0  0  0
  -14.5426   15.2560  -25.9529 C   0  0  0  0  0  0  0  0  0  0  0  0
  -15.5400   15.6138  -26.8241 C   0  0  0  0  0  0  0  0  0  0  0  0
  -15.6342   15.3123  -28.2712 C   0  0  0  0  0  0  0  0  0  0  0  0
  -16.4230   16.2856  -26.1495 O   0  0  0  0  0  0  0  0  0  0  0  0
  -20.9423   12.7987  -16.8769 C   0  0  0  0  0  0  0  0  0  0  0  0
  -20.8052   13.9319  -15.8895 C   0  0  0  0  0  0  0  0  0  0  0  0
  -21.4351   15.1262  -16.2584 N   0  0  0  0  0  0  0  0  0  0  0  0
  -20.8225   16.3498  -15.9103 C   0  0  0  0  0  0  0  0  0  0  0  0
  -21.0058   17.3819  -17.0323 C   0  0  0  0  0  0  0  0  0  0  0  0
  -22.2720   17.1271  -17.7944 C   0  0  0  0  0  0  0  0  0  0  0  0
  -23.3184   16.5261  -16.8740 C   0  0  0  0  0  0  0  0  0  0  0  0
  -22.8055   15.1162  -16.5543 C   0  0  0  0  0  0  0  0  0  0  0  0
  -22.8308   18.3037  -18.4118 N   0  0  0  0  0  0  0  0  0  0  0  0
  -23.7865   18.0360  -19.4476 C   0  0  0  0  0  0  0  0  0  0  0  0
  -21.8088   19.1724  -18.9119 C   0  0  0  0  0  0  0  0  0  0  0  0
 19 20  1  0  0  0
 20 13  1  0  0  0
 13 14  2  0  0  0
 14 15  1  0  0  0
 15 16  2  0  0  0
 16 17  1  0  0  0
 17 18  2  0  0  0
 18 21  1  0  0  0
 21 22  1  0  0  0
 22 23  2  0  0  0
 23 24  1  0  0  0
 24 25  2  0  0  0
 25 26  1  0  0  0
 25 27  1  0  0  0
 15  1  1  0  0  0
  1  2  2  0  0  0
  2  3  1  0  0  0
  3 28  1  0  0  0
 28 29  1  0  0  0
 29 30  1  0  0  0
 30 31  1  0  0  0
 31 32  1  0  0  0
 32 33  1  0  0  0
 33 34  1  0  0  0
 34 35  1  0  0  0
 33 36  1  0  0  0
 36 37  1  0  0  0
 36 38  1  0  0  0
  3  4  1  0  0  0
  4  5  2  0  0  0
  5  6  1  0  0  0
  6  7  2  0  0  0
  7  8  1  0  0  0
  8  9  1  0  0  0
  8 10  2  0  0  0
 18 13  1  0  0  0
 27 22  1  0  0  0
 10  1  1  0  0  0
 35 30  1  0  0  0
 10  4  1  0  0  0
  9 11  1  0  0  0
  9 12  1  0  0  0
M  END
> <minimizedAffinity>
-7.36231

> <CNNscore>
0.4753797650

> <CNNaffinity>
7.4777069092

> <CNN_VS>
3.5547504425

> <CNNaffinity_variance>
0.1793876439

$$$$
[H]c1nc(N([H])[H])c2c(-c3c([H])c([H])c(C([H])([H])c4nc([H])c(C([H])([H])[H])o4)c(OC([H])([H])[H])c3[H])nn(C([H])([H])C([H])([H])N3C([H])([H])C([H])([H])C([H])(N(C([H])([H])[H])C([H])([H])[H])C([H])([H])C3([H])[H])c2n1


 38 42  0  0  0  0  0  0  0  0999 V2000
  -19.5849   11.8234  -17.6878 C   0  0  0  0  0  0  0  0  0  0  0  0
  -20.0877   12.9681  -18.2022 N   0  0  0  0  0  0  0  0  0  0  0  0
  -19.5365   13.2846  -19.3277 N   0  0  0  0  0  0  0  0  0  0  0  0
  -18.6249   12.3324  -19.6001 C   0  0  0  0  0  0  0  0  0  0  0  0
  -17.7655   12.1799  -20.6372 N   0  0  0  0  0  0  0  0  0  0  0  0
  -16.9326   11.1292  -20.6645 C   0  0  0  0  0  0  0  0  0  0  0  0
  -16.9162   10.2074  -19.6874 N   0  0  0  0  0  0  0  0  0  0  0  0
  -17.7584   10.3212  -18.6331 C   0  0  0  0  0  0  0  0  0  0  0  0
  -17.7173    9.3786  -17.5865 N   0  0  0  0  0  0  0  0  0  0  0  0
  -18.6324   11.3828  -18.5657 C   0  0  0  0  0  0  0  0  0  0  0  0
  -17.3212    9.6217  -16.6593 H   0  0  0  0  0  0  0  0  0  0  0  0
  -18.0821    8.3966  -17.6967 H   0  0  0  0  0  0  0  0  0  0  0  0
  -20.9783    9.4687  -15.0565 C   0  0  0  0  0  0  0  0  0  0  0  0
  -20.6593   10.0284  -16.2896 C   0  0  0  0  0  0  0  0  0  0  0  0
  -19.9660   11.2087  -16.4212 C   0  0  0  0  0  0  0  0  0  0  0  0
  -19.5938   11.8271  -15.2140 C   0  0  0  0  0  0  0  0  0  0  0  0
  -19.9149   11.2650  -14.0036 C   0  0  0  0  0  0  0  0  0  0  0  0
  -20.6092   10.0813  -13.8825 C   0  0  0  0  0  0  0  0  0  0  0  0
  -21.1358    7.0224  -15.2504 C   0  0  0  0  0  0  0  0  0  0  0  0
  -21.6691    8.2924  -15.0415 O   0  0  0  0  0  0  0  0  0  0  0  0
  -20.9210    9.5351  -12.5529 C   0  0  0  0  0  0  0  0  0  0  0  0
  -19.7331    9.0147  -11.8363 C   0  0  0  0  0  0  0  0  0  0  0  0
  -19.1050    7.8335  -11.9240 N   0  0  0  0  0  0  0  0  0  0  0  0
  -18.0633    7.8183  -11.0690 C   0  0  0  0  0  0  0  0  0  0  0  0
  -18.0810    9.0438  -10.4528 C   0  0  0  0  0  0  0  0  0  0  0  0
  -17.1512    9.5549   -9.4193 C   0  0  0  0  0  0  0  0  0  0  0  0
  -19.0833    9.7097  -10.9405 O   0  0  0  0  0  0  0  0  0  0  0  0
  -19.7919   14.4378  -20.2040 C   0  0  0  0  0  0  0  0  0  0  0  0
  -18.6054   15.3708  -20.2088 C   0  0  0  0  0  0  0  0  0  0  0  0
  -17.9842   15.5421  -21.4513 N   0  0  0  0  0  0  0  0  0  0  0  0
  -16.6050   15.8427  -21.4825 C   0  0  0  0  0  0  0  0  0  0  0  0
  -15.9247   15.1279  -22.6589 C   0  0  0  0  0  0  0  0  0  0  0  0
  -16.8864   14.9233  -23.7912 C   0  0  0  0  0  0  0  0  0  0  0  0
  -17.8991   16.0532  -23.8213 C   0  0  0  0  0  0  0  0  0  0  0  0
  -18.7675   15.8435  -22.5743 C   0  0  0  0  0  0  0  0  0  0  0  0
  -16.2579   14.8409  -25.0858 N   0  0  0  0  0  0  0  0  0  0  0  0
  -16.9452   14.0075  -26.0297 C   0  0  0  0  0  0  0  0  0  0  0  0
  -14.8914   14.4269  -24.9830 C   0  0  0  0  0  0  0  0  0  0  0  0
 19 20  1  0  0  0
 20 13  1  0  0  0
 13 14  2  0  0  0
 14 15  1  0  0  0
 15 16  2  0  0  0
 16 17  1  0  0  0
 17 18  2  0  0  0
 18 21  1  0  0  0
 21 22  1  0  0  0
 22 23  2  0  0  0
 23 24  1  0  0  0
 24 25  2  0  0  0
 25 26  1  0  0  0
 25 27  1  0  0  0
 15  1  1  0  0  0
  1  2  2  0  0  0
  2  3  1  0  0  0
  3 28  1  0  0  0
 28 29  1  0  0  0
 29 30  1  0  0  0
 30 31  1  0  0  0
 31 32  1  0  0  0
 32 33  1  0  0  0
 33 34  1  0  0  0
 34 35  1  0  0  0
 33 36  1  0  0  0
 36 37  1  0  0  0
 36 38  1  0  0  0
  3  4  1  0  0  0
  4  5  2  0  0  0
  5  6  1  0  0  0
  6  7  2  0  0  0
  7  8  1  0  0  0
  8  9  1  0  0  0
  8 10  2  0  0  0
 18 13  1  0  0  0
 27 22  1  0  0  0
 10  1  1  0  0  0
 35 30  1  0  0  0
 10  4  1  0  0  0
  9 11  1  0  0  0
  9 12  1  0  0  0
M  END
> <minimizedAffinity>
-8.00432

> <CNNscore>
0.4180710614

> <CNNaffinity>
7.1256513596

> <CNN_VS>
2.9790287018

> <CNNaffinity_variance>
0.0776292831

$$$$
[H]c1nc(N([H])C([H])([H])C([H])([H])C([H])([H])C2([H])N([H])C([H])([H])C([H])([H])OC2([H])[H])c([H])c(-n2c(N([H])c3c([H])c(N([H])C(=O)c4c([H])c([H])c([H])c(C(F)(F)F)c4[H])c([H])c([H])c3C([H])([H])[H])nc3c([H])c([H])c([H])c([H])c32)n1


 50 55  0  0  0  0  0  0  0  0999 V2000
  -18.9299   13.0792  -18.7001 C   0  0  0  0  0  0  0  0  0  0  0  0
  -19.8118   12.9574  -17.7038 N   0  0  0  0  0  0  0  0  0  0  0  0
  -19.8525   11.7211  -17.2007 C   0  0  0  0  0  0  0  0  0  0  0  0
  -20.5576   11.1227  -16.1620 C   0  0  0  0  0  0  0  0  0  0  0  0
  -20.3709    9.8042  -15.8263 C   0  0  0  0  0  0  0  0  0  0  0  0
  -19.4544    9.0752  -16.5516 C   0  0  0  0  0  0  0  0  0  0  0  0
  -18.7496    9.6638  -17.5875 C   0  0  0  0  0  0  0  0  0  0  0  0
  -18.9185   11.0036  -17.9509 C   0  0  0  0  0  0  0  0  0  0  0  0
  -18.3776   11.8323  -18.8459 N   0  0  0  0  0  0  0  0  0  0  0  0
  -17.4641   11.4862  -19.8678 C   0  0  0  0  0  0  0  0  0  0  0  0
  -17.2681   12.1477  -21.0614 C   0  0  0  0  0  0  0  0  0  0  0  0
  -16.3228   11.8163  -21.9850 C   0  0  0  0  0  0  0  0  0  0  0  0
  -15.5179   10.7501  -21.7118 N   0  0  0  0  0  0  0  0  0  0  0  0
  -15.6809   10.0703  -20.5450 C   0  0  0  0  0  0  0  0  0  0  0  0
  -16.6106   10.4289  -19.6741 N   0  0  0  0  0  0  0  0  0  0  0  0
  -16.1194   12.6065  -23.1375 N   0  0  0  0  0  0  0  0  0  0  0  0
  -15.1223   12.8993  -23.3546 H   0  0  0  0  0  0  0  0  0  0  0  0
  -17.1784   13.0058  -23.9827 C   0  0  0  0  0  0  0  0  0  0  0  0
  -17.6906   14.4122  -23.8180 C   0  0  0  0  0  0  0  0  0  0  0  0
  -17.5677   15.0864  -25.1526 C   0  0  0  0  0  0  0  0  0  0  0  0
  -16.5162   16.1780  -25.2057 C   0  0  0  0  0  0  0  0  0  0  0  0
  -15.5901   16.1760  -24.0393 C   0  0  0  0  0  0  0  0  0  0  0  0
  -14.5614   15.2635  -24.0794 O   0  0  0  0  0  0  0  0  0  0  0  0
  -14.1388   14.8377  -25.3014 C   0  0  0  0  0  0  0  0  0  0  0  0
  -14.3768   15.9729  -26.2858 C   0  0  0  0  0  0  0  0  0  0  0  0
  -15.8208   15.9983  -26.4712 N   0  0  0  0  0  0  0  0  0  0  0  0
  -16.0205   15.0320  -26.8918 H   0  0  0  0  0  0  0  0  0  0  0  0
  -18.6425   14.2248  -19.4553 N   0  0  0  0  0  0  0  0  0  0  0  0
  -17.8611   14.1138  -20.1707 H   0  0  0  0  0  0  0  0  0  0  0  0
  -18.0139   15.5962  -17.1631 C   0  0  0  0  0  0  0  0  0  0  0  0
  -18.8829   16.2136  -18.1829 C   0  0  0  0  0  0  0  0  0  0  0  0
  -19.3134   17.5050  -18.0109 C   0  0  0  0  0  0  0  0  0  0  0  0
  -20.1362   18.0769  -18.9901 C   0  0  0  0  0  0  0  0  0  0  0  0
  -20.5070   17.3726  -20.0962 C   0  0  0  0  0  0  0  0  0  0  0  0
  -20.0735   16.0515  -20.2741 C   0  0  0  0  0  0  0  0  0  0  0  0
  -19.2605   15.4741  -19.3203 C   0  0  0  0  0  0  0  0  0  0  0  0
  -21.2109   17.9743  -21.2112 N   0  0  0  0  0  0  0  0  0  0  0  0
  -20.5223   18.7587  -22.1220 C   0  0  0  0  0  0  0  0  0  0  0  0
  -19.2665   18.9704  -22.0009 O   0  0  0  0  0  0  0  0  0  0  0  0
  -22.2275   17.7717  -21.2644 H   0  0  0  0  0  0  0  0  0  0  0  0
  -21.1130   19.4120  -23.2835 C   0  0  0  0  0  0  0  0  0  0  0  0
  -20.5843   20.5814  -23.7329 C   0  0  0  0  0  0  0  0  0  0  0  0
  -21.0656   21.1790  -24.8593 C   0  0  0  0  0  0  0  0  0  0  0  0
  -22.0988   20.6291  -25.5790 C   0  0  0  0  0  0  0  0  0  0  0  0
  -22.6414   19.4460  -25.1260 C   0  0  0  0  0  0  0  0  0  0  0  0
  -22.1572   18.8310  -23.9814 C   0  0  0  0  0  0  0  0  0  0  0  0
  -23.7498   18.7844  -25.8716 C   0  0  0  0  0  0  0  0  0  0  0  0
  -23.5486   18.9159  -27.2483 F   0  0  0  0  0  0  0  0  0  0  0  0
  -24.9531   19.4103  -25.5850 F   0  0  0  0  0  0  0  0  0  0  0  0
  -23.8606   17.4479  -25.6189 F   0  0  0  0  0  0  0  0  0  0  0  0
 30 31  1  0  0  0
 31 32  2  0  0  0
 32 33  1  0  0  0
 33 34  2  0  0  0
 34 37  1  0  0  0
 37 38  1  0  0  0
 38 39  2  0  0  0
 38 41  1  0  0  0
 41 42  2  0  0  0
 42 43  1  0  0  0
 43 44  2  0  0  0
 44 45  1  0  0  0
 45 46  2  0  0  0
 45 47  1  0  0  0
 47 48  1  0  0  0
 47 49  1  0  0  0
 47 50  1  0  0  0
 34 35  1  0  0  0
 35 36  2  0  0  0
 36 28  1  0  0  0
 28  1  1  0  0  0
  1  2  2  0  0  0
  2  3  1  0  0  0
  3  4  2  0  0  0
  4  5  1  0  0  0
  5  6  2  0  0  0
  6  7  1  0  0  0
  7  8  2  0  0  0
  8  9  1  0  0  0
  9 10  1  0  0  0
 10 11  2  0  0  0
 11 12  1  0  0  0
 12 16  1  0  0  0
 16 18  1  0  0  0
 18 19  1  0  0  0
 19 20  1  0  0  0
 20 21  1  0  0  0
 21 22  1  0  0  0
 22 23  1  0  0  0
 23 24  1  0  0  0
 24 25  1  0  0  0
 25 26  1  0  0  0
 12 13  2  0  0  0
 13 14  1  0  0  0
 14 15  2  0  0  0
 36 31  1  0  0  0
  9  1  1  0  0  0
 15 10  1  0  0  0
 46 41  1  0  0  0
  8  3  1  0  0  0
 26 21  1  0  0  0
 37 40  1  0  0  0
 28 29  1  0  0  0
 16 17  1  0  0  0
 26 27  1  0  0  0
M  END
> <minimizedAffinity>
-10.44463

> <CNNscore>
0.6263287067

> <CNNaffinity>
8.2668199539

> <CNN_VS>
5.1777467728

> <CNNaffinity_variance>
0.1576616019

$$$$
[H]c1nc(N([H])C([H])([H])C([H])([H])C([H])([H])C2([H])N([H])C([H])([H])C([H])([H])OC2([H])[H])c([H])c(-n2c(N([H])c3c([H])c(N([H])C(=O)c4c([H])c([H])c([H])c(C(F)(F)F)c4[H])c([H])c([H])c3C([H])([H])[H])nc3c([H])c([H])c([H])c([H])c32)n1


 50 55  0  0  0  0  0  0  0  0999 V2000
  -19.6165   12.6207  -18.0740 C   0  0  0  0  0  0  0  0  0  0  0  0
  -20.3676   12.2803  -17.0226 N   0  0  0  0  0  0  0  0  0  0  0  0
  -20.1264   11.0371  -16.5987 C   0  0  0  0  0  0  0  0  0  0  0  0
  -20.6096   10.2627  -15.5496 C   0  0  0  0  0  0  0  0  0  0  0  0
  -20.1452    8.9917  -15.3150 C   0  0  0  0  0  0  0  0  0  0  0  0
  -19.1736    8.4925  -16.1543 C   0  0  0  0  0  0  0  0  0  0  0  0
  -18.6886    9.2572  -17.2013 C   0  0  0  0  0  0  0  0  0  0  0  0
  -19.1421   10.5539  -17.4634 C   0  0  0  0  0  0  0  0  0  0  0  0
  -18.8508   11.5149  -18.3420 N   0  0  0  0  0  0  0  0  0  0  0  0
  -17.9816   11.4045  -19.4514 C   0  0  0  0  0  0  0  0  0  0  0  0
  -17.9808   12.1911  -20.5836 C   0  0  0  0  0  0  0  0  0  0  0  0
  -17.0745   12.0914  -21.5961 C   0  0  0  0  0  0  0  0  0  0  0  0
  -16.1031   11.1410  -21.4842 N   0  0  0  0  0  0  0  0  0  0  0  0
  -16.0709   10.3437  -20.3827 C   0  0  0  0  0  0  0  0  0  0  0  0
  -16.9700   10.4773  -19.4208 N   0  0  0  0  0  0  0  0  0  0  0  0
  -17.0819   13.0023  -22.6751 N   0  0  0  0  0  0  0  0  0  0  0  0
  -17.7056   13.8565  -22.5841 H   0  0  0  0  0  0  0  0  0  0  0  0
  -16.3037   12.8099  -23.8382 C   0  0  0  0  0  0  0  0  0  0  0  0
  -15.0946   13.6918  -24.0047 C   0  0  0  0  0  0  0  0  0  0  0  0
  -15.2954   14.8883  -23.1222 C   0  0  0  0  0  0  0  0  0  0  0  0
  -15.4737   16.1941  -23.8726 C   0  0  0  0  0  0  0  0  0  0  0  0
  -16.1446   16.0403  -25.1932 C   0  0  0  0  0  0  0  0  0  0  0  0
  -17.5160   15.9329  -25.1713 O   0  0  0  0  0  0  0  0  0  0  0  0
  -18.1782   16.4826  -24.1166 C   0  0  0  0  0  0  0  0  0  0  0  0
  -17.3583   17.6695  -23.6334 C   0  0  0  0  0  0  0  0  0  0  0  0
  -16.2062   17.0723  -22.9729 N   0  0  0  0  0  0  0  0  0  0  0  0
  -16.6557   16.5207  -22.1702 H   0  0  0  0  0  0  0  0  0  0  0  0
  -19.6214   13.8356  -18.7735 N   0  0  0  0  0  0  0  0  0  0  0  0
  -19.8548   13.7625  -19.8103 H   0  0  0  0  0  0  0  0  0  0  0  0
  -18.7546   15.6998  -20.5910 C   0  0  0  0  0  0  0  0  0  0  0  0
  -18.9448   16.0742  -19.1769 C   0  0  0  0  0  0  0  0  0  0  0  0
  -18.7564   17.3778  -18.7924 C   0  0  0  0  0  0  0  0  0  0  0  0
  -18.9435   17.7169  -17.4459 C   0  0  0  0  0  0  0  0  0  0  0  0
  -19.3061   16.7773  -16.5279 C   0  0  0  0  0  0  0  0  0  0  0  0
  -19.4952   15.4434  -16.9150 C   0  0  0  0  0  0  0  0  0  0  0  0
  -19.3176   15.0932  -18.2379 C   0  0  0  0  0  0  0  0  0  0  0  0
  -19.6754   17.1106  -15.1666 N   0  0  0  0  0  0  0  0  0  0  0  0
  -20.9535   17.5668  -14.8884 C   0  0  0  0  0  0  0  0  0  0  0  0
  -21.8255   17.7059  -15.8139 O   0  0  0  0  0  0  0  0  0  0  0  0
  -18.9326   16.9801  -14.4535 H   0  0  0  0  0  0  0  0  0  0  0  0
  -21.4468   17.9286  -13.5652 C   0  0  0  0  0  0  0  0  0  0  0  0
  -20.6708   18.6896  -12.7481 C   0  0  0  0  0  0  0  0  0  0  0  0
  -21.1322   19.1070  -11.5354 C   0  0  0  0  0  0  0  0  0  0  0  0
  -22.3897   18.7752  -11.0921 C   0  0  0  0  0  0  0  0  0  0  0  0
  -23.1791   18.0005  -11.9142 C   0  0  0  0  0  0  0  0  0  0  0  0
  -22.7178   17.5724  -13.1499 C   0  0  0  0  0  0  0  0  0  0  0  0
  -24.5616   17.6230  -11.5037 C   0  0  0  0  0  0  0  0  0  0  0  0
  -24.5374   16.9921  -10.2570 F   0  0  0  0  0  0  0  0  0  0  0  0
  -25.0889   16.7078  -12.4015 F   0  0  0  0  0  0  0  0  0  0  0  0
  -25.4093   18.6862  -11.3871 F   0  0  0  0  0  0  0  0  0  0  0  0
 30 31  1  0  0  0
 31 32  2  0  0  0
 32 33  1  0  0  0
 33 34  2  0  0  0
 34 37  1  0  0  0
 37 38  1  0  0  0
 38 39  2  0  0  0
 38 41  1  0  0  0
 41 42  2  0  0  0
 42 43  1  0  0  0
 43 44  2  0  0  0
 44 45  1  0  0  0
 45 46  2  0  0  0
 45 47  1  0  0  0
 47 48  1  0  0  0
 47 49  1  0  0  0
 47 50  1  0  0  0
 34 35  1  0  0  0
 35 36  2  0  0  0
 36 28  1  0  0  0
 28  1  1  0  0  0
  1  2  2  0  0  0
  2  3  1  0  0  0
  3  4  2  0  0  0
  4  5  1  0  0  0
  5  6  2  0  0  0
  6  7  1  0  0  0
  7  8  2  0  0  0
  8  9  1  0  0  0
  9 10  1  0  0  0
 10 11  2  0  0  0
 11 12  1  0  0  0
 12 16  1  0  0  0
 16 18  1  0  0  0
 18 19  1  0  0  0
 19 20  1  0  0  0
 20 21  1  0  0  0
 21 22  1  0  0  0
 22 23  1  0  0  0
 23 24  1  0  0  0
 24 25  1  0  0  0
 25 26  1  0  0  0
 12 13  2  0  0  0
 13 14  1  0  0  0
 14 15  2  0  0  0
 36 31  1  0  0  0
  9  1  1  0  0  0
 15 10  1  0  0  0
 46 41  1  0  0  0
  8  3  1  0  0  0
 26 21  1  0  0  0
 37 40  1  0  0  0
 28 29  1  0  0  0
 16 17  1  0  0  0
 26 27  1  0  0  0
M  END
> <minimizedAffinity>
-8.88642

> <CNNscore>
0.2447552532

> <CNNaffinity>
7.5515213013

> <CNN_VS>
1.8482744694

> <CNNaffinity_variance>
0.0980092064

$$$$
[H]c1nc(N([H])C([H])([H])C([H])([H])C([H])([H])C2([H])N([H])C([H])([H])C([H])([H])OC2([H])[H])c([H])c(-n2c(N([H])c3c([H])c(N([H])C(=O)c4c([H])c([H])c([H])c(C(F)(F)F)c4[H])c([H])c([H])c3C([H])([H])[H])nc3c([H])c([H])c([H])c([H])c32)n1


 50 55  0  0  0  0  0  0  0  0999 V2000
  -23.8421   18.1545  -22.5779 C   0  0  0  0  0  0  0  0  0  0  0  0
  -24.0133   17.3585  -23.6374 N   0  0  0  0  0  0  0  0  0  0  0  0
  -23.7308   17.9692  -24.7909 C   0  0  0  0  0  0  0  0  0  0  0  0
  -23.7182   17.5644  -26.1213 C   0  0  0  0  0  0  0  0  0  0  0  0
  -23.3383   18.4130  -27.1321 C   0  0  0  0  0  0  0  0  0  0  0  0
  -22.9629   19.6946  -26.7944 C   0  0  0  0  0  0  0  0  0  0  0  0
  -22.9740   20.1049  -25.4723 C   0  0  0  0  0  0  0  0  0  0  0  0
  -23.3551   19.2628  -24.4229 C   0  0  0  0  0  0  0  0  0  0  0  0
  -23.4301   19.3565  -23.0941 N   0  0  0  0  0  0  0  0  0  0  0  0
  -23.2337   20.5238  -22.3211 C   0  0  0  0  0  0  0  0  0  0  0  0
  -22.1868   20.7807  -21.4616 C   0  0  0  0  0  0  0  0  0  0  0  0
  -22.0036   21.9531  -20.7920 C   0  0  0  0  0  0  0  0  0  0  0  0
  -22.9254   22.9400  -20.9805 N   0  0  0  0  0  0  0  0  0  0  0  0
  -23.9739   22.7247  -21.8197 C   0  0  0  0  0  0  0  0  0  0  0  0
  -24.1115   21.5707  -22.4529 N   0  0  0  0  0  0  0  0  0  0  0  0
  -20.8502   22.1735  -20.0077 N   0  0  0  0  0  0  0  0  0  0  0  0
  -20.1890   22.9417  -20.3233 H   0  0  0  0  0  0  0  0  0  0  0  0
  -20.5628   21.4189  -18.8487 C   0  0  0  0  0  0  0  0  0  0  0  0
  -19.2296   20.7204  -18.8016 C   0  0  0  0  0  0  0  0  0  0  0  0
  -19.2988   19.5708  -19.7631 C   0  0  0  0  0  0  0  0  0  0  0  0
  -18.2463   19.6060  -20.8544 C   0  0  0  0  0  0  0  0  0  0  0  0
  -17.6664   18.2715  -21.1717 C   0  0  0  0  0  0  0  0  0  0  0  0
  -18.4127   17.4634  -21.9980 O   0  0  0  0  0  0  0  0  0  0  0  0
  -19.2812   18.0644  -22.8569 C   0  0  0  0  0  0  0  0  0  0  0  0
  -18.7030   19.4267  -23.2092 C   0  0  0  0  0  0  0  0  0  0  0  0
  -18.8879   20.2240  -22.0049 N   0  0  0  0  0  0  0  0  0  0  0  0
  -19.9548   20.2390  -21.8949 H   0  0  0  0  0  0  0  0  0  0  0  0
  -24.0582   17.8434  -21.2282 N   0  0  0  0  0  0  0  0  0  0  0  0
  -25.0668   17.9314  -20.8970 H   0  0  0  0  0  0  0  0  0  0  0  0
  -24.7282   18.2281  -18.5951 C   0  0  0  0  0  0  0  0  0  0  0  0
  -23.4427   17.5971  -18.9495 C   0  0  0  0  0  0  0  0  0  0  0  0
  -22.6189   17.1375  -17.9531 C   0  0  0  0  0  0  0  0  0  0  0  0
  -21.4028   16.5386  -18.3072 C   0  0  0  0  0  0  0  0  0  0  0  0
  -21.0362   16.4098  -19.6133 C   0  0  0  0  0  0  0  0  0  0  0  0
  -21.8724   16.8819  -20.6345 C   0  0  0  0  0  0  0  0  0  0  0  0
  -23.0749   17.4719  -20.3030 C   0  0  0  0  0  0  0  0  0  0  0  0
  -19.8757   15.6491  -20.0321 N   0  0  0  0  0  0  0  0  0  0  0  0
  -19.9757   14.2799  -20.2170 C   0  0  0  0  0  0  0  0  0  0  0  0
  -21.0788   13.6619  -20.0222 O   0  0  0  0  0  0  0  0  0  0  0  0
  -19.0061   16.1970  -20.1768 H   0  0  0  0  0  0  0  0  0  0  0  0
  -18.8871   13.4076  -20.6399 C   0  0  0  0  0  0  0  0  0  0  0  0
  -18.2351   13.6694  -21.8040 C   0  0  0  0  0  0  0  0  0  0  0  0
  -17.1657   12.9181  -22.1905 C   0  0  0  0  0  0  0  0  0  0  0  0
  -16.7088   11.8716  -21.4262 C   0  0  0  0  0  0  0  0  0  0  0  0
  -17.3683   11.5990  -20.2472 C   0  0  0  0  0  0  0  0  0  0  0  0
  -18.4566   12.3590  -19.8461 C   0  0  0  0  0  0  0  0  0  0  0  0
  -16.9110   10.4917  -19.3600 C   0  0  0  0  0  0  0  0  0  0  0  0
  -15.9566   10.9640  -18.4548 F   0  0  0  0  0  0  0  0  0  0  0  0
  -16.2905    9.5071  -20.1131 F   0  0  0  0  0  0  0  0  0  0  0  0
  -17.9113    9.9343  -18.6176 F   0  0  0  0  0  0  0  0  0  0  0  0
 30 31  1  0  0  0
 31 32  2  0  0  0
 32 33  1  0  0  0
 33 34  2  0  0  0
 34 37  1  0  0  0
 37 38  1  0  0  0
 38 39  2  0  0  0
 38 41  1  0  0  0
 41 42  2  0  0  0
 42 43  1  0  0  0
 43 44  2  0  0  0
 44 45  1  0  0  0
 45 46  2  0  0  0
 45 47  1  0  0  0
 47 48  1  0  0  0
 47 49  1  0  0  0
 47 50  1  0  0  0
 34 35  1  0  0  0
 35 36  2  0  0  0
 36 28  1  0  0  0
 28  1  1  0  0  0
  1  2  2  0  0  0
  2  3  1  0  0  0
  3  4  2  0  0  0
  4  5  1  0  0  0
  5  6  2  0  0  0
  6  7  1  0  0  0
  7  8  2  0  0  0
  8  9  1  0  0  0
  9 10  1  0  0  0
 10 11  2  0  0  0
 11 12  1  0  0  0
 12 16  1  0  0  0
 16 18  1  0  0  0
 18 19  1  0  0  0
 19 20  1  0  0  0
 20 21  1  0  0  0
 21 22  1  0  0  0
 22 23  1  0  0  0
 23 24  1  0  0  0
 24 25  1  0  0  0
 25 26  1  0  0  0
 12 13  2  0  0  0
 13 14  1  0  0  0
 14 15  2  0  0  0
 36 31  1  0  0  0
  9  1  1  0  0  0
 15 10  1  0  0  0
 46 41  1  0  0  0
  8  3  1  0  0  0
 26 21  1  0  0  0
 37 40  1  0  0  0
 28 29  1  0  0  0
 16 17  1  0  0  0
 26 27  1  0  0  0
M  END
> <minimizedAffinity>
-8.98709

> <CNNscore>
0.2286912948

> <CNNaffinity>
6.4762506485

> <CNN_VS>
1.4810621738

> <CNNaffinity_variance>
1.5488584042

$$$$
[H]c1nc(N([H])C([H])([H])C([H])([H])C([H])([H])C2([H])N([H])C([H])([H])C([H])([H])OC2([H])[H])c([H])c(-n2c(N([H])c3c([H])c(N([H])C(=O)c4c([H])c([H])c([H])c(C(F)(F)F)c4[H])c([H])c([H])c3C([H])([H])[H])nc3c([H])c([H])c([H])c([H])c32)n1


 50 55  0  0  0  0  0  0  0  0999 V2000
  -19.9460   13.0756  -18.9199 C   0  0  0  0  0  0  0  0  0  0  0  0
  -19.2950   13.3753  -20.0476 N   0  0  0  0  0  0  0  0  0  0  0  0
  -18.2751   12.5475  -20.2887 C   0  0  0  0  0  0  0  0  0  0  0  0
  -17.3506   12.4274  -21.3205 C   0  0  0  0  0  0  0  0  0  0  0  0
  -16.4063   11.4303  -21.3333 C   0  0  0  0  0  0  0  0  0  0  0  0
  -16.3949   10.5362  -20.2856 C   0  0  0  0  0  0  0  0  0  0  0  0
  -17.3115   10.6501  -19.2544 C   0  0  0  0  0  0  0  0  0  0  0  0
  -18.2841   11.6542  -19.2154 C   0  0  0  0  0  0  0  0  0  0  0  0
  -19.2899   11.9871  -18.4043 N   0  0  0  0  0  0  0  0  0  0  0  0
  -19.5880   11.4041  -17.1514 C   0  0  0  0  0  0  0  0  0  0  0  0
  -19.6102   10.0593  -16.8488 C   0  0  0  0  0  0  0  0  0  0  0  0
  -19.8333    9.5482  -15.6056 C   0  0  0  0  0  0  0  0  0  0  0  0
  -20.0572   10.4300  -14.5899 N   0  0  0  0  0  0  0  0  0  0  0  0
  -20.0449   11.7653  -14.8484 C   0  0  0  0  0  0  0  0  0  0  0  0
  -19.8207   12.2185  -16.0714 N   0  0  0  0  0  0  0  0  0  0  0  0
  -19.7397    8.1610  -15.3588 N   0  0  0  0  0  0  0  0  0  0  0  0
  -18.8278    7.8016  -14.9513 H   0  0  0  0  0  0  0  0  0  0  0  0
  -20.7979    7.2664  -15.6336 C   0  0  0  0  0  0  0  0  0  0  0  0
  -21.6457    6.8324  -14.4673 C   0  0  0  0  0  0  0  0  0  0  0  0
  -20.7255    6.2083  -13.4600 C   0  0  0  0  0  0  0  0  0  0  0  0
  -20.8128    6.8173  -12.0738 C   0  0  0  0  0  0  0  0  0  0  0  0
  -19.7206    6.3844  -11.1586 C   0  0  0  0  0  0  0  0  0  0  0  0
  -18.5136    7.0287  -11.3024 O   0  0  0  0  0  0  0  0  0  0  0  0
  -18.5243    8.2862  -11.8236 C   0  0  0  0  0  0  0  0  0  0  0  0
  -19.8489    8.9273  -11.4375 C   0  0  0  0  0  0  0  0  0  0  0  0
  -20.8353    8.2584  -12.2740 N   0  0  0  0  0  0  0  0  0  0  0  0
  -20.5182    8.5192  -13.2650 H   0  0  0  0  0  0  0  0  0  0  0  0
  -21.0480   13.7402  -18.3638 N   0  0  0  0  0  0  0  0  0  0  0  0
  -21.6251   13.1671  -17.6758 H   0  0  0  0  0  0  0  0  0  0  0  0
  -21.5295   15.3375  -16.1852 C   0  0  0  0  0  0  0  0  0  0  0  0
  -21.6309   15.8914  -17.5486 C   0  0  0  0  0  0  0  0  0  0  0  0
  -21.8948   17.2273  -17.7168 C   0  0  0  0  0  0  0  0  0  0  0  0
  -21.9855   17.7375  -19.0185 C   0  0  0  0  0  0  0  0  0  0  0  0
  -21.8159   16.9307  -20.1035 C   0  0  0  0  0  0  0  0  0  0  0  0
  -21.5507   15.5644  -19.9369 C   0  0  0  0  0  0  0  0  0  0  0  0
  -21.4555   15.0464  -18.6615 C   0  0  0  0  0  0  0  0  0  0  0  0
  -21.7311   17.4421  -21.4571 N   0  0  0  0  0  0  0  0  0  0  0  0
  -22.8872   17.6552  -22.1898 C   0  0  0  0  0  0  0  0  0  0  0  0
  -24.0414   17.4064  -21.6974 O   0  0  0  0  0  0  0  0  0  0  0  0
  -20.7726   17.6278  -21.8093 H   0  0  0  0  0  0  0  0  0  0  0  0
  -22.9349   18.1688  -23.5532 C   0  0  0  0  0  0  0  0  0  0  0  0
  -23.5990   17.4658  -24.5091 C   0  0  0  0  0  0  0  0  0  0  0  0
  -23.7255   17.9544  -25.7751 C   0  0  0  0  0  0  0  0  0  0  0  0
  -23.1882   19.1670  -26.1343 C   0  0  0  0  0  0  0  0  0  0  0  0
  -22.5104   19.8821  -25.1707 C   0  0  0  0  0  0  0  0  0  0  0  0
  -22.3778   19.3927  -23.8801 C   0  0  0  0  0  0  0  0  0  0  0  0
  -21.9222   21.2147  -25.4877 C   0  0  0  0  0  0  0  0  0  0  0  0
  -22.0320   21.4754  -26.8563 F   0  0  0  0  0  0  0  0  0  0  0  0
  -20.5681   21.2173  -25.1908 F   0  0  0  0  0  0  0  0  0  0  0  0
  -22.5316   22.2514  -24.8425 F   0  0  0  0  0  0  0  0  0  0  0  0
 30 31  1  0  0  0
 31 32  2  0  0  0
 32 33  1  0  0  0
 33 34  2  0  0  0
 34 37  1  0  0  0
 37 38  1  0  0  0
 38 39  2  0  0  0
 38 41  1  0  0  0
 41 42  2  0  0  0
 42 43  1  0  0  0
 43 44  2  0  0  0
 44 45  1  0  0  0
 45 46  2  0  0  0
 45 47  1  0  0  0
 47 48  1  0  0  0
 47 49  1  0  0  0
 47 50  1  0  0  0
 34 35  1  0  0  0
 35 36  2  0  0  0
 36 28  1  0  0  0
 28  1  1  0  0  0
  1  2  2  0  0  0
  2  3  1  0  0  0
  3  4  2  0  0  0
  4  5  1  0  0  0
  5  6  2  0  0  0
  6  7  1  0  0  0
  7  8  2  0  0  0
  8  9  1  0  0  0
  9 10  1  0  0  0
 10 11  2  0  0  0
 11 12  1  0  0  0
 12 16  1  0  0  0
 16 18  1  0  0  0
 18 19  1  0  0  0
 19 20  1  0  0  0
 20 21  1  0  0  0
 21 22  1  0  0  0
 22 23  1  0  0  0
 23 24  1  0  0  0
 24 25  1  0  0  0
 25 26  1  0  0  0
 12 13  2  0  0  0
 13 14  1  0  0  0
 14 15  2  0  0  0
 36 31  1  0  0  0
  9  1  1  0  0  0
 15 10  1  0  0  0
 46 41  1  0  0  0
  8  3  1  0  0  0
 26 21  1  0  0  0
 37 40  1  0  0  0
 28 29  1  0  0  0
 16 17  1  0  0  0
 26 27  1  0  0  0
M  END
> <minimizedAffinity>
-8.71545

> <CNNscore>
0.1942119598

> <CNNaffinity>
6.8209838867

> <CNN_VS>
1.3247166872

> <CNNaffinity_variance>
0.1153224111

$$$$
[H]c1nc(N([H])C([H])([H])C([H])([H])C([H])([H])C2([H])N([H])C([H])([H])C([H])([H])OC2([H])[H])c([H])c(-n2c(N([H])c3c([H])c(N([H])C(=O)c4c([H])c([H])c([H])c(C(F)(F)F)c4[H])c([H])c([H])c3C([H])([H])[H])nc3c([H])c([H])c([H])c([H])c32)n1


 50 55  0  0  0  0  0  0  0  0999 V2000
  -23.7758   17.9786  -22.6924 C   0  0  0  0  0  0  0  0  0  0  0  0
  -23.9722   17.3082  -23.8314 N   0  0  0  0  0  0  0  0  0  0  0  0
  -23.6677   18.0303  -24.9128 C   0  0  0  0  0  0  0  0  0  0  0  0
  -23.6668   17.7716  -26.2791 C   0  0  0  0  0  0  0  0  0  0  0  0
  -23.2572   18.7114  -27.1930 C   0  0  0  0  0  0  0  0  0  0  0  0
  -22.8393   19.9355  -26.7195 C   0  0  0  0  0  0  0  0  0  0  0  0
  -22.8385   20.2005  -25.3607 C   0  0  0  0  0  0  0  0  0  0  0  0
  -23.2492   19.2631  -24.4078 C   0  0  0  0  0  0  0  0  0  0  0  0
  -23.3229   19.2149  -23.0764 N   0  0  0  0  0  0  0  0  0  0  0  0
  -23.0884   20.2843  -22.1821 C   0  0  0  0  0  0  0  0  0  0  0  0
  -21.8960   20.6031  -21.5678 C   0  0  0  0  0  0  0  0  0  0  0  0
  -21.7021   21.6891  -20.7681 C   0  0  0  0  0  0  0  0  0  0  0  0
  -22.7655   22.5157  -20.5551 N   0  0  0  0  0  0  0  0  0  0  0  0
  -23.9597   22.2345  -21.1423 C   0  0  0  0  0  0  0  0  0  0  0  0
  -24.1028   21.1695  -21.9149 N   0  0  0  0  0  0  0  0  0  0  0  0
  -20.4231   22.0010  -20.2576 N   0  0  0  0  0  0  0  0  0  0  0  0
  -20.2344   23.0159  -20.0096 H   0  0  0  0  0  0  0  0  0  0  0  0
  -19.4181   21.0252  -20.0751 C   0  0  0  0  0  0  0  0  0  0  0  0
  -18.5553   20.7023  -21.2662 C   0  0  0  0  0  0  0  0  0  0  0  0
  -18.1704   19.2566  -21.1542 C   0  0  0  0  0  0  0  0  0  0  0  0
  -18.9521   18.3304  -22.0658 C   0  0  0  0  0  0  0  0  0  0  0  0
  -19.0476   18.8125  -23.4717 C   0  0  0  0  0  0  0  0  0  0  0  0
  -17.9524   18.5806  -24.2713 O   0  0  0  0  0  0  0  0  0  0  0  0
  -17.1433   17.5338  -23.9503 C   0  0  0  0  0  0  0  0  0  0  0  0
  -18.0094   16.4791  -23.2781 C   0  0  0  0  0  0  0  0  0  0  0  0
  -18.3033   17.0320  -21.9635 N   0  0  0  0  0  0  0  0  0  0  0  0
  -17.3297   17.1166  -21.5215 H   0  0  0  0  0  0  0  0  0  0  0  0
  -24.0042   17.5306  -21.3838 N   0  0  0  0  0  0  0  0  0  0  0  0
  -25.0257   17.3629  -21.1322 H   0  0  0  0  0  0  0  0  0  0  0  0
  -24.6933   18.3587  -18.8601 C   0  0  0  0  0  0  0  0  0  0  0  0
  -23.4036   17.6815  -19.0928 C   0  0  0  0  0  0  0  0  0  0  0  0
  -22.5853   17.4030  -18.0273 C   0  0  0  0  0  0  0  0  0  0  0  0
  -21.3650   16.7572  -18.2657 C   0  0  0  0  0  0  0  0  0  0  0  0
  -20.9891   16.4077  -19.5281 C   0  0  0  0  0  0  0  0  0  0  0  0
  -21.8197   16.6942  -20.6204 C   0  0  0  0  0  0  0  0  0  0  0  0
  -23.0261   17.3274  -20.4025 C   0  0  0  0  0  0  0  0  0  0  0  0
  -19.8235   15.5912  -19.8029 N   0  0  0  0  0  0  0  0  0  0  0  0
  -19.9653   14.2276  -20.0016 C   0  0  0  0  0  0  0  0  0  0  0  0
  -21.1120   13.6634  -19.9449 O   0  0  0  0  0  0  0  0  0  0  0  0
  -18.9177   16.0966  -19.8387 H   0  0  0  0  0  0  0  0  0  0  0  0
  -18.8757   13.3029  -20.2895 C   0  0  0  0  0  0  0  0  0  0  0  0
  -18.6682   12.2388  -19.4687 C   0  0  0  0  0  0  0  0  0  0  0  0
  -17.7063   11.3155  -19.7510 C   0  0  0  0  0  0  0  0  0  0  0  0
  -16.9115   11.4239  -20.8665 C   0  0  0  0  0  0  0  0  0  0  0  0
  -17.1144   12.5026  -21.6999 C   0  0  0  0  0  0  0  0  0  0  0  0
  -18.0915   13.4461  -21.4206 C   0  0  0  0  0  0  0  0  0  0  0  0
  -16.3018   12.6685  -22.9386 C   0  0  0  0  0  0  0  0  0  0  0  0
  -15.2543   11.7435  -22.9537 F   0  0  0  0  0  0  0  0  0  0  0  0
  -15.7203   13.9268  -22.9583 F   0  0  0  0  0  0  0  0  0  0  0  0
  -17.0095   12.4762  -24.0894 F   0  0  0  0  0  0  0  0  0  0  0  0
 30 31  1  0  0  0
 31 32  2  0  0  0
 32 33  1  0  0  0
 33 34  2  0  0  0
 34 37  1  0  0  0
 37 38  1  0  0  0
 38 39  2  0  0  0
 38 41  1  0  0  0
 41 42  2  0  0  0
 42 43  1  0  0  0
 43 44  2  0  0  0
 44 45  1  0  0  0
 45 46  2  0  0  0
 45 47  1  0  0  0
 47 48  1  0  0  0
 47 49  1  0  0  0
 47 50  1  0  0  0
 34 35  1  0  0  0
 35 36  2  0  0  0
 36 28  1  0  0  0
 28  1  1  0  0  0
  1  2  2  0  0  0
  2  3  1  0  0  0
  3  4  2  0  0  0
  4  5  1  0  0  0
  5  6  2  0  0  0
  6  7  1  0  0  0
  7  8  2  0  0  0
  8  9  1  0  0  0
  9 10  1  0  0  0
 10 11  2  0  0  0
 11 12  1  0  0  0
 12 16  1  0  0  0
 16 18  1  0  0  0
 18 19  1  0  0  0
 19 20  1  0  0  0
 20 21  1  0  0  0
 21 22  1  0  0  0
 22 23  1  0  0  0
 23 24  1  0  0  0
 24 25  1  0  0  0
 25 26  1  0  0  0
 12 13  2  0  0  0
 13 14  1  0  0  0
 14 15  2  0  0  0
 36 31  1  0  0  0
  9  1  1  0  0  0
 15 10  1  0  0  0
 46 41  1  0  0  0
  8  3  1  0  0  0
 26 21  1  0  0  0
 37 40  1  0  0  0
 28 29  1  0  0  0
 16 17  1  0  0  0
 26 27  1  0  0  0
M  END
> <minimizedAffinity>
-9.09239

> <CNNscore>
0.0994336978

> <CNNaffinity>
6.4440474510

> <CNN_VS>
0.6407554746

> <CNNaffinity_variance>
1.6684366465

$$$$
[H]c1nc(N([H])C([H])([H])C([H])([H])C([H])([H])C2([H])N([H])C([H])([H])C([H])([H])OC2([H])[H])c([H])c(-n2c(N([H])c3c([H])c(N([H])C(=O)c4c([H])c([H])c([H])c(C(F)(F)F)c4[H])c([H])c([H])c3C([H])([H])[H])nc3c([H])c([H])c([H])c([H])c32)n1


 50 55  0  0  0  0  0  0  0  0999 V2000
  -17.9237   13.3001  -22.3071 C   0  0  0  0  0  0  0  0  0  0  0  0
  -17.1166   12.2450  -22.4511 N   0  0  0  0  0  0  0  0  0  0  0  0
  -16.8776   11.6185  -21.2962 C   0  0  0  0  0  0  0  0  0  0  0  0
  -16.1546   10.4841  -20.9433 C   0  0  0  0  0  0  0  0  0  0  0  0
  -16.1088   10.0293  -19.6483 C   0  0  0  0  0  0  0  0  0  0  0  0
  -16.8066   10.7317  -18.6906 C   0  0  0  0  0  0  0  0  0  0  0  0
  -17.5276   11.8624  -19.0343 C   0  0  0  0  0  0  0  0  0  0  0  0
  -17.5928   12.3478  -20.3441 C   0  0  0  0  0  0  0  0  0  0  0  0
  -18.2111   13.3528  -20.9671 N   0  0  0  0  0  0  0  0  0  0  0  0
  -18.9566   14.3881  -20.3581 C   0  0  0  0  0  0  0  0  0  0  0  0
  -18.4563   15.4814  -19.6835 C   0  0  0  0  0  0  0  0  0  0  0  0
  -19.2153   16.4923  -19.1750 C   0  0  0  0  0  0  0  0  0  0  0  0
  -20.5667   16.4129  -19.3392 N   0  0  0  0  0  0  0  0  0  0  0  0
  -21.0992   15.3487  -19.9980 C   0  0  0  0  0  0  0  0  0  0  0  0
  -20.3238   14.3901  -20.4789 N   0  0  0  0  0  0  0  0  0  0  0  0
  -18.6185   17.6280  -18.5853 N   0  0  0  0  0  0  0  0  0  0  0  0
  -17.9747   17.4626  -17.7576 H   0  0  0  0  0  0  0  0  0  0  0  0
  -18.8509   18.9398  -19.0550 C   0  0  0  0  0  0  0  0  0  0  0  0
  -19.7067   19.8317  -18.1950 C   0  0  0  0  0  0  0  0  0  0  0  0
  -19.5312   19.3777  -16.7759 C   0  0  0  0  0  0  0  0  0  0  0  0
  -20.8173   19.3264  -15.9737 C   0  0  0  0  0  0  0  0  0  0  0  0
  -21.9146   18.5776  -16.6469 C   0  0  0  0  0  0  0  0  0  0  0  0
  -21.8666   17.2063  -16.5484 O   0  0  0  0  0  0  0  0  0  0  0  0
  -21.2139   16.6698  -15.4810 C   0  0  0  0  0  0  0  0  0  0  0  0
  -21.3433   17.6534  -14.3275 C   0  0  0  0  0  0  0  0  0  0  0  0
  -20.4589   18.7534  -14.6851 N   0  0  0  0  0  0  0  0  0  0  0  0
  -19.4977   18.2788  -14.7234 H   0  0  0  0  0  0  0  0  0  0  0  0
  -18.3665   14.1827  -23.3023 N   0  0  0  0  0  0  0  0  0  0  0  0
  -19.1886   13.8363  -23.8844 H   0  0  0  0  0  0  0  0  0  0  0  0
  -16.7513   14.2315  -25.5201 C   0  0  0  0  0  0  0  0  0  0  0  0
  -17.0371   15.4766  -24.7823 C   0  0  0  0  0  0  0  0  0  0  0  0
  -16.5501   16.6688  -25.2556 C   0  0  0  0  0  0  0  0  0  0  0  0
  -16.8328   17.8422  -24.5441 C   0  0  0  0  0  0  0  0  0  0  0  0
  -17.5767   17.8106  -23.4028 C   0  0  0  0  0  0  0  0  0  0  0  0
  -18.0726   16.5944  -22.9128 C   0  0  0  0  0  0  0  0  0  0  0  0
  -17.8055   15.4299  -23.6031 C   0  0  0  0  0  0  0  0  0  0  0  0
  -18.0360   19.0100  -22.7311 N   0  0  0  0  0  0  0  0  0  0  0  0
  -19.2980   19.5137  -23.0005 C   0  0  0  0  0  0  0  0  0  0  0  0
  -20.0765   18.9420  -23.8393 O   0  0  0  0  0  0  0  0  0  0  0  0
  -17.3674   19.4349  -22.0604 H   0  0  0  0  0  0  0  0  0  0  0  0
  -19.8754   20.7044  -22.3891 C   0  0  0  0  0  0  0  0  0  0  0  0
  -19.0676   21.5714  -21.7222 C   0  0  0  0  0  0  0  0  0  0  0  0
  -19.5630   22.7303  -21.2035 C   0  0  0  0  0  0  0  0  0  0  0  0
  -20.8895   23.0651  -21.3303 C   0  0  0  0  0  0  0  0  0  0  0  0
  -21.7139   22.1882  -22.0016 C   0  0  0  0  0  0  0  0  0  0  0  0
  -21.2179   21.0074  -22.5331 C   0  0  0  0  0  0  0  0  0  0  0  0
  -23.1588   22.5007  -22.1940 C   0  0  0  0  0  0  0  0  0  0  0  0
  -23.3133   23.4624  -23.1962 F   0  0  0  0  0  0  0  0  0  0  0  0
  -23.6833   23.0488  -21.0338 F   0  0  0  0  0  0  0  0  0  0  0  0
  -23.9085   21.4232  -22.5676 F   0  0  0  0  0  0  0  0  0  0  0  0
 30 31  1  0  0  0
 31 32  2  0  0  0
 32 33  1  0  0  0
 33 34  2  0  0  0
 34 37  1  0  0  0
 37 38  1  0  0  0
 38 39  2  0  0  0
 38 41  1  0  0  0
 41 42  2  0  0  0
 42 43  1  0  0  0
 43 44  2  0  0  0
 44 45  1  0  0  0
 45 46  2  0  0  0
 45 47  1  0  0  0
 47 48  1  0  0  0
 47 49  1  0  0  0
 47 50  1  0  0  0
 34 35  1  0  0  0
 35 36  2  0  0  0
 36 28  1  0  0  0
 28  1  1  0  0  0
  1  2  2  0  0  0
  2  3  1  0  0  0
  3  4  2  0  0  0
  4  5  1  0  0  0
  5  6  2  0  0  0
  6  7  1  0  0  0
  7  8  2  0  0  0
  8  9  1  0  0  0
  9 10  1  0  0  0
 10 11  2  0  0  0
 11 12  1  0  0  0
 12 16  1  0  0  0
 16 18  1  0  0  0
 18 19  1  0  0  0
 19 20  1  0  0  0
 20 21  1  0  0  0
 21 22  1  0  0  0
 22 23  1  0  0  0
 23 24  1  0  0  0
 24 25  1  0  0  0
 25 26  1  0  0  0
 12 13  2  0  0  0
 13 14  1  0  0  0
 14 15  2  0  0  0
 36 31  1  0  0  0
  9  1  1  0  0  0
 15 10  1  0  0  0
 46 41  1  0  0  0
  8  3  1  0  0  0
 26 21  1  0  0  0
 37 40  1  0  0  0
 28 29  1  0  0  0
 16 17  1  0  0  0
 26 27  1  0  0  0
M  END
> <minimizedAffinity>
-7.85146

> <CNNscore>
0.0720647350

> <CNNaffinity>
6.9497551918

> <CNN_VS>
0.5008322597

> <CNNaffinity_variance>
0.4861253202

$$$$
[H]c1nc(N([H])C([H])([H])C([H])([H])C([H])([H])C2([H])N([H])C([H])([H])C([H])([H])OC2([H])[H])c([H])c(-n2c(N([H])c3c([H])c(N([H])C(=O)c4c([H])c([H])c([H])c(C(F)(F)F)c4[H])c([H])c([H])c3C([H])([H])[H])nc3c([H])c([H])c([H])c([H])c32)n1


 50 55  0  0  0  0  0  0  0  0999 V2000
  -17.7067   13.1493  -22.3282 C   0  0  0  0  0  0  0  0  0  0  0  0
  -17.1289   11.9447  -22.3472 N   0  0  0  0  0  0  0  0  0  0  0  0
  -16.9903   11.4210  -21.1266 C   0  0  0  0  0  0  0  0  0  0  0  0
  -16.4984   10.2136  -20.6428 C   0  0  0  0  0  0  0  0  0  0  0  0
  -16.5115    9.9118  -19.3031 C   0  0  0  0  0  0  0  0  0  0  0  0
  -17.0320   10.8456  -18.4344 C   0  0  0  0  0  0  0  0  0  0  0  0
  -17.5226   12.0501  -18.9086 C   0  0  0  0  0  0  0  0  0  0  0  0
  -17.5227   12.3839  -20.2667 C   0  0  0  0  0  0  0  0  0  0  0  0
  -17.9445   13.4132  -21.0035 N   0  0  0  0  0  0  0  0  0  0  0  0
  -18.4543   14.6400  -20.5203 C   0  0  0  0  0  0  0  0  0  0  0  0
  -19.7809   14.9991  -20.4104 C   0  0  0  0  0  0  0  0  0  0  0  0
  -20.2251   16.1683  -19.8700 C   0  0  0  0  0  0  0  0  0  0  0  0
  -19.2902   17.0488  -19.4115 N   0  0  0  0  0  0  0  0  0  0  0  0
  -17.9707   16.7319  -19.5035 C   0  0  0  0  0  0  0  0  0  0  0  0
  -17.5835   15.5825  -20.0333 N   0  0  0  0  0  0  0  0  0  0  0  0
  -21.6048   16.4174  -19.7019 N   0  0  0  0  0  0  0  0  0  0  0  0
  -22.1684   16.6332  -20.5753 H   0  0  0  0  0  0  0  0  0  0  0  0
  -22.2346   16.3883  -18.4378 C   0  0  0  0  0  0  0  0  0  0  0  0
  -22.0489   17.5934  -17.5542 C   0  0  0  0  0  0  0  0  0  0  0  0
  -21.3757   17.1217  -16.2992 C   0  0  0  0  0  0  0  0  0  0  0  0
  -20.1084   17.8775  -15.9491 C   0  0  0  0  0  0  0  0  0  0  0  0
  -20.2402   19.3563  -16.0661 C   0  0  0  0  0  0  0  0  0  0  0  0
  -20.8459   19.9996  -15.0117 O   0  0  0  0  0  0  0  0  0  0  0  0
  -20.7924   19.4025  -13.7895 C   0  0  0  0  0  0  0  0  0  0  0  0
  -19.5045   18.5946  -13.7340 C   0  0  0  0  0  0  0  0  0  0  0  0
  -19.7520   17.4533  -14.6036 N   0  0  0  0  0  0  0  0  0  0  0  0
  -20.5738   16.9629  -14.1191 H   0  0  0  0  0  0  0  0  0  0  0  0
  -17.9902   13.9814  -23.4202 N   0  0  0  0  0  0  0  0  0  0  0  0
  -18.6247   13.5567  -24.1631 H   0  0  0  0  0  0  0  0  0  0  0  0
  -15.4263   14.1037  -24.3905 C   0  0  0  0  0  0  0  0  0  0  0  0
  -16.2032   15.3413  -24.1881 C   0  0  0  0  0  0  0  0  0  0  0  0
  -15.6617   16.5465  -24.5578 C   0  0  0  0  0  0  0  0  0  0  0  0
  -16.4140   17.7120  -24.3609 C   0  0  0  0  0  0  0  0  0  0  0  0
  -17.6609   17.6600  -23.8138 C   0  0  0  0  0  0  0  0  0  0  0  0
  -18.2166   16.4316  -23.4302 C   0  0  0  0  0  0  0  0  0  0  0  0
  -17.4899   15.2740  -23.6198 C   0  0  0  0  0  0  0  0  0  0  0  0
  -18.5389   18.8115  -23.7490 N   0  0  0  0  0  0  0  0  0  0  0  0
  -18.5637   19.5994  -22.6099 C   0  0  0  0  0  0  0  0  0  0  0  0
  -17.8249   19.3317  -21.6005 O   0  0  0  0  0  0  0  0  0  0  0  0
  -19.1169   18.9854  -24.5934 H   0  0  0  0  0  0  0  0  0  0  0  0
  -19.3957   20.7820  -22.4246 C   0  0  0  0  0  0  0  0  0  0  0  0
  -19.1133   21.6455  -21.4129 C   0  0  0  0  0  0  0  0  0  0  0  0
  -19.8250   22.7974  -21.2579 C   0  0  0  0  0  0  0  0  0  0  0  0
  -20.8509   23.1284  -22.1099 C   0  0  0  0  0  0  0  0  0  0  0  0
  -21.1444   22.2550  -23.1347 C   0  0  0  0  0  0  0  0  0  0  0  0
  -20.4247   21.0813  -23.3001 C   0  0  0  0  0  0  0  0  0  0  0  0
  -22.2306   22.5639  -24.1078 C   0  0  0  0  0  0  0  0  0  0  0  0
  -23.3713   23.0043  -23.4311 F   0  0  0  0  0  0  0  0  0  0  0  0
  -22.5943   21.4144  -24.7921 F   0  0  0  0  0  0  0  0  0  0  0  0
  -21.9049   23.5420  -25.0021 F   0  0  0  0  0  0  0  0  0  0  0  0
 30 31  1  0  0  0
 31 32  2  0  0  0
 32 33  1  0  0  0
 33 34  2  0  0  0
 34 37  1  0  0  0
 37 38  1  0  0  0
 38 39  2  0  0  0
 38 41  1  0  0  0
 41 42  2  0  0  0
 42 43  1  0  0  0
 43 44  2  0  0  0
 44 45  1  0  0  0
 45 46  2  0  0  0
 45 47  1  0  0  0
 47 48  1  0  0  0
 47 49  1  0  0  0
 47 50  1  0  0  0
 34 35  1  0  0  0
 35 36  2  0  0  0
 36 28  1  0  0  0
 28  1  1  0  0  0
  1  2  2  0  0  0
  2  3  1  0  0  0
  3  4  2  0  0  0
  4  5  1  0  0  0
  5  6  2  0  0  0
  6  7  1  0  0  0
  7  8  2  0  0  0
  8  9  1  0  0  0
  9 10  1  0  0  0
 10 11  2  0  0  0
 11 12  1  0  0  0
 12 16  1  0  0  0
 16 18  1  0  0  0
 18 19  1  0  0  0
 19 20  1  0  0  0
 20 21  1  0  0  0
 21 22  1  0  0  0
 22 23  1  0  0  0
 23 24  1  0  0  0
 24 25  1  0  0  0
 25 26  1  0  0  0
 12 13  2  0  0  0
 13 14  1  0  0  0
 14 15  2  0  0  0
 36 31  1  0  0  0
  9  1  1  0  0  0
 15 10  1  0  0  0
 46 41  1  0  0  0
  8  3  1  0  0  0
 26 21  1  0  0  0
 37 40  1  0  0  0
 28 29  1  0  0  0
 16 17  1  0  0  0
 26 27  1  0  0  0
M  END
> <minimizedAffinity>
-8.47434

> <CNNscore>
0.0698496103

> <CNNaffinity>
6.9510254860

> <CNN_VS>
0.4855264127

> <CNNaffinity_variance>
0.3624349833

$$$$
[H]c1nc(N([H])C([H])([H])C([H])([H])C([H])([H])C2([H])N([H])C([H])([H])C([H])([H])OC2([H])[H])c([H])c(-n2c(N([H])c3c([H])c(N([H])C(=O)c4c([H])c([H])c([H])c(C(F)(F)F)c4[H])c([H])c([H])c3C([H])([H])[H])nc3c([H])c([H])c([H])c([H])c32)n1


 50 55  0  0  0  0  0  0  0  0999 V2000
  -20.1143   13.0714  -18.2749 C   0  0  0  0  0  0  0  0  0  0  0  0
  -20.8621   14.1734  -18.1661 N   0  0  0  0  0  0  0  0  0  0  0  0
  -21.4918   14.2541  -16.9912 C   0  0  0  0  0  0  0  0  0  0  0  0
  -22.3280   15.1983  -16.4054 C   0  0  0  0  0  0  0  0  0  0  0  0
  -22.8165   15.0407  -15.1315 C   0  0  0  0  0  0  0  0  0  0  0  0
  -22.4538   13.9094  -14.4346 C   0  0  0  0  0  0  0  0  0  0  0  0
  -21.6226   12.9646  -15.0117 C   0  0  0  0  0  0  0  0  0  0  0  0
  -21.1099   13.0989  -16.3058 C   0  0  0  0  0  0  0  0  0  0  0  0
  -20.2869   12.4013  -17.0908 N   0  0  0  0  0  0  0  0  0  0  0  0
  -19.7524   11.1206  -16.8214 C   0  0  0  0  0  0  0  0  0  0  0  0
  -20.0415   10.3136  -15.7416 C   0  0  0  0  0  0  0  0  0  0  0  0
  -19.5541    9.0539  -15.5629 C   0  0  0  0  0  0  0  0  0  0  0  0
  -18.7151    8.5590  -16.5172 N   0  0  0  0  0  0  0  0  0  0  0  0
  -18.4042    9.3251  -17.5972 C   0  0  0  0  0  0  0  0  0  0  0  0
  -18.9033   10.5434  -17.7323 N   0  0  0  0  0  0  0  0  0  0  0  0
  -19.9783    8.2536  -14.4797 N   0  0  0  0  0  0  0  0  0  0  0  0
  -20.9225    7.7767  -14.5699 H   0  0  0  0  0  0  0  0  0  0  0  0
  -19.2009    8.0779  -13.3134 C   0  0  0  0  0  0  0  0  0  0  0  0
  -19.0997    9.2524  -12.3766 C   0  0  0  0  0  0  0  0  0  0  0  0
  -19.6195    8.8007  -11.0437 C   0  0  0  0  0  0  0  0  0  0  0  0
  -18.9928    9.5078   -9.8575 C   0  0  0  0  0  0  0  0  0  0  0  0
  -18.8714    8.6520   -8.6446 C   0  0  0  0  0  0  0  0  0  0  0  0
  -17.8053    7.7831   -8.6160 O   0  0  0  0  0  0  0  0  0  0  0  0
  -16.7055    8.1043   -9.3512 C   0  0  0  0  0  0  0  0  0  0  0  0
  -16.6307    9.6224   -9.4179 C   0  0  0  0  0  0  0  0  0  0  0  0
  -17.7058   10.0011  -10.3239 N   0  0  0  0  0  0  0  0  0  0  0  0
  -17.4166    9.5280  -11.2421 H   0  0  0  0  0  0  0  0  0  0  0  0
  -19.3371   12.6676  -19.3696 N   0  0  0  0  0  0  0  0  0  0  0  0
  -19.2689   11.6145  -19.5152 H   0  0  0  0  0  0  0  0  0  0  0  0
  -17.3583   11.4587  -20.8368 C   0  0  0  0  0  0  0  0  0  0  0  0
  -17.6719   12.8848  -21.0465 C   0  0  0  0  0  0  0  0  0  0  0  0
  -17.0184   13.5822  -22.0309 C   0  0  0  0  0  0  0  0  0  0  0  0
  -17.3300   14.9353  -22.2183 C   0  0  0  0  0  0  0  0  0  0  0  0
  -18.2632   15.5559  -21.4431 C   0  0  0  0  0  0  0  0  0  0  0  0
  -18.9302   14.8489  -20.4331 C   0  0  0  0  0  0  0  0  0  0  0  0
  -18.6370   13.5149  -20.2372 C   0  0  0  0  0  0  0  0  0  0  0  0
  -18.7391   16.8987  -21.7102 N   0  0  0  0  0  0  0  0  0  0  0  0
  -19.3053   17.2006  -22.9379 C   0  0  0  0  0  0  0  0  0  0  0  0
  -19.4175   16.3147  -23.8539 O   0  0  0  0  0  0  0  0  0  0  0  0
  -18.6254   17.5795  -20.9350 H   0  0  0  0  0  0  0  0  0  0  0  0
  -19.8242   18.5067  -23.3252 C   0  0  0  0  0  0  0  0  0  0  0  0
  -19.0138   19.5961  -23.2512 C   0  0  0  0  0  0  0  0  0  0  0  0
  -19.4444   20.8176  -23.6756 C   0  0  0  0  0  0  0  0  0  0  0  0
  -20.7064   20.9963  -24.1886 C   0  0  0  0  0  0  0  0  0  0  0  0
  -21.5336   19.8966  -24.2621 C   0  0  0  0  0  0  0  0  0  0  0  0
  -21.1033   18.6500  -23.8334 C   0  0  0  0  0  0  0  0  0  0  0  0
  -22.9074   20.0164  -24.8286 C   0  0  0  0  0  0  0  0  0  0  0  0
  -23.6515   18.8714  -24.5311 F   0  0  0  0  0  0  0  0  0  0  0  0
  -22.8439   20.1003  -26.2109 F   0  0  0  0  0  0  0  0  0  0  0  0
  -23.6120   21.0781  -24.3401 F   0  0  0  0  0  0  0  0  0  0  0  0
 30 31  1  0  0  0
 31 32  2  0  0  0
 32 33  1  0  0  0
 33 34  2  0  0  0
 34 37  1  0  0  0
 37 38  1  0  0  0
 38 39  2  0  0  0
 38 41  1  0  0  0
 41 42  2  0  0  0
 42 43  1  0  0  0
 43 44  2  0  0  0
 44 45  1  0  0  0
 45 46  2  0  0  0
 45 47  1  0  0  0
 47 48  1  0  0  0
 47 49  1  0  0  0
 47 50  1  0  0  0
 34 35  1  0  0  0
 35 36  2  0  0  0
 36 28  1  0  0  0
 28  1  1  0  0  0
  1  2  2  0  0  0
  2  3  1  0  0  0
  3  4  2  0  0  0
  4  5  1  0  0  0
  5  6  2  0  0  0
  6  7  1  0  0  0
  7  8  2  0  0  0
  8  9  1  0  0  0
  9 10  1  0  0  0
 10 11  2  0  0  0
 11 12  1  0  0  0
 12 16  1  0  0  0
 16 18  1  0  0  0
 18 19  1  0  0  0
 19 20  1  0  0  0
 20 21  1  0  0  0
 21 22  1  0  0  0
 22 23  1  0  0  0
 23 24  1  0  0  0
 24 25  1  0  0  0
 25 26  1  0  0  0
 12 13  2  0  0  0
 13 14  1  0  0  0
 14 15  2  0  0  0
 36 31  1  0  0  0
  9  1  1  0  0  0
 15 10  1  0  0  0
 46 41  1  0  0  0
  8  3  1  0  0  0
 26 21  1  0  0  0
 37 40  1  0  0  0
 28 29  1  0  0  0
 16 17  1  0  0  0
 26 27  1  0  0  0
M  END
> <minimizedAffinity>
-9.00517

> <CNNscore>
0.0664652064

> <CNNaffinity>
6.5961027145

> <CNN_VS>
0.4384113252

> <CNNaffinity_variance>
0.1410164535

$$$$
[H]c1nc(N([H])C([H])([H])C([H])([H])C([H])([H])C2([H])N([H])C([H])([H])C([H])([H])OC2([H])[H])c([H])c(-n2c(N([H])c3c([H])c(N([H])C(=O)c4c([H])c([H])c([H])c(C(F)(F)F)c4[H])c([H])c([H])c3C([H])([H])[H])nc3c([H])c([H])c([H])c([H])c32)n1


 50 55  0  0  0  0  0  0  0  0999 V2000
  -17.7976   13.1413  -22.4705 C   0  0  0  0  0  0  0  0  0  0  0  0
  -17.1885   11.9527  -22.5121 N   0  0  0  0  0  0  0  0  0  0  0  0
  -16.9465   11.4556  -21.2965 C   0  0  0  0  0  0  0  0  0  0  0  0
  -16.3863   10.2712  -20.8303 C   0  0  0  0  0  0  0  0  0  0  0  0
  -16.2932    9.9940  -19.4884 C   0  0  0  0  0  0  0  0  0  0  0  0
  -16.7755   10.9291  -18.5994 C   0  0  0  0  0  0  0  0  0  0  0  0
  -17.3335   12.1108  -19.0561 C   0  0  0  0  0  0  0  0  0  0  0  0
  -17.4421   12.4193  -20.4158 C   0  0  0  0  0  0  0  0  0  0  0  0
  -17.9457   13.4229  -21.1365 N   0  0  0  0  0  0  0  0  0  0  0  0
  -18.4538   14.6441  -20.6374 C   0  0  0  0  0  0  0  0  0  0  0  0
  -19.7793   14.9749  -20.4520 C   0  0  0  0  0  0  0  0  0  0  0  0
  -20.2172   16.1407  -19.8992 C   0  0  0  0  0  0  0  0  0  0  0  0
  -19.2771   17.0475  -19.5077 N   0  0  0  0  0  0  0  0  0  0  0  0
  -17.9585   16.7589  -19.6753 C   0  0  0  0  0  0  0  0  0  0  0  0
  -17.5773   15.6119  -20.2143 N   0  0  0  0  0  0  0  0  0  0  0  0
  -21.5898   16.3610  -19.6513 N   0  0  0  0  0  0  0  0  0  0  0  0
  -22.1941   16.6352  -20.4799 H   0  0  0  0  0  0  0  0  0  0  0  0
  -22.1612   16.2304  -18.3660 C   0  0  0  0  0  0  0  0  0  0  0  0
  -22.0034   17.3966  -17.4266 C   0  0  0  0  0  0  0  0  0  0  0  0
  -21.3763   16.8698  -16.1696 C   0  0  0  0  0  0  0  0  0  0  0  0
  -19.9956   17.4265  -15.8805 C   0  0  0  0  0  0  0  0  0  0  0  0
  -19.7638   18.7823  -16.4515 C   0  0  0  0  0  0  0  0  0  0  0  0
  -20.2764   19.8403  -15.7371 O   0  0  0  0  0  0  0  0  0  0  0  0
  -20.4572   19.6731  -14.3982 C   0  0  0  0  0  0  0  0  0  0  0  0
  -19.4054   18.6847  -13.9172 C   0  0  0  0  0  0  0  0  0  0  0  0
  -19.8511   17.3979  -14.4328 N   0  0  0  0  0  0  0  0  0  0  0  0
  -20.7995   17.2670  -13.9491 H   0  0  0  0  0  0  0  0  0  0  0  0
  -18.1834   13.9450  -23.5524 N   0  0  0  0  0  0  0  0  0  0  0  0
  -19.0164   13.5863  -24.1112 H   0  0  0  0  0  0  0  0  0  0  0  0
  -16.7072   13.7429  -25.8566 C   0  0  0  0  0  0  0  0  0  0  0  0
  -16.8587   15.0471  -25.1841 C   0  0  0  0  0  0  0  0  0  0  0  0
  -16.3186   16.1699  -25.7587 C   0  0  0  0  0  0  0  0  0  0  0  0
  -16.4738   17.4009  -25.1080 C   0  0  0  0  0  0  0  0  0  0  0  0
  -17.1471   17.4920  -23.9268 C   0  0  0  0  0  0  0  0  0  0  0  0
  -17.6967   16.3471  -23.3335 C   0  0  0  0  0  0  0  0  0  0  0  0
  -17.5552   15.1272  -23.9628 C   0  0  0  0  0  0  0  0  0  0  0  0
  -17.4787   18.7598  -23.3074 N   0  0  0  0  0  0  0  0  0  0  0  0
  -18.7966   19.1839  -23.2620 C   0  0  0  0  0  0  0  0  0  0  0  0
  -19.7394   18.4781  -23.7616 O   0  0  0  0  0  0  0  0  0  0  0  0
  -16.6785   19.2936  -22.9173 H   0  0  0  0  0  0  0  0  0  0  0  0
  -19.2576   20.4312  -22.6647 C   0  0  0  0  0  0  0  0  0  0  0  0
  -19.5249   21.4968  -23.4660 C   0  0  0  0  0  0  0  0  0  0  0  0
  -20.0276   22.6525  -22.9474 C   0  0  0  0  0  0  0  0  0  0  0  0
  -20.2800   22.7872  -21.6035 C   0  0  0  0  0  0  0  0  0  0  0  0
  -20.0071   21.7118  -20.7859 C   0  0  0  0  0  0  0  0  0  0  0  0
  -19.4963   20.5320  -21.3054 C   0  0  0  0  0  0  0  0  0  0  0  0
  -20.2782   21.7833  -19.3217 C   0  0  0  0  0  0  0  0  0  0  0  0
  -21.1842   20.7857  -18.9514 F   0  0  0  0  0  0  0  0  0  0  0  0
  -20.8731   22.9957  -19.0089 F   0  0  0  0  0  0  0  0  0  0  0  0
  -19.1673   21.6086  -18.5486 F   0  0  0  0  0  0  0  0  0  0  0  0
 30 31  1  0  0  0
 31 32  2  0  0  0
 32 33  1  0  0  0
 33 34  2  0  0  0
 34 37  1  0  0  0
 37 38  1  0  0  0
 38 39  2  0  0  0
 38 41  1  0  0  0
 41 42  2  0  0  0
 42 43  1  0  0  0
 43 44  2  0  0  0
 44 45  1  0  0  0
 45 46  2  0  0  0
 45 47  1  0  0  0
 47 48  1  0  0  0
 47 49  1  0  0  0
 47 50  1  0  0  0
 34 35  1  0  0  0
 35 36  2  0  0  0
 36 28  1  0  0  0
 28  1  1  0  0  0
  1  2  2  0  0  0
  2  3  1  0  0  0
  3  4  2  0  0  0
  4  5  1  0  0  0
  5  6  2  0  0  0
  6  7  1  0  0  0
  7  8  2  0  0  0
  8  9  1  0  0  0
  9 10  1  0  0  0
 10 11  2  0  0  0
 11 12  1  0  0  0
 12 16  1  0  0  0
 16 18  1  0  0  0
 18 19  1  0  0  0
 19 20  1  0  0  0
 20 21  1  0  0  0
 21 22  1  0  0  0
 22 23  1  0  0  0
 23 24  1  0  0  0
 24 25  1  0  0  0
 25 26  1  0  0  0
 12 13  2  0  0  0
 13 14  1  0  0  0
 14 15  2  0  0  0
 36 31  1  0  0  0
  9  1  1  0  0  0
 15 10  1  0  0  0
 46 41  1  0  0  0
  8  3  1  0  0  0
 26 21  1  0  0  0
 37 40  1  0  0  0
 28 29  1  0  0  0
 16 17  1  0  0  0
 26 27  1  0  0  0
M  END
> <minimizedAffinity>
-8.20527

> <CNNscore>
0.0590066426

> <CNNaffinity>
6.9682555199

> <CNN_VS>
0.4111733735

> <CNNaffinity_variance>
0.4679679871

$$$$
[H]c1c([H])c(C([H])([H])[H])c(-c2c([H])c(C([H])([H])[H])c3nc(N([H])c4c([H])c([H])c(OC([H])([H])C([H])([H])N5C([H])([H])C([H])([H])C([H])([H])C5([H])[H])c([H])c4[H])nnc3c2[H])c(C([H])([H])[H])c1[H]


 35 39  0  0  0  0  0  0  0  0999 V2000
  -16.8562   13.5684  -23.4947 C   0  0  0  0  0  0  0  0  0  0  0  0
  -17.8811   14.0246  -22.6827 C   0  0  0  0  0  0  0  0  0  0  0  0
  -18.1499   13.3526  -21.5343 C   0  0  0  0  0  0  0  0  0  0  0  0
  -19.2488   13.8176  -20.6390 C   0  0  0  0  0  0  0  0  0  0  0  0
  -17.4495   12.2313  -21.1320 C   0  0  0  0  0  0  0  0  0  0  0  0
  -17.6885   11.5538  -19.9992 N   0  0  0  0  0  0  0  0  0  0  0  0
  -17.0085   10.4831  -19.6161 C   0  0  0  0  0  0  0  0  0  0  0  0
  -16.0196   10.0818  -20.4496 N   0  0  0  0  0  0  0  0  0  0  0  0
  -15.7039   10.6674  -21.5744 N   0  0  0  0  0  0  0  0  0  0  0  0
  -16.4209   11.7580  -21.9307 C   0  0  0  0  0  0  0  0  0  0  0  0
  -16.1514   12.4389  -23.0910 C   0  0  0  0  0  0  0  0  0  0  0  0
  -17.7348   12.4877  -25.9417 C   0  0  0  0  0  0  0  0  0  0  0  0
  -16.9031   13.7036  -25.9502 C   0  0  0  0  0  0  0  0  0  0  0  0
  -16.5717   14.3005  -27.1445 C   0  0  0  0  0  0  0  0  0  0  0  0
  -15.7933   15.4406  -27.1622 C   0  0  0  0  0  0  0  0  0  0  0  0
  -15.3564   15.9677  -25.9717 C   0  0  0  0  0  0  0  0  0  0  0  0
  -15.7024   15.3477  -24.7557 C   0  0  0  0  0  0  0  0  0  0  0  0
  -15.2167   15.9359  -23.4819 C   0  0  0  0  0  0  0  0  0  0  0  0
  -16.4713   14.2209  -24.7318 C   0  0  0  0  0  0  0  0  0  0  0  0
  -17.2447    9.7818  -18.4400 N   0  0  0  0  0  0  0  0  0  0  0  0
  -16.4439    9.1016  -18.1630 H   0  0  0  0  0  0  0  0  0  0  0  0
  -18.3600    9.8420  -17.5764 C   0  0  0  0  0  0  0  0  0  0  0  0
  -18.6012    8.7475  -16.7562 C   0  0  0  0  0  0  0  0  0  0  0  0
  -19.6388    8.6617  -15.8597 C   0  0  0  0  0  0  0  0  0  0  0  0
  -20.5189    9.7401  -15.7550 C   0  0  0  0  0  0  0  0  0  0  0  0
  -20.3109   10.8398  -16.5514 C   0  0  0  0  0  0  0  0  0  0  0  0
  -19.2403   10.8859  -17.4522 C   0  0  0  0  0  0  0  0  0  0  0  0
  -21.5686    9.6677  -14.8570 O   0  0  0  0  0  0  0  0  0  0  0  0
  -22.4181    8.5651  -14.8320 C   0  0  0  0  0  0  0  0  0  0  0  0
  -23.6460    8.8336  -15.6659 C   0  0  0  0  0  0  0  0  0  0  0  0
  -24.8391    8.8145  -14.8870 N   0  0  0  0  0  0  0  0  0  0  0  0
  -25.6341    9.9933  -15.1688 C   0  0  0  0  0  0  0  0  0  0  0  0
  -25.9853   10.6340  -13.8446 C   0  0  0  0  0  0  0  0  0  0  0  0
  -25.9293    9.4119  -12.9153 C   0  0  0  0  0  0  0  0  0  0  0  0
  -24.6560    8.7599  -13.4708 C   0  0  0  0  0  0  0  0  0  0  0  0
 12 13  1  0  0  0
 13 14  2  0  0  0
 14 15  1  0  0  0
 15 16  2  0  0  0
 16 17  1  0  0  0
 17 18  1  0  0  0
 17 19  2  0  0  0
 19  1  1  0  0  0
  1  2  2  0  0  0
  2  3  1  0  0  0
  3  4  1  0  0  0
  3  5  2  0  0  0
  5  6  1  0  0  0
  6  7  2  0  0  0
  7 20  1  0  0  0
 20 22  1  0  0  0
 22 23  2  0  0  0
 23 24  1  0  0  0
 24 25  2  0  0  0
 25 28  1  0  0  0
 28 29  1  0  0  0
 29 30  1  0  0  0
 30 31  1  0  0  0
 31 32  1  0  0  0
 32 33  1  0  0  0
 33 34  1  0  0  0
 34 35  1  0  0  0
 25 26  1  0  0  0
 26 27  2  0  0  0
  7  8  1  0  0  0
  8  9  2  0  0  0
  9 10  1  0  0  0
 10 11  2  0  0  0
 19 13  1  0  0  0
 11  1  1  0  0  0
 10  5  1  0  0  0
 27 22  1  0  0  0
 35 31  1  0  0  0
 20 21  1  0  0  0
M  END
> <minimizedAffinity>
-10.09512

> <CNNscore>
0.9813780785

> <CNNaffinity>
7.7597398758

> <CNN_VS>
7.6152386665

> <CNNaffinity_variance>
0.0855616331

$$$$
[H]c1c([H])c(C([H])([H])[H])c(-c2c([H])c(C([H])([H])[H])c3nc(N([H])c4c([H])c([H])c(OC([H])([H])C([H])([H])N5C([H])([H])C([H])([H])C([H])([H])C5([H])[H])c([H])c4[H])nnc3c2[H])c(C([H])([H])[H])c1[H]


 35 39  0  0  0  0  0  0  0  0999 V2000
  -16.8727   13.5612  -23.6078 C   0  0  0  0  0  0  0  0  0  0  0  0
  -17.8719   14.0422  -22.7783 C   0  0  0  0  0  0  0  0  0  0  0  0
  -18.1085   13.4015  -21.6052 C   0  0  0  0  0  0  0  0  0  0  0  0
  -19.1792   13.8938  -20.6904 C   0  0  0  0  0  0  0  0  0  0  0  0
  -17.3998   12.2886  -21.1944 C   0  0  0  0  0  0  0  0  0  0  0  0
  -17.6071   11.6419  -20.0375 N   0  0  0  0  0  0  0  0  0  0  0  0
  -16.9191   10.5792  -19.6466 C   0  0  0  0  0  0  0  0  0  0  0  0
  -15.9564   10.1526  -20.4981 N   0  0  0  0  0  0  0  0  0  0  0  0
  -15.6724   10.7074  -21.6467 N   0  0  0  0  0  0  0  0  0  0  0  0
  -16.3966   11.7908  -22.0103 C   0  0  0  0  0  0  0  0  0  0  0  0
  -16.1595   12.4401  -23.1956 C   0  0  0  0  0  0  0  0  0  0  0  0
  -17.8111   12.4093  -25.9996 C   0  0  0  0  0  0  0  0  0  0  0  0
  -16.9843   13.6269  -26.0642 C   0  0  0  0  0  0  0  0  0  0  0  0
  -16.6865   14.1908  -27.2830 C   0  0  0  0  0  0  0  0  0  0  0  0
  -15.9130   15.3322  -27.3532 C   0  0  0  0  0  0  0  0  0  0  0  0
  -15.4470   15.8940  -26.1899 C   0  0  0  0  0  0  0  0  0  0  0  0
  -15.7588   15.3075  -24.9482 C   0  0  0  0  0  0  0  0  0  0  0  0
  -15.2421   15.9329  -23.7047 C   0  0  0  0  0  0  0  0  0  0  0  0
  -16.5228   14.1796  -24.8725 C   0  0  0  0  0  0  0  0  0  0  0  0
  -17.1225    9.9098  -18.4460 N   0  0  0  0  0  0  0  0  0  0  0  0
  -16.2723    9.3157  -18.1222 H   0  0  0  0  0  0  0  0  0  0  0  0
  -18.2602    9.9071  -17.6100 C   0  0  0  0  0  0  0  0  0  0  0  0
  -18.4814    8.7833  -16.8245 C   0  0  0  0  0  0  0  0  0  0  0  0
  -19.5370    8.6366  -15.9574 C   0  0  0  0  0  0  0  0  0  0  0  0
  -20.4581    9.6797  -15.8476 C   0  0  0  0  0  0  0  0  0  0  0  0
  -20.2707   10.8069  -16.6099 C   0  0  0  0  0  0  0  0  0  0  0  0
  -19.1807   10.9152  -17.4816 C   0  0  0  0  0  0  0  0  0  0  0  0
  -21.5263    9.5460  -14.9788 O   0  0  0  0  0  0  0  0  0  0  0  0
  -21.4008    8.8321  -13.7904 C   0  0  0  0  0  0  0  0  0  0  0  0
  -21.5138    9.7625  -12.6085 C   0  0  0  0  0  0  0  0  0  0  0  0
  -20.2397   10.2090  -12.1525 N   0  0  0  0  0  0  0  0  0  0  0  0
  -19.2775    9.1281  -12.2330 C   0  0  0  0  0  0  0  0  0  0  0  0
  -18.5939    9.0246  -10.8878 C   0  0  0  0  0  0  0  0  0  0  0  0
  -18.7468   10.4668  -10.3811 C   0  0  0  0  0  0  0  0  0  0  0  0
  -20.1989   10.7091  -10.8144 C   0  0  0  0  0  0  0  0  0  0  0  0
 12 13  1  0  0  0
 13 14  2  0  0  0
 14 15  1  0  0  0
 15 16  2  0  0  0
 16 17  1  0  0  0
 17 18  1  0  0  0
 17 19  2  0  0  0
 19  1  1  0  0  0
  1  2  2  0  0  0
  2  3  1  0  0  0
  3  4  1  0  0  0
  3  5  2  0  0  0
  5  6  1  0  0  0
  6  7  2  0  0  0
  7 20  1  0  0  0
 20 22  1  0  0  0
 22 23  2  0  0  0
 23 24  1  0  0  0
 24 25  2  0  0  0
 25 28  1  0  0  0
 28 29  1  0  0  0
 29 30  1  0  0  0
 30 31  1  0  0  0
 31 32  1  0  0  0
 32 33  1  0  0  0
 33 34  1  0  0  0
 34 35  1  0  0  0
 25 26  1  0  0  0
 26 27  2  0  0  0
  7  8  1  0  0  0
  8  9  2  0  0  0
  9 10  1  0  0  0
 10 11  2  0  0  0
 19 13  1  0  0  0
 11  1  1  0  0  0
 10  5  1  0  0  0
 27 22  1  0  0  0
 35 31  1  0  0  0
 20 21  1  0  0  0
M  END
> <minimizedAffinity>
-10.42680

> <CNNscore>
0.9812421799

> <CNNaffinity>
7.8714075089

> <CNN_VS>
7.7237572670

> <CNNaffinity_variance>
0.1328718364

$$$$
[H]c1c([H])c(C([H])([H])[H])c(-c2c([H])c(C([H])([H])[H])c3nc(N([H])c4c([H])c([H])c(OC([H])([H])C([H])([H])N5C([H])([H])C([H])([H])C([H])([H])C5([H])[H])c([H])c4[H])nnc3c2[H])c(C([H])([H])[H])c1[H]


 35 39  0  0  0  0  0  0  0  0999 V2000
  -16.7922   13.6134  -23.7732 C   0  0  0  0  0  0  0  0  0  0  0  0
  -17.7802   14.1038  -22.9357 C   0  0  0  0  0  0  0  0  0  0  0  0
  -17.9943   13.4820  -21.7482 C   0  0  0  0  0  0  0  0  0  0  0  0
  -19.0525   13.9846  -20.8244 C   0  0  0  0  0  0  0  0  0  0  0  0
  -17.2733   12.3797  -21.3301 C   0  0  0  0  0  0  0  0  0  0  0  0
  -17.4585   11.7518  -20.1593 N   0  0  0  0  0  0  0  0  0  0  0  0
  -16.7588   10.6993  -19.7617 C   0  0  0  0  0  0  0  0  0  0  0  0
  -15.8079   10.2629  -20.6214 N   0  0  0  0  0  0  0  0  0  0  0  0
  -15.5455   10.7994  -21.7838 N   0  0  0  0  0  0  0  0  0  0  0  0
  -16.2810   11.8729  -22.1538 C   0  0  0  0  0  0  0  0  0  0  0  0
  -16.0666   12.5031  -23.3537 C   0  0  0  0  0  0  0  0  0  0  0  0
  -15.2220   15.9499  -23.8306 C   0  0  0  0  0  0  0  0  0  0  0  0
  -15.6847   15.3635  -25.1003 C   0  0  0  0  0  0  0  0  0  0  0  0
  -15.3418   15.9538  -26.2946 C   0  0  0  0  0  0  0  0  0  0  0  0
  -15.7703   15.4108  -27.4894 C   0  0  0  0  0  0  0  0  0  0  0  0
  -16.5423   14.2752  -27.4666 C   0  0  0  0  0  0  0  0  0  0  0  0
  -16.8865   13.6801  -26.2377 C   0  0  0  0  0  0  0  0  0  0  0  0
  -17.7232   12.4535  -26.2392 C   0  0  0  0  0  0  0  0  0  0  0  0
  -16.4660   14.2119  -25.0537 C   0  0  0  0  0  0  0  0  0  0  0  0
  -16.9391   10.0495  -18.5467 N   0  0  0  0  0  0  0  0  0  0  0  0
  -16.0547    9.5300  -18.1883 H   0  0  0  0  0  0  0  0  0  0  0  0
  -18.0923    9.9840  -17.7349 C   0  0  0  0  0  0  0  0  0  0  0  0
  -18.9131   11.1034  -17.6880 C   0  0  0  0  0  0  0  0  0  0  0  0
  -20.0706   11.1882  -16.9526 C   0  0  0  0  0  0  0  0  0  0  0  0
  -20.4611   10.0821  -16.1960 C   0  0  0  0  0  0  0  0  0  0  0  0
  -19.6730    8.9573  -16.2184 C   0  0  0  0  0  0  0  0  0  0  0  0
  -18.5004    8.9131  -16.9820 C   0  0  0  0  0  0  0  0  0  0  0  0
  -21.6240   10.1531  -15.4503 O   0  0  0  0  0  0  0  0  0  0  0  0
  -22.3412    9.0047  -15.1266 C   0  0  0  0  0  0  0  0  0  0  0  0
  -22.3429    8.7943  -13.6330 C   0  0  0  0  0  0  0  0  0  0  0  0
  -22.9358    9.8873  -12.9371 N   0  0  0  0  0  0  0  0  0  0  0  0
  -22.7767    9.7098  -11.5074 C   0  0  0  0  0  0  0  0  0  0  0  0
  -24.1381    9.8823  -10.8719 C   0  0  0  0  0  0  0  0  0  0  0  0
  -24.8192   10.7930  -11.9048 C   0  0  0  0  0  0  0  0  0  0  0  0
  -24.3278   10.0983  -13.1819 C   0  0  0  0  0  0  0  0  0  0  0  0
 12 13  1  0  0  0
 13 14  2  0  0  0
 14 15  1  0  0  0
 15 16  2  0  0  0
 16 17  1  0  0  0
 17 18  1  0  0  0
 17 19  2  0  0  0
 19  1  1  0  0  0
  1  2  2  0  0  0
  2  3  1  0  0  0
  3  4  1  0  0  0
  3  5  2  0  0  0
  5  6  1  0  0  0
  6  7  2  0  0  0
  7 20  1  0  0  0
 20 22  1  0  0  0
 22 23  2  0  0  0
 23 24  1  0  0  0
 24 25  2  0  0  0
 25 28  1  0  0  0
 28 29  1  0  0  0
 29 30  1  0  0  0
 30 31  1  0  0  0
 31 32  1  0  0  0
 32 33  1  0  0  0
 33 34  1  0  0  0
 34 35  1  0  0  0
 25 26  1  0  0  0
 26 27  2  0  0  0
  7  8  1  0  0  0
  8  9  2  0  0  0
  9 10  1  0  0  0
 10 11  2  0  0  0
 19 13  1  0  0  0
 11  1  1  0  0  0
 10  5  1  0  0  0
 27 22  1  0  0  0
 35 31  1  0  0  0
 20 21  1  0  0  0
M  END
> <minimizedAffinity>
-9.72150

> <CNNscore>
0.9801475406

> <CNNaffinity>
7.6990027428

> <CNN_VS>
7.5461587906

> <CNNaffinity_variance>
0.0757471547

$$$$
[H]c1c([H])c(C([H])([H])[H])c(-c2c([H])c(C([H])([H])[H])c3nc(N([H])c4c([H])c([H])c(OC([H])([H])C([H])([H])N5C([H])([H])C([H])([H])C([H])([H])C5([H])[H])c([H])c4[H])nnc3c2[H])c(C([H])([H])[H])c1[H]


 35 39  0  0  0  0  0  0  0  0999 V2000
  -16.8137   13.6046  -23.6541 C   0  0  0  0  0  0  0  0  0  0  0  0
  -17.8158   14.0879  -22.8293 C   0  0  0  0  0  0  0  0  0  0  0  0
  -18.0649   13.4427  -21.6613 C   0  0  0  0  0  0  0  0  0  0  0  0
  -19.1389   13.9371  -20.7516 C   0  0  0  0  0  0  0  0  0  0  0  0
  -17.3663   12.3231  -21.2511 C   0  0  0  0  0  0  0  0  0  0  0  0
  -17.5861   11.6718  -20.0992 N   0  0  0  0  0  0  0  0  0  0  0  0
  -16.9077   10.6027  -19.7089 C   0  0  0  0  0  0  0  0  0  0  0  0
  -15.9417   10.1743  -20.5556 N   0  0  0  0  0  0  0  0  0  0  0  0
  -15.6459   10.7331  -21.6993 N   0  0  0  0  0  0  0  0  0  0  0  0
  -16.3604   11.8230  -22.0624 C   0  0  0  0  0  0  0  0  0  0  0  0
  -16.1107   12.4769  -23.2426 C   0  0  0  0  0  0  0  0  0  0  0  0
  -17.7573   12.4817  -26.0576 C   0  0  0  0  0  0  0  0  0  0  0  0
  -16.9146   13.6889  -26.1104 C   0  0  0  0  0  0  0  0  0  0  0  0
  -16.6046   14.2574  -27.3240 C   0  0  0  0  0  0  0  0  0  0  0  0
  -15.8161   15.3892  -27.3832 C   0  0  0  0  0  0  0  0  0  0  0  0
  -15.3476   15.9367  -26.2141 C   0  0  0  0  0  0  0  0  0  0  0  0
  -15.6719   15.3457  -24.9779 C   0  0  0  0  0  0  0  0  0  0  0  0
  -15.1521   15.9556  -23.7279 C   0  0  0  0  0  0  0  0  0  0  0  0
  -16.4507   14.2273  -24.9130 C   0  0  0  0  0  0  0  0  0  0  0  0
  -17.1240    9.9285  -18.5132 N   0  0  0  0  0  0  0  0  0  0  0  0
  -16.2876    9.3113  -18.1968 H   0  0  0  0  0  0  0  0  0  0  0  0
  -18.2592    9.9464  -17.6740 C   0  0  0  0  0  0  0  0  0  0  0  0
  -18.4969    8.8279  -16.8857 C   0  0  0  0  0  0  0  0  0  0  0  0
  -19.5522    8.7004  -16.0153 C   0  0  0  0  0  0  0  0  0  0  0  0
  -20.4556    9.7589  -15.9050 C   0  0  0  0  0  0  0  0  0  0  0  0
  -20.2517   10.8814  -16.6700 C   0  0  0  0  0  0  0  0  0  0  0  0
  -19.1624   10.9699  -17.5450 C   0  0  0  0  0  0  0  0  0  0  0  0
  -21.5233    9.6447  -15.0330 O   0  0  0  0  0  0  0  0  0  0  0  0
  -22.6514    8.9025  -15.3717 C   0  0  0  0  0  0  0  0  0  0  0  0
  -23.0228    7.9734  -14.2430 C   0  0  0  0  0  0  0  0  0  0  0  0
  -22.8246    6.6047  -14.5864 N   0  0  0  0  0  0  0  0  0  0  0  0
  -21.7146    6.0595  -13.8304 C   0  0  0  0  0  0  0  0  0  0  0  0
  -20.7786    5.3907  -14.8122 C   0  0  0  0  0  0  0  0  0  0  0  0
  -21.7590    5.0347  -15.9401 C   0  0  0  0  0  0  0  0  0  0  0  0
  -22.5624    6.3419  -15.9664 C   0  0  0  0  0  0  0  0  0  0  0  0
 12 13  1  0  0  0
 13 14  2  0  0  0
 14 15  1  0  0  0
 15 16  2  0  0  0
 16 17  1  0  0  0
 17 18  1  0  0  0
 17 19  2  0  0  0
 19  1  1  0  0  0
  1  2  2  0  0  0
  2  3  1  0  0  0
  3  4  1  0  0  0
  3  5  2  0  0  0
  5  6  1  0  0  0
  6  7  2  0  0  0
  7 20  1  0  0  0
 20 22  1  0  0  0
 22 23  2  0  0  0
 23 24  1  0  0  0
 24 25  2  0  0  0
 25 28  1  0  0  0
 28 29  1  0  0  0
 29 30  1  0  0  0
 30 31  1  0  0  0
 31 32  1  0  0  0
 32 33  1  0  0  0
 33 34  1  0  0  0
 34 35  1  0  0  0
 25 26  1  0  0  0
 26 27  2  0  0  0
  7  8  1  0  0  0
  8  9  2  0  0  0
  9 10  1  0  0  0
 10 11  2  0  0  0
 19 13  1  0  0  0
 11  1  1  0  0  0
 10  5  1  0  0  0
 27 22  1  0  0  0
 35 31  1  0  0  0
 20 21  1  0  0  0
M  END
> <minimizedAffinity>
-10.44353

> <CNNscore>
0.9785692692

> <CNNaffinity>
7.8697042465

> <CNN_VS>
7.7010507584

> <CNNaffinity_variance>
0.0602027886

$$$$
[H]c1c([H])c(C([H])([H])[H])c(-c2c([H])c(C([H])([H])[H])c3nc(N([H])c4c([H])c([H])c(OC([H])([H])C([H])([H])N5C([H])([H])C([H])([H])C([H])([H])C5([H])[H])c([H])c4[H])nnc3c2[H])c(C([H])([H])[H])c1[H]


 35 39  0  0  0  0  0  0  0  0999 V2000
  -16.8857   13.5615  -23.5507 C   0  0  0  0  0  0  0  0  0  0  0  0
  -17.8903   14.0432  -22.7282 C   0  0  0  0  0  0  0  0  0  0  0  0
  -18.1379   13.4004  -21.5585 C   0  0  0  0  0  0  0  0  0  0  0  0
  -19.2147   13.8933  -20.6511 C   0  0  0  0  0  0  0  0  0  0  0  0
  -17.4353   12.2848  -21.1445 C   0  0  0  0  0  0  0  0  0  0  0  0
  -17.6536   11.6360  -19.9908 N   0  0  0  0  0  0  0  0  0  0  0  0
  -16.9714   10.5706  -19.5969 C   0  0  0  0  0  0  0  0  0  0  0  0
  -16.0030   10.1436  -20.4416 N   0  0  0  0  0  0  0  0  0  0  0  0
  -15.7084   10.7002  -21.5866 N   0  0  0  0  0  0  0  0  0  0  0  0
  -16.4268   11.7863  -21.9535 C   0  0  0  0  0  0  0  0  0  0  0  0
  -16.1786   12.4377  -23.1353 C   0  0  0  0  0  0  0  0  0  0  0  0
  -15.2881   15.8799  -23.5251 C   0  0  0  0  0  0  0  0  0  0  0  0
  -15.7288   15.3249  -24.8166 C   0  0  0  0  0  0  0  0  0  0  0  0
  -15.3524   15.9352  -25.9906 C   0  0  0  0  0  0  0  0  0  0  0  0
  -15.7601   15.4217  -27.2056 C   0  0  0  0  0  0  0  0  0  0  0  0
  -16.5452   14.2952  -27.2233 C   0  0  0  0  0  0  0  0  0  0  0  0
  -16.9238   13.6793  -26.0149 C   0  0  0  0  0  0  0  0  0  0  0  0
  -17.7741   12.4630  -26.0601 C   0  0  0  0  0  0  0  0  0  0  0  0
  -16.5240   14.1820  -24.8111 C   0  0  0  0  0  0  0  0  0  0  0  0
  -17.1861    9.8990  -18.3995 N   0  0  0  0  0  0  0  0  0  0  0  0
  -16.3405    9.3012  -18.0708 H   0  0  0  0  0  0  0  0  0  0  0  0
  -18.3300    9.8982  -17.5721 C   0  0  0  0  0  0  0  0  0  0  0  0
  -18.5750    8.7630  -16.8104 C   0  0  0  0  0  0  0  0  0  0  0  0
  -19.6394    8.6163  -15.9541 C   0  0  0  0  0  0  0  0  0  0  0  0
  -20.5448    9.6716  -15.8307 C   0  0  0  0  0  0  0  0  0  0  0  0
  -20.3338   10.8103  -16.5694 C   0  0  0  0  0  0  0  0  0  0  0  0
  -19.2355   10.9182  -17.4308 C   0  0  0  0  0  0  0  0  0  0  0  0
  -21.6215    9.5380  -14.9726 O   0  0  0  0  0  0  0  0  0  0  0  0
  -22.6937    8.7084  -15.2889 C   0  0  0  0  0  0  0  0  0  0  0  0
  -22.9554    7.7414  -14.1613 C   0  0  0  0  0  0  0  0  0  0  0  0
  -22.7372    6.3886  -14.5522 N   0  0  0  0  0  0  0  0  0  0  0  0
  -21.6268    5.8299  -13.8066 C   0  0  0  0  0  0  0  0  0  0  0  0
  -20.6744    5.2086  -14.8037 C   0  0  0  0  0  0  0  0  0  0  0  0
  -21.6408    4.8817  -15.9523 C   0  0  0  0  0  0  0  0  0  0  0  0
  -22.4603    6.1791  -15.9384 C   0  0  0  0  0  0  0  0  0  0  0  0
 12 13  1  0  0  0
 13 14  2  0  0  0
 14 15  1  0  0  0
 15 16  2  0  0  0
 16 17  1  0  0  0
 17 18  1  0  0  0
 17 19  2  0  0  0
 19  1  1  0  0  0
  1  2  2  0  0  0
  2  3  1  0  0  0
  3  4  1  0  0  0
  3  5  2  0  0  0
  5  6  1  0  0  0
  6  7  2  0  0  0
  7 20  1  0  0  0
 20 22  1  0  0  0
 22 23  2  0  0  0
 23 24  1  0  0  0
 24 25  2  0  0  0
 25 28  1  0  0  0
 28 29  1  0  0  0
 29 30  1  0  0  0
 30 31  1  0  0  0
 31 32  1  0  0  0
 32 33  1  0  0  0
 33 34  1  0  0  0
 34 35  1  0  0  0
 25 26  1  0  0  0
 26 27  2  0  0  0
  7  8  1  0  0  0
  8  9  2  0  0  0
  9 10  1  0  0  0
 10 11  2  0  0  0
 19 13  1  0  0  0
 11  1  1  0  0  0
 10  5  1  0  0  0
 27 22  1  0  0  0
 35 31  1  0  0  0
 20 21  1  0  0  0
M  END
> <minimizedAffinity>
-10.38787

> <CNNscore>
0.9782336354

> <CNNaffinity>
7.8618369102

> <CNN_VS>
7.6907134056

> <CNNaffinity_variance>
0.0615563765

$$$$
[H]c1c([H])c(C([H])([H])[H])c(-c2c([H])c(C([H])([H])[H])c3nc(N([H])c4c([H])c([H])c(OC([H])([H])C([H])([H])N5C([H])([H])C([H])([H])C([H])([H])C5([H])[H])c([H])c4[H])nnc3c2[H])c(C([H])([H])[H])c1[H]


 35 39  0  0  0  0  0  0  0  0999 V2000
  -16.8642   13.5942  -23.6388 C   0  0  0  0  0  0  0  0  0  0  0  0
  -17.8695   14.0661  -22.8115 C   0  0  0  0  0  0  0  0  0  0  0  0
  -18.1105   13.4163  -21.6443 C   0  0  0  0  0  0  0  0  0  0  0  0
  -19.1878   13.8986  -20.7319 C   0  0  0  0  0  0  0  0  0  0  0  0
  -17.4004   12.3028  -21.2374 C   0  0  0  0  0  0  0  0  0  0  0  0
  -17.6119   11.6472  -20.0864 N   0  0  0  0  0  0  0  0  0  0  0  0
  -16.9226   10.5840  -19.6992 C   0  0  0  0  0  0  0  0  0  0  0  0
  -15.9539   10.1666  -20.5484 N   0  0  0  0  0  0  0  0  0  0  0  0
  -15.6654   10.7304  -21.6914 N   0  0  0  0  0  0  0  0  0  0  0  0
  -16.3911   11.8141  -22.0513 C   0  0  0  0  0  0  0  0  0  0  0  0
  -16.1496   12.4726  -23.2306 C   0  0  0  0  0  0  0  0  0  0  0  0
  -15.3211   15.9492  -23.6040 C   0  0  0  0  0  0  0  0  0  0  0  0
  -15.7409   15.3839  -24.8980 C   0  0  0  0  0  0  0  0  0  0  0  0
  -15.3716   16.0027  -26.0698 C   0  0  0  0  0  0  0  0  0  0  0  0
  -15.7597   15.4798  -27.2871 C   0  0  0  0  0  0  0  0  0  0  0  0
  -16.5183   14.3352  -27.3094 C   0  0  0  0  0  0  0  0  0  0  0  0
  -16.8899   13.7109  -26.1032 C   0  0  0  0  0  0  0  0  0  0  0  0
  -17.7114   12.4751  -26.1534 C   0  0  0  0  0  0  0  0  0  0  0  0
  -16.5093   14.2228  -24.8971 C   0  0  0  0  0  0  0  0  0  0  0  0
  -17.1304    9.9054  -18.5045 N   0  0  0  0  0  0  0  0  0  0  0  0
  -16.3018    9.2677  -18.2090 H   0  0  0  0  0  0  0  0  0  0  0  0
  -18.2484    9.9415  -17.6431 C   0  0  0  0  0  0  0  0  0  0  0  0
  -18.8534   11.1719  -17.4219 C   0  0  0  0  0  0  0  0  0  0  0  0
  -19.9513   11.3650  -16.6188 C   0  0  0  0  0  0  0  0  0  0  0  0
  -20.5077   10.2587  -15.9746 C   0  0  0  0  0  0  0  0  0  0  0  0
  -19.9350    9.0256  -16.1704 C   0  0  0  0  0  0  0  0  0  0  0  0
  -18.8159    8.8731  -16.9977 C   0  0  0  0  0  0  0  0  0  0  0  0
  -21.6131   10.4379  -15.1625 O   0  0  0  0  0  0  0  0  0  0  0  0
  -21.8922   11.6767  -14.5920 C   0  0  0  0  0  0  0  0  0  0  0  0
  -22.7251   11.5017  -13.3467 C   0  0  0  0  0  0  0  0  0  0  0  0
  -23.6281   12.5859  -13.1476 N   0  0  0  0  0  0  0  0  0  0  0  0
  -23.4936   13.5474  -14.2238 C   0  0  0  0  0  0  0  0  0  0  0  0
  -23.3103   14.9114  -13.5967 C   0  0  0  0  0  0  0  0  0  0  0  0
  -24.0190   14.7012  -12.2500 C   0  0  0  0  0  0  0  0  0  0  0  0
  -23.4765   13.3039  -11.9213 C   0  0  0  0  0  0  0  0  0  0  0  0
 12 13  1  0  0  0
 13 14  2  0  0  0
 14 15  1  0  0  0
 15 16  2  0  0  0
 16 17  1  0  0  0
 17 18  1  0  0  0
 17 19  2  0  0  0
 19  1  1  0  0  0
  1  2  2  0  0  0
  2  3  1  0  0  0
  3  4  1  0  0  0
  3  5  2  0  0  0
  5  6  1  0  0  0
  6  7  2  0  0  0
  7 20  1  0  0  0
 20 22  1  0  0  0
 22 23  2  0  0  0
 23 24  1  0  0  0
 24 25  2  0  0  0
 25 28  1  0  0  0
 28 29  1  0  0  0
 29 30  1  0  0  0
 30 31  1  0  0  0
 31 32  1  0  0  0
 32 33  1  0  0  0
 33 34  1  0  0  0
 34 35  1  0  0  0
 25 26  1  0  0  0
 26 27  2  0  0  0
  7  8  1  0  0  0
  8  9  2  0  0  0
  9 10  1  0  0  0
 10 11  2  0  0  0
 19 13  1  0  0  0
 11  1  1  0  0  0
 10  5  1  0  0  0
 27 22  1  0  0  0
 35 31  1  0  0  0
 20 21  1  0  0  0
M  END
> <minimizedAffinity>
-9.60605

> <CNNscore>
0.9766888022

> <CNNaffinity>
7.7165741920

> <CNN_VS>
7.5366916656

> <CNNaffinity_variance>
0.0530741587

$$$$
[H]c1c([H])c(C([H])([H])[H])c(-c2c([H])c(C([H])([H])[H])c3nc(N([H])c4c([H])c([H])c(OC([H])([H])C([H])([H])N5C([H])([H])C([H])([H])C([H])([H])C5([H])[H])c([H])c4[H])nnc3c2[H])c(C([H])([H])[H])c1[H]


 35 39  0  0  0  0  0  0  0  0999 V2000
  -16.8713   13.5535  -23.5635 C   0  0  0  0  0  0  0  0  0  0  0  0
  -17.8857   14.0230  -22.7459 C   0  0  0  0  0  0  0  0  0  0  0  0
  -18.1390   13.3703  -21.5830 C   0  0  0  0  0  0  0  0  0  0  0  0
  -19.2263   13.8500  -20.6811 C   0  0  0  0  0  0  0  0  0  0  0  0
  -17.4329   12.2561  -21.1711 C   0  0  0  0  0  0  0  0  0  0  0  0
  -17.6567   11.5976  -20.0240 N   0  0  0  0  0  0  0  0  0  0  0  0
  -16.9712   10.5336  -19.6321 C   0  0  0  0  0  0  0  0  0  0  0  0
  -15.9932   10.1186  -20.4717 N   0  0  0  0  0  0  0  0  0  0  0  0
  -15.6926   10.6854  -21.6102 N   0  0  0  0  0  0  0  0  0  0  0  0
  -16.4147   11.7696  -21.9752 C   0  0  0  0  0  0  0  0  0  0  0  0
  -16.1608   12.4311  -23.1503 C   0  0  0  0  0  0  0  0  0  0  0  0
  -17.7893   12.4371  -25.9799 C   0  0  0  0  0  0  0  0  0  0  0  0
  -16.9543   13.6502  -26.0199 C   0  0  0  0  0  0  0  0  0  0  0  0
  -16.6391   14.2271  -27.2282 C   0  0  0  0  0  0  0  0  0  0  0  0
  -15.8578   15.3644  -27.2754 C   0  0  0  0  0  0  0  0  0  0  0  0
  -15.4017   15.9089  -26.1000 C   0  0  0  0  0  0  0  0  0  0  0  0
  -15.7314   15.3092  -24.8694 C   0  0  0  0  0  0  0  0  0  0  0  0
  -15.2251   15.9159  -23.6124 C   0  0  0  0  0  0  0  0  0  0  0  0
  -16.5031   14.1853  -24.8163 C   0  0  0  0  0  0  0  0  0  0  0  0
  -17.1916    9.8521  -18.4413 N   0  0  0  0  0  0  0  0  0  0  0  0
  -16.3580    9.2297  -18.1280 H   0  0  0  0  0  0  0  0  0  0  0  0
  -18.3279    9.8684  -17.6036 C   0  0  0  0  0  0  0  0  0  0  0  0
  -18.5661    8.7488  -16.8169 C   0  0  0  0  0  0  0  0  0  0  0  0
  -19.6225    8.6199  -15.9481 C   0  0  0  0  0  0  0  0  0  0  0  0
  -20.5265    9.6777  -15.8377 C   0  0  0  0  0  0  0  0  0  0  0  0
  -20.3222   10.8012  -16.6011 C   0  0  0  0  0  0  0  0  0  0  0  0
  -19.2319   10.8913  -17.4746 C   0  0  0  0  0  0  0  0  0  0  0  0
  -21.5954    9.5619  -14.9672 O   0  0  0  0  0  0  0  0  0  0  0  0
  -22.4755   10.6214  -14.7652 C   0  0  0  0  0  0  0  0  0  0  0  0
  -22.2933   11.1944  -13.3819 C   0  0  0  0  0  0  0  0  0  0  0  0
  -22.3954   12.6157  -13.3713 N   0  0  0  0  0  0  0  0  0  0  0  0
  -23.7231   13.0143  -12.9481 C   0  0  0  0  0  0  0  0  0  0  0  0
  -24.2523   13.9957  -13.9699 C   0  0  0  0  0  0  0  0  0  0  0  0
  -22.9372   14.5729  -14.5154 C   0  0  0  0  0  0  0  0  0  0  0  0
  -22.1386   13.2665  -14.6174 C   0  0  0  0  0  0  0  0  0  0  0  0
 12 13  1  0  0  0
 13 14  2  0  0  0
 14 15  1  0  0  0
 15 16  2  0  0  0
 16 17  1  0  0  0
 17 18  1  0  0  0
 17 19  2  0  0  0
 19  1  1  0  0  0
  1  2  2  0  0  0
  2  3  1  0  0  0
  3  4  1  0  0  0
  3  5  2  0  0  0
  5  6  1  0  0  0
  6  7  2  0  0  0
  7 20  1  0  0  0
 20 22  1  0  0  0
 22 23  2  0  0  0
 23 24  1  0  0  0
 24 25  2  0  0  0
 25 28  1  0  0  0
 28 29  1  0  0  0
 29 30  1  0  0  0
 30 31  1  0  0  0
 31 32  1  0  0  0
 32 33  1  0  0  0
 33 34  1  0  0  0
 34 35  1  0  0  0
 25 26  1  0  0  0
 26 27  2  0  0  0
  7  8  1  0  0  0
  8  9  2  0  0  0
  9 10  1  0  0  0
 10 11  2  0  0  0
 19 13  1  0  0  0
 11  1  1  0  0  0
 10  5  1  0  0  0
 27 22  1  0  0  0
 35 31  1  0  0  0
 20 21  1  0  0  0
M  END
> <minimizedAffinity>
-10.06754

> <CNNscore>
0.9743060470

> <CNNaffinity>
7.7774367332

> <CNN_VS>
7.5776038170

> <CNNaffinity_variance>
0.0559084006

$$$$
[H]c1c([H])c(C([H])([H])[H])c(-c2c([H])c(C([H])([H])[H])c3nc(N([H])c4c([H])c([H])c(OC([H])([H])C([H])([H])N5C([H])([H])C([H])([H])C([H])([H])C5([H])[H])c([H])c4[H])nnc3c2[H])c(C([H])([H])[H])c1[H]


 35 39  0  0  0  0  0  0  0  0999 V2000
  -17.1249   13.9997  -23.7052 C   0  0  0  0  0  0  0  0  0  0  0  0
  -18.0607   14.7108  -22.9726 C   0  0  0  0  0  0  0  0  0  0  0  0
  -18.4264   14.2404  -21.7529 C   0  0  0  0  0  0  0  0  0  0  0  0
  -19.4334   14.9822  -20.9398 C   0  0  0  0  0  0  0  0  0  0  0  0
  -17.9100   13.0829  -21.2022 C   0  0  0  0  0  0  0  0  0  0  0  0
  -18.2473   12.6005  -19.9968 N   0  0  0  0  0  0  0  0  0  0  0  0
  -17.7431   11.4934  -19.4718 C   0  0  0  0  0  0  0  0  0  0  0  0
  -16.8344   10.8391  -20.2333 N   0  0  0  0  0  0  0  0  0  0  0  0
  -16.4358   11.2204  -21.4180 N   0  0  0  0  0  0  0  0  0  0  0  0
  -16.9733   12.3562  -21.9194 C   0  0  0  0  0  0  0  0  0  0  0  0
  -16.6055   12.8338  -23.1521 C   0  0  0  0  0  0  0  0  0  0  0  0
  -17.9279   12.5589  -25.9872 C   0  0  0  0  0  0  0  0  0  0  0  0
  -17.0413   13.7244  -26.1481 C   0  0  0  0  0  0  0  0  0  0  0  0
  -16.6226   14.1005  -27.4033 C   0  0  0  0  0  0  0  0  0  0  0  0
  -15.7923   15.1917  -27.5638 C   0  0  0  0  0  0  0  0  0  0  0  0
  -15.3921   15.8936  -26.4533 C   0  0  0  0  0  0  0  0  0  0  0  0
  -15.8275   15.4989  -25.1737 C   0  0  0  0  0  0  0  0  0  0  0  0
  -15.3801   16.2732  -23.9884 C   0  0  0  0  0  0  0  0  0  0  0  0
  -16.6482   14.4215  -25.0087 C   0  0  0  0  0  0  0  0  0  0  0  0
  -18.0811   10.9927  -18.2204 N   0  0  0  0  0  0  0  0  0  0  0  0
  -17.3979   10.2338  -17.8492 H   0  0  0  0  0  0  0  0  0  0  0  0
  -19.1669   11.3386  -17.3869 C   0  0  0  0  0  0  0  0  0  0  0  0
  -19.3354   12.6803  -17.0699 C   0  0  0  0  0  0  0  0  0  0  0  0
  -20.3465   13.1711  -16.2797 C   0  0  0  0  0  0  0  0  0  0  0  0
  -21.2752   12.2723  -15.7523 C   0  0  0  0  0  0  0  0  0  0  0  0
  -21.1392   10.9371  -16.0450 C   0  0  0  0  0  0  0  0  0  0  0  0
  -20.0934   10.4791  -16.8550 C   0  0  0  0  0  0  0  0  0  0  0  0
  -22.2984   12.7520  -14.9545 O   0  0  0  0  0  0  0  0  0  0  0  0
  -22.3119   14.0749  -14.5214 C   0  0  0  0  0  0  0  0  0  0  0  0
  -23.3337   14.8676  -15.2977 C   0  0  0  0  0  0  0  0  0  0  0  0
  -22.8105   16.1085  -15.7634 N   0  0  0  0  0  0  0  0  0  0  0  0
  -22.6629   16.0748  -17.2049 C   0  0  0  0  0  0  0  0  0  0  0  0
  -21.2537   16.5176  -17.5297 C   0  0  0  0  0  0  0  0  0  0  0  0
  -20.9435   17.3939  -16.3067 C   0  0  0  0  0  0  0  0  0  0  0  0
  -21.5456   16.4926  -15.2204 C   0  0  0  0  0  0  0  0  0  0  0  0
 12 13  1  0  0  0
 13 14  2  0  0  0
 14 15  1  0  0  0
 15 16  2  0  0  0
 16 17  1  0  0  0
 17 18  1  0  0  0
 17 19  2  0  0  0
 19  1  1  0  0  0
  1  2  2  0  0  0
  2  3  1  0  0  0
  3  4  1  0  0  0
  3  5  2  0  0  0
  5  6  1  0  0  0
  6  7  2  0  0  0
  7 20  1  0  0  0
 20 22  1  0  0  0
 22 23  2  0  0  0
 23 24  1  0  0  0
 24 25  2  0  0  0
 25 28  1  0  0  0
 28 29  1  0  0  0
 29 30  1  0  0  0
 30 31  1  0  0  0
 31 32  1  0  0  0
 32 33  1  0  0  0
 33 34  1  0  0  0
 34 35  1  0  0  0
 25 26  1  0  0  0
 26 27  2  0  0  0
  7  8  1  0  0  0
  8  9  2  0  0  0
  9 10  1  0  0  0
 10 11  2  0  0  0
 19 13  1  0  0  0
 11  1  1  0  0  0
 10  5  1  0  0  0
 27 22  1  0  0  0
 35 31  1  0  0  0
 20 21  1  0  0  0
M  END
> <minimizedAffinity>
-9.12325

> <CNNscore>
0.5868898630

> <CNNaffinity>
7.4399046898

> <CNN_VS>
4.3664045334

> <CNNaffinity_variance>
0.4378110766

$$$$
[H]c1c([H])c(C([H])([H])[H])c(-c2c([H])c(C([H])([H])[H])c3nc(N([H])c4c([H])c([H])c(OC([H])([H])C([H])([H])N5C([H])([H])C([H])([H])C([H])([H])C5([H])[H])c([H])c4[H])nnc3c2[H])c(C([H])([H])[H])c1[H]


 35 39  0  0  0  0  0  0  0  0999 V2000
  -17.3839   14.4559  -23.9433 C   0  0  0  0  0  0  0  0  0  0  0  0
  -18.2588   15.3415  -23.3363 C   0  0  0  0  0  0  0  0  0  0  0  0
  -18.6809   15.0767  -22.0737 C   0  0  0  0  0  0  0  0  0  0  0  0
  -19.6248   16.0100  -21.3928 C   0  0  0  0  0  0  0  0  0  0  0  0
  -18.2803   13.9636  -21.3595 C   0  0  0  0  0  0  0  0  0  0  0  0
  -18.6751   13.6824  -20.1086 N   0  0  0  0  0  0  0  0  0  0  0  0
  -18.2817   12.6165  -19.4271 C   0  0  0  0  0  0  0  0  0  0  0  0
  -17.4282   11.7855  -20.0709 N   0  0  0  0  0  0  0  0  0  0  0  0
  -16.9819   11.9642  -21.2861 N   0  0  0  0  0  0  0  0  0  0  0  0
  -17.4061   13.0646  -21.9491 C   0  0  0  0  0  0  0  0  0  0  0  0
  -16.9810   13.3344  -23.2255 C   0  0  0  0  0  0  0  0  0  0  0  0
  -17.9983   12.5748  -25.9462 C   0  0  0  0  0  0  0  0  0  0  0  0
  -17.1545   13.7343  -26.2836 C   0  0  0  0  0  0  0  0  0  0  0  0
  -16.6838   13.8908  -27.5666 C   0  0  0  0  0  0  0  0  0  0  0  0
  -15.8930   14.9747  -27.8921 C   0  0  0  0  0  0  0  0  0  0  0  0
  -15.5847   15.8913  -26.9172 C   0  0  0  0  0  0  0  0  0  0  0  0
  -16.0726   15.7202  -25.6074 C   0  0  0  0  0  0  0  0  0  0  0  0
  -15.7242   16.7243  -24.5705 C   0  0  0  0  0  0  0  0  0  0  0  0
  -16.8546   14.6513  -25.2797 C   0  0  0  0  0  0  0  0  0  0  0  0
  -18.6796   12.3237  -18.1282 N   0  0  0  0  0  0  0  0  0  0  0  0
  -18.7908   13.1980  -17.4928 H   0  0  0  0  0  0  0  0  0  0  0  0
  -18.9572   11.0688  -17.5439 C   0  0  0  0  0  0  0  0  0  0  0  0
  -20.0572   10.9786  -16.7008 C   0  0  0  0  0  0  0  0  0  0  0  0
  -20.4584    9.8274  -16.0671 C   0  0  0  0  0  0  0  0  0  0  0  0
  -19.7199    8.6612  -16.2749 C   0  0  0  0  0  0  0  0  0  0  0  0
  -18.6251    8.7135  -17.1029 C   0  0  0  0  0  0  0  0  0  0  0  0
  -18.2509    9.9083  -17.7293 C   0  0  0  0  0  0  0  0  0  0  0  0
  -20.1117    7.4947  -15.6430 O   0  0  0  0  0  0  0  0  0  0  0  0
  -21.0587    7.5133  -14.6229 C   0  0  0  0  0  0  0  0  0  0  0  0
  -20.3771    7.4808  -13.2777 C   0  0  0  0  0  0  0  0  0  0  0  0
  -20.9689    6.5285  -12.3983 N   0  0  0  0  0  0  0  0  0  0  0  0
  -22.1884    6.0057  -12.9817 C   0  0  0  0  0  0  0  0  0  0  0  0
  -23.2815    6.1328  -11.9442 C   0  0  0  0  0  0  0  0  0  0  0  0
  -22.4511    6.0954  -10.6523 C   0  0  0  0  0  0  0  0  0  0  0  0
  -21.2996    7.0087  -11.0936 C   0  0  0  0  0  0  0  0  0  0  0  0
 12 13  1  0  0  0
 13 14  2  0  0  0
 14 15  1  0  0  0
 15 16  2  0  0  0
 16 17  1  0  0  0
 17 18  1  0  0  0
 17 19  2  0  0  0
 19  1  1  0  0  0
  1  2  2  0  0  0
  2  3  1  0  0  0
  3  4  1  0  0  0
  3  5  2  0  0  0
  5  6  1  0  0  0
  6  7  2  0  0  0
  7 20  1  0  0  0
 20 22  1  0  0  0
 22 23  2  0  0  0
 23 24  1  0  0  0
 24 25  2  0  0  0
 25 28  1  0  0  0
 28 29  1  0  0  0
 29 30  1  0  0  0
 30 31  1  0  0  0
 31 32  1  0  0  0
 32 33  1  0  0  0
 33 34  1  0  0  0
 34 35  1  0  0  0
 25 26  1  0  0  0
 26 27  2  0  0  0
  7  8  1  0  0  0
  8  9  2  0  0  0
  9 10  1  0  0  0
 10 11  2  0  0  0
 19 13  1  0  0  0
 11  1  1  0  0  0
 10  5  1  0  0  0
 27 22  1  0  0  0
 35 31  1  0  0  0
 20 21  1  0  0  0
M  END
> <minimizedAffinity>
-8.98343

> <CNNscore>
0.4785979986

> <CNNaffinity>
6.8733763695

> <CNN_VS>
3.2895841599

> <CNNaffinity_variance>
0.3266944885

$$$$
[H]C(=C1C(=O)N([H])c2c([H])c([H])c([H])c([H])c21)c1c(-c2c([H])c([H])c([H])c([H])c2[N+](=O)[O-])nn([H])c1[H]


 27 30  0  0  0  0  0  0  0  0999 V2000
  -15.8298   13.3400  -23.1900 C   0  0  0  0  0  0  0  0  0  0  0  0
  -14.7927   12.5822  -23.6352 N   0  0  0  0  0  0  0  0  0  0  0  0
  -14.8704   11.4032  -23.1012 N   0  0  0  0  0  0  0  0  0  0  0  0
  -15.9382   11.3096  -22.2890 C   0  0  0  0  0  0  0  0  0  0  0  0
  -16.5768   12.5227  -22.3178 C   0  0  0  0  0  0  0  0  0  0  0  0
  -14.1723   10.6435  -23.3004 H   0  0  0  0  0  0  0  0  0  0  0  0
  -17.7400   12.9593  -21.5959 C   0  0  0  0  0  0  0  0  0  0  0  0
  -18.0228   12.6688  -20.3422 C   0  0  0  0  0  0  0  0  0  0  0  0
  -17.3028   11.8681  -19.3652 C   0  0  0  0  0  0  0  0  0  0  0  0
  -16.2346   11.2328  -19.5115 O   0  0  0  0  0  0  0  0  0  0  0  0
  -18.0398   11.9075  -18.1210 N   0  0  0  0  0  0  0  0  0  0  0  0
  -19.1836   12.7095  -18.3237 C   0  0  0  0  0  0  0  0  0  0  0  0
  -20.2030   13.0474  -17.4092 C   0  0  0  0  0  0  0  0  0  0  0  0
  -21.2343   13.8454  -17.7991 C   0  0  0  0  0  0  0  0  0  0  0  0
  -21.2462   14.3026  -19.0976 C   0  0  0  0  0  0  0  0  0  0  0  0
  -20.2657   13.9853  -19.9987 C   0  0  0  0  0  0  0  0  0  0  0  0
  -19.2120   13.1749  -19.6121 C   0  0  0  0  0  0  0  0  0  0  0  0
  -17.7913   11.4374  -17.2259 H   0  0  0  0  0  0  0  0  0  0  0  0
  -16.8133   15.0304  -24.6745 C   0  0  0  0  0  0  0  0  0  0  0  0
  -17.1469   16.3764  -24.9173 C   0  0  0  0  0  0  0  0  0  0  0  0
  -16.8318   17.3714  -24.0284 C   0  0  0  0  0  0  0  0  0  0  0  0
  -16.1735   17.0623  -22.8645 C   0  0  0  0  0  0  0  0  0  0  0  0
  -15.8544   15.7421  -22.6390 C   0  0  0  0  0  0  0  0  0  0  0  0
  -16.1576   14.7179  -23.5132 C   0  0  0  0  0  0  0  0  0  0  0  0
  -18.1914   13.2135  -25.4390 O   0  0  0  0  0  0  0  0  0  0  0  0
  -17.1844   14.0893  -25.6712 N   0  0  0  0  0  0  0  0  0  0  0  0
  -16.5771   14.0804  -26.7563 O   0  0  0  0  0  0  0  0  0  0  0  0
 25 26  1  0  0  0
 26 27  2  0  0  0
 26 19  1  0  0  0
 19 20  2  0  0  0
 20 21  1  0  0  0
 21 22  2  0  0  0
 22 23  1  0  0  0
 23 24  2  0  0  0
 24  1  1  0  0  0
  1  2  2  0  0  0
  2  3  1  0  0  0
  3  4  1  0  0  0
  4  5  2  0  0  0
  5  7  1  0  0  0
  7  8  2  0  0  0
  8  9  1  0  0  0
  9 10  2  0  0  0
  9 11  1  0  0  0
 11 12  1  0  0  0
 12 13  2  0  0  0
 13 14  1  0  0  0
 14 15  2  0  0  0
 15 16  1  0  0  0
 16 17  2  0  0  0
 24 19  1  0  0  0
  5  1  1  0  0  0
 17  8  1  0  0  0
 17 12  1  0  0  0
  3  6  1  0  0  0
 11 18  1  0  0  0
M  CHG 1  25  -1
M  CHG 1  26   1
M  END
> <minimizedAffinity>
-8.79697

> <CNNscore>
0.8050869703

> <CNNaffinity>
6.6334886551

> <CNN_VS>
5.3405351639

> <CNNaffinity_variance>
0.1931423247

$$$$
[H]C(=C1C(=O)N([H])c2c([H])c([H])c([H])c([H])c21)c1c(-c2c([H])c([H])c([H])c([H])c2[N+](=O)[O-])nn([H])c1[H]


 27 30  0  0  0  0  0  0  0  0999 V2000
  -16.1657   14.7204  -22.8948 C   0  0  0  0  0  0  0  0  0  0  0  0
  -15.3926   14.6157  -24.0082 N   0  0  0  0  0  0  0  0  0  0  0  0
  -15.3410   13.3722  -24.3719 N   0  0  0  0  0  0  0  0  0  0  0  0
  -16.0595   12.5953  -23.5420 C   0  0  0  0  0  0  0  0  0  0  0  0
  -16.6019   13.4159  -22.5868 C   0  0  0  0  0  0  0  0  0  0  0  0
  -14.7986   13.0494  -25.2121 H   0  0  0  0  0  0  0  0  0  0  0  0
  -17.4130   13.0807  -21.4490 C   0  0  0  0  0  0  0  0  0  0  0  0
  -17.2748   12.0105  -20.6927 C   0  0  0  0  0  0  0  0  0  0  0  0
  -16.3303   10.9077  -20.7680 C   0  0  0  0  0  0  0  0  0  0  0  0
  -15.4282   10.7088  -21.6121 O   0  0  0  0  0  0  0  0  0  0  0  0
  -16.5954   10.0129  -19.6626 N   0  0  0  0  0  0  0  0  0  0  0  0
  -17.6740   10.5475  -18.9254 C   0  0  0  0  0  0  0  0  0  0  0  0
  -18.2926   10.0393  -17.7640 C   0  0  0  0  0  0  0  0  0  0  0  0
  -19.3297   10.7103  -17.1924 C   0  0  0  0  0  0  0  0  0  0  0  0
  -19.7464   11.8835  -17.7800 C   0  0  0  0  0  0  0  0  0  0  0  0
  -19.1580   12.3918  -18.9067 C   0  0  0  0  0  0  0  0  0  0  0  0
  -18.1021   11.7175  -19.4956 C   0  0  0  0  0  0  0  0  0  0  0  0
  -16.0950    9.1293  -19.4327 H   0  0  0  0  0  0  0  0  0  0  0  0
  -17.3262   16.8719  -22.6656 C   0  0  0  0  0  0  0  0  0  0  0  0
  -17.6669   17.9806  -21.8678 C   0  0  0  0  0  0  0  0  0  0  0  0
  -17.2053   18.1172  -20.5841 C   0  0  0  0  0  0  0  0  0  0  0  0
  -16.3880   17.1540  -20.0475 C   0  0  0  0  0  0  0  0  0  0  0  0
  -16.0637   16.0744  -20.8381 C   0  0  0  0  0  0  0  0  0  0  0  0
  -16.5119   15.9078  -22.1329 C   0  0  0  0  0  0  0  0  0  0  0  0
  -17.1699   17.4016  -25.0064 O   0  0  0  0  0  0  0  0  0  0  0  0
  -17.8581   16.8432  -23.9821 N   0  0  0  0  0  0  0  0  0  0  0  0
  -18.9585   16.2996  -24.1823 O   0  0  0  0  0  0  0  0  0  0  0  0
 25 26  1  0  0  0
 26 27  2  0  0  0
 26 19  1  0  0  0
 19 20  2  0  0  0
 20 21  1  0  0  0
 21 22  2  0  0  0
 22 23  1  0  0  0
 23 24  2  0  0  0
 24  1  1  0  0  0
  1  2  2  0  0  0
  2  3  1  0  0  0
  3  4  1  0  0  0
  4  5  2  0  0  0
  5  7  1  0  0  0
  7  8  2  0  0  0
  8  9  1  0  0  0
  9 10  2  0  0  0
  9 11  1  0  0  0
 11 12  1  0  0  0
 12 13  2  0  0  0
 13 14  1  0  0  0
 14 15  2  0  0  0
 15 16  1  0  0  0
 16 17  2  0  0  0
 24 19  1  0  0  0
  5  1  1  0  0  0
 17  8  1  0  0  0
 17 12  1  0  0  0
  3  6  1  0  0  0
 11 18  1  0  0  0
M  CHG 1  25  -1
M  CHG 1  26   1
M  END
> <minimizedAffinity>
-9.29934

> <CNNscore>
0.6336317062

> <CNNaffinity>
6.5640268326

> <CNN_VS>
4.1591753960

> <CNNaffinity_variance>
0.1601093709

$$$$
[H]C(=C1C(=O)N([H])c2c([H])c([H])c([H])c([H])c21)c1c(-c2c([H])c([H])c([H])c([H])c2[N+](=O)[O-])nn([H])c1[H]


 27 30  0  0  0  0  0  0  0  0999 V2000
  -17.5660   16.8124  -23.8307 C   0  0  0  0  0  0  0  0  0  0  0  0
  -17.0906   17.5595  -24.8622 N   0  0  0  0  0  0  0  0  0  0  0  0
  -16.3130   16.8240  -25.5940 N   0  0  0  0  0  0  0  0  0  0  0  0
  -16.2275   15.5744  -25.1042 C   0  0  0  0  0  0  0  0  0  0  0  0
  -17.0119   15.5250  -23.9806 C   0  0  0  0  0  0  0  0  0  0  0  0
  -15.8293   17.1899  -26.4521 H   0  0  0  0  0  0  0  0  0  0  0  0
  -17.2306   14.4377  -23.0671 C   0  0  0  0  0  0  0  0  0  0  0  0
  -16.4682   13.3701  -22.9433 C   0  0  0  0  0  0  0  0  0  0  0  0
  -15.2559   12.9801  -23.6449 C   0  0  0  0  0  0  0  0  0  0  0  0
  -14.6641   13.5771  -24.5718 O   0  0  0  0  0  0  0  0  0  0  0  0
  -14.7995   11.7247  -23.0894 N   0  0  0  0  0  0  0  0  0  0  0  0
  -15.7050   11.3491  -22.0737 C   0  0  0  0  0  0  0  0  0  0  0  0
  -15.6836   10.2084  -21.2442 C   0  0  0  0  0  0  0  0  0  0  0  0
  -16.6567   10.0236  -20.3107 C   0  0  0  0  0  0  0  0  0  0  0  0
  -17.6466   10.9748  -20.2078 C   0  0  0  0  0  0  0  0  0  0  0  0
  -17.6833   12.0880  -21.0039 C   0  0  0  0  0  0  0  0  0  0  0  0
  -16.6981   12.2857  -21.9561 C   0  0  0  0  0  0  0  0  0  0  0  0
  -13.9592   11.1787  -23.3718 H   0  0  0  0  0  0  0  0  0  0  0  0
  -18.0001   17.4173  -21.4910 C   0  0  0  0  0  0  0  0  0  0  0  0
  -18.9088   17.8387  -20.5019 C   0  0  0  0  0  0  0  0  0  0  0  0
  -20.2374   18.0355  -20.7768 C   0  0  0  0  0  0  0  0  0  0  0  0
  -20.7096   17.8207  -22.0474 C   0  0  0  0  0  0  0  0  0  0  0  0
  -19.8100   17.4101  -23.0054 C   0  0  0  0  0  0  0  0  0  0  0  0
  -18.4675   17.2033  -22.7607 C   0  0  0  0  0  0  0  0  0  0  0  0
  -15.7429   18.2239  -21.2928 O   0  0  0  0  0  0  0  0  0  0  0  0
  -16.6505   17.2397  -21.0863 N   0  0  0  0  0  0  0  0  0  0  0  0
  -16.3138   16.1743  -20.5404 O   0  0  0  0  0  0  0  0  0  0  0  0
 25 26  1  0  0  0
 26 27  2  0  0  0
 26 19  1  0  0  0
 19 20  2  0  0  0
 20 21  1  0  0  0
 21 22  2  0  0  0
 22 23  1  0  0  0
 23 24  2  0  0  0
 24  1  1  0  0  0
  1  2  2  0  0  0
  2  3  1  0  0  0
  3  4  1  0  0  0
  4  5  2  0  0  0
  5  7  1  0  0  0
  7  8  2  0  0  0
  8  9  1  0  0  0
  9 10  2  0  0  0
  9 11  1  0  0  0
 11 12  1  0  0  0
 12 13  2  0  0  0
 13 14  1  0  0  0
 14 15  2  0  0  0
 15 16  1  0  0  0
 16 17  2  0  0  0
 24 19  1  0  0  0
  5  1  1  0  0  0
 17  8  1  0  0  0
 17 12  1  0  0  0
  3  6  1  0  0  0
 11 18  1  0  0  0
M  CHG 1  25  -1
M  CHG 1  26   1
M  END
> <minimizedAffinity>
-8.70949

> <CNNscore>
0.5021180511

> <CNNaffinity>
6.4686231613

> <CNN_VS>
3.2480125427

> <CNNaffinity_variance>
0.1394498646

$$$$
[H]C(=C1C(=O)N([H])c2c([H])c([H])c([H])c([H])c21)c1c(-c2c([H])c([H])c([H])c([H])c2[N+](=O)[O-])nn([H])c1[H]


 27 30  0  0  0  0  0  0  0  0999 V2000
  -16.8848   16.7205  -24.0024 C   0  0  0  0  0  0  0  0  0  0  0  0
  -16.5983   17.3325  -25.1819 N   0  0  0  0  0  0  0  0  0  0  0  0
  -16.5512   16.4399  -26.1212 N   0  0  0  0  0  0  0  0  0  0  0  0
  -16.7978   15.2112  -25.6335 C   0  0  0  0  0  0  0  0  0  0  0  0
  -17.0161   15.3461  -24.2865 C   0  0  0  0  0  0  0  0  0  0  0  0
  -16.3448   16.6814  -27.1229 H   0  0  0  0  0  0  0  0  0  0  0  0
  -17.2780   14.3362  -23.2985 C   0  0  0  0  0  0  0  0  0  0  0  0
  -16.5120   13.2960  -23.0380 C   0  0  0  0  0  0  0  0  0  0  0  0
  -15.2540   12.8690  -23.6289 C   0  0  0  0  0  0  0  0  0  0  0  0
  -14.6132   13.3957  -24.5658 O   0  0  0  0  0  0  0  0  0  0  0  0
  -14.8180   11.6730  -22.9418 N   0  0  0  0  0  0  0  0  0  0  0  0
  -15.7800   11.3691  -21.9544 C   0  0  0  0  0  0  0  0  0  0  0  0
  -15.7965   10.3030  -21.0309 C   0  0  0  0  0  0  0  0  0  0  0  0
  -16.8232   10.1811  -20.1458 C   0  0  0  0  0  0  0  0  0  0  0  0
  -17.8289   11.1205  -20.1847 C   0  0  0  0  0  0  0  0  0  0  0  0
  -17.8295   12.1616  -21.0736 C   0  0  0  0  0  0  0  0  0  0  0  0
  -16.7896   12.2951  -21.9777 C   0  0  0  0  0  0  0  0  0  0  0  0
  -13.9553   11.1197  -23.1250 H   0  0  0  0  0  0  0  0  0  0  0  0
  -18.1204   18.0984  -22.3890 C   0  0  0  0  0  0  0  0  0  0  0  0
  -18.2458   18.6065  -21.0821 C   0  0  0  0  0  0  0  0  0  0  0  0
  -17.3203   18.3340  -20.1081 C   0  0  0  0  0  0  0  0  0  0  0  0
  -16.2361   17.5447  -20.3997 C   0  0  0  0  0  0  0  0  0  0  0  0
  -16.1263   17.0533  -21.6812 C   0  0  0  0  0  0  0  0  0  0  0  0
  -17.0403   17.3090  -22.6833 C   0  0  0  0  0  0  0  0  0  0  0  0
  -20.1859   17.6241  -23.5261 O   0  0  0  0  0  0  0  0  0  0  0  0
  -19.1370   18.4546  -23.3144 N   0  0  0  0  0  0  0  0  0  0  0  0
  -19.0535   19.5350  -23.9243 O   0  0  0  0  0  0  0  0  0  0  0  0
 25 26  1  0  0  0
 26 27  2  0  0  0
 26 19  1  0  0  0
 19 20  2  0  0  0
 20 21  1  0  0  0
 21 22  2  0  0  0
 22 23  1  0  0  0
 23 24  2  0  0  0
 24  1  1  0  0  0
  1  2  2  0  0  0
  2  3  1  0  0  0
  3  4  1  0  0  0
  4  5  2  0  0  0
  5  7  1  0  0  0
  7  8  2  0  0  0
  8  9  1  0  0  0
  9 10  2  0  0  0
  9 11  1  0  0  0
 11 12  1  0  0  0
 12 13  2  0  0  0
 13 14  1  0  0  0
 14 15  2  0  0  0
 15 16  1  0  0  0
 16 17  2  0  0  0
 24 19  1  0  0  0
  5  1  1  0  0  0
 17  8  1  0  0  0
 17 12  1  0  0  0
  3  6  1  0  0  0
 11 18  1  0  0  0
M  CHG 1  25  -1
M  CHG 1  26   1
M  END
> <minimizedAffinity>
-9.15805

> <CNNscore>
0.4617922306

> <CNNaffinity>
6.3600587845

> <CNN_VS>
2.9370257854

> <CNNaffinity_variance>
0.3682087958

$$$$
[H]C(=C1C(=O)N([H])c2c([H])c([H])c([H])c([H])c21)c1c(-c2c([H])c([H])c([H])c([H])c2[N+](=O)[O-])nn([H])c1[H]


 27 30  0  0  0  0  0  0  0  0999 V2000
  -16.9858   12.7654  -21.8165 C   0  0  0  0  0  0  0  0  0  0  0  0
  -16.4461   11.7334  -22.5178 N   0  0  0  0  0  0  0  0  0  0  0  0
  -15.6183   12.2062  -23.3966 N   0  0  0  0  0  0  0  0  0  0  0  0
  -15.5599   13.5483  -23.3331 C   0  0  0  0  0  0  0  0  0  0  0  0
  -16.4164   13.9445  -22.3383 C   0  0  0  0  0  0  0  0  0  0  0  0
  -15.0794   11.5909  -24.0564 H   0  0  0  0  0  0  0  0  0  0  0  0
  -16.7537   15.2702  -21.8985 C   0  0  0  0  0  0  0  0  0  0  0  0
  -17.6158   16.0792  -22.4806 C   0  0  0  0  0  0  0  0  0  0  0  0
  -18.4345   15.9015  -23.6689 C   0  0  0  0  0  0  0  0  0  0  0  0
  -18.4827   14.9204  -24.4441 O   0  0  0  0  0  0  0  0  0  0  0  0
  -19.2361   17.0929  -23.8444 N   0  0  0  0  0  0  0  0  0  0  0  0
  -18.9209   17.9822  -22.7944 C   0  0  0  0  0  0  0  0  0  0  0  0
  -19.4415   19.2671  -22.5342 C   0  0  0  0  0  0  0  0  0  0  0  0
  -19.0069   19.9754  -21.4563 C   0  0  0  0  0  0  0  0  0  0  0  0
  -18.0558   19.4016  -20.6431 C   0  0  0  0  0  0  0  0  0  0  0  0
  -17.5395   18.1560  -20.8798 C   0  0  0  0  0  0  0  0  0  0  0  0
  -17.9751   17.4270  -21.9730 C   0  0  0  0  0  0  0  0  0  0  0  0
  -19.9265   17.2827  -24.6004 H   0  0  0  0  0  0  0  0  0  0  0  0
  -17.7862   11.8798  -19.6709 C   0  0  0  0  0  0  0  0  0  0  0  0
  -18.7316   11.9137  -18.6283 C   0  0  0  0  0  0  0  0  0  0  0  0
  -19.8073   12.7631  -18.6546 C   0  0  0  0  0  0  0  0  0  0  0  0
  -19.9806   13.6108  -19.7200 C   0  0  0  0  0  0  0  0  0  0  0  0
  -19.0482   13.5683  -20.7320 C   0  0  0  0  0  0  0  0  0  0  0  0
  -17.9552   12.7254  -20.7352 C   0  0  0  0  0  0  0  0  0  0  0  0
  -16.7483    9.7784  -20.2104 O   0  0  0  0  0  0  0  0  0  0  0  0
  -16.7185   10.9532  -19.5368 N   0  0  0  0  0  0  0  0  0  0  0  0
  -15.7586   11.2334  -18.7975 O   0  0  0  0  0  0  0  0  0  0  0  0
 25 26  1  0  0  0
 26 27  2  0  0  0
 26 19  1  0  0  0
 19 20  2  0  0  0
 20 21  1  0  0  0
 21 22  2  0  0  0
 22 23  1  0  0  0
 23 24  2  0  0  0
 24  1  1  0  0  0
  1  2  2  0  0  0
  2  3  1  0  0  0
  3  4  1  0  0  0
  4  5  2  0  0  0
  5  7  1  0  0  0
  7  8  2  0  0  0
  8  9  1  0  0  0
  9 10  2  0  0  0
  9 11  1  0  0  0
 11 12  1  0  0  0
 12 13  2  0  0  0
 13 14  1  0  0  0
 14 15  2  0  0  0
 15 16  1  0  0  0
 16 17  2  0  0  0
 24 19  1  0  0  0
  5  1  1  0  0  0
 17  8  1  0  0  0
 17 12  1  0  0  0
  3  6  1  0  0  0
 11 18  1  0  0  0
M  CHG 1  25  -1
M  CHG 1  26   1
M  END
> <minimizedAffinity>
-7.71975

> <CNNscore>
0.3578676283

> <CNNaffinity>
6.1426262856

> <CNN_VS>
2.1982471943

> <CNNaffinity_variance>
0.2464250326

$$$$
[H]C(=C1C(=O)N([H])c2c([H])c([H])c([H])c([H])c21)c1c(-c2c([H])c([H])c([H])c([H])c2[N+](=O)[O-])nn([H])c1[H]


 27 30  0  0  0  0  0  0  0  0999 V2000
  -16.4385   13.4696  -23.4699 C   0  0  0  0  0  0  0  0  0  0  0  0
  -15.9202   12.3372  -22.9248 N   0  0  0  0  0  0  0  0  0  0  0  0
  -16.5915   12.0360  -21.8572 N   0  0  0  0  0  0  0  0  0  0  0  0
  -17.5723   12.9287  -21.6347 C   0  0  0  0  0  0  0  0  0  0  0  0
  -17.5095   13.8588  -22.6402 C   0  0  0  0  0  0  0  0  0  0  0  0
  -16.3703   11.1952  -21.2668 H   0  0  0  0  0  0  0  0  0  0  0  0
  -18.3032   15.0394  -22.8426 C   0  0  0  0  0  0  0  0  0  0  0  0
  -18.0501   16.2328  -22.3445 C   0  0  0  0  0  0  0  0  0  0  0  0
  -16.9694   16.6975  -21.4899 C   0  0  0  0  0  0  0  0  0  0  0  0
  -16.0251   16.0398  -20.9983 O   0  0  0  0  0  0  0  0  0  0  0  0
  -17.1488   18.1160  -21.2701 N   0  0  0  0  0  0  0  0  0  0  0  0
  -18.3082   18.5165  -21.9686 C   0  0  0  0  0  0  0  0  0  0  0  0
  -18.8894   19.7985  -22.0608 C   0  0  0  0  0  0  0  0  0  0  0  0
  -20.0205   19.9851  -22.7945 C   0  0  0  0  0  0  0  0  0  0  0  0
  -20.5679   18.8947  -23.4323 C   0  0  0  0  0  0  0  0  0  0  0  0
  -20.0177   17.6436  -23.3543 C   0  0  0  0  0  0  0  0  0  0  0  0
  -18.8670   17.4431  -22.6112 C   0  0  0  0  0  0  0  0  0  0  0  0
  -16.5454   18.7475  -20.7032 H   0  0  0  0  0  0  0  0  0  0  0  0
  -16.5532   13.8742  -25.8889 C   0  0  0  0  0  0  0  0  0  0  0  0
  -16.1457   14.6252  -27.0077 C   0  0  0  0  0  0  0  0  0  0  0  0
  -15.2351   15.6445  -26.9021 C   0  0  0  0  0  0  0  0  0  0  0  0
  -14.6974   15.9540  -25.6778 C   0  0  0  0  0  0  0  0  0  0  0  0
  -15.1055   15.2126  -24.5919 C   0  0  0  0  0  0  0  0  0  0  0  0
  -16.0197   14.1812  -24.6652 C   0  0  0  0  0  0  0  0  0  0  0  0
  -18.7643   12.9556  -25.6614 O   0  0  0  0  0  0  0  0  0  0  0  0
  -17.4960   12.8382  -26.1224 N   0  0  0  0  0  0  0  0  0  0  0  0
  -17.1446   11.8265  -26.7544 O   0  0  0  0  0  0  0  0  0  0  0  0
 25 26  1  0  0  0
 26 27  2  0  0  0
 26 19  1  0  0  0
 19 20  2  0  0  0
 20 21  1  0  0  0
 21 22  2  0  0  0
 22 23  1  0  0  0
 23 24  2  0  0  0
 24  1  1  0  0  0
  1  2  2  0  0  0
  2  3  1  0  0  0
  3  4  1  0  0  0
  4  5  2  0  0  0
  5  7  1  0  0  0
  7  8  2  0  0  0
  8  9  1  0  0  0
  9 10  2  0  0  0
  9 11  1  0  0  0
 11 12  1  0  0  0
 12 13  2  0  0  0
 13 14  1  0  0  0
 14 15  2  0  0  0
 15 16  1  0  0  0
 16 17  2  0  0  0
 24 19  1  0  0  0
  5  1  1  0  0  0
 17  8  1  0  0  0
 17 12  1  0  0  0
  3  6  1  0  0  0
 11 18  1  0  0  0
M  CHG 1  25  -1
M  CHG 1  26   1
M  END
> <minimizedAffinity>
-8.12781

> <CNNscore>
0.3576283157

> <CNNaffinity>
6.1236667633

> <CNN_VS>
2.1899967194

> <CNNaffinity_variance>
0.2674010694

$$$$
[H]C(=C1C(=O)N([H])c2c([H])c([H])c([H])c([H])c21)c1c(-c2c([H])c([H])c([H])c([H])c2[N+](=O)[O-])nn([H])c1[H]


 27 30  0  0  0  0  0  0  0  0999 V2000
  -16.0654   13.1991  -23.1943 C   0  0  0  0  0  0  0  0  0  0  0  0
  -15.9148   11.8772  -22.9150 N   0  0  0  0  0  0  0  0  0  0  0  0
  -16.4443   11.6262  -21.7584 N   0  0  0  0  0  0  0  0  0  0  0  0
  -16.9657   12.7396  -21.2133 C   0  0  0  0  0  0  0  0  0  0  0  0
  -16.7457   13.7647  -22.0969 C   0  0  0  0  0  0  0  0  0  0  0  0
  -16.4478   10.6653  -21.3330 H   0  0  0  0  0  0  0  0  0  0  0  0
  -17.0669   15.1599  -21.9748 C   0  0  0  0  0  0  0  0  0  0  0  0
  -18.1799   15.6531  -21.4703 C   0  0  0  0  0  0  0  0  0  0  0  0
  -19.3521   14.9898  -20.9227 C   0  0  0  0  0  0  0  0  0  0  0  0
  -19.5842   13.7634  -20.8324 O   0  0  0  0  0  0  0  0  0  0  0  0
  -20.2740   16.0083  -20.4694 N   0  0  0  0  0  0  0  0  0  0  0  0
  -19.6880   17.2658  -20.7303 C   0  0  0  0  0  0  0  0  0  0  0  0
  -20.1985   18.5540  -20.4658 C   0  0  0  0  0  0  0  0  0  0  0  0
  -19.4723   19.6575  -20.7930 C   0  0  0  0  0  0  0  0  0  0  0  0
  -18.2418   19.4737  -21.3825 C   0  0  0  0  0  0  0  0  0  0  0  0
  -17.7304   18.2315  -21.6463 C   0  0  0  0  0  0  0  0  0  0  0  0
  -18.4606   17.1025  -21.3169 C   0  0  0  0  0  0  0  0  0  0  0  0
  -21.2059   15.8640  -20.0282 H   0  0  0  0  0  0  0  0  0  0  0  0
  -16.4871   14.1338  -25.4252 C   0  0  0  0  0  0  0  0  0  0  0  0
  -16.0360   14.8956  -26.5197 C   0  0  0  0  0  0  0  0  0  0  0  0
  -14.7776   15.4384  -26.5537 C   0  0  0  0  0  0  0  0  0  0  0  0
  -13.9223   15.2431  -25.4982 C   0  0  0  0  0  0  0  0  0  0  0  0
  -14.3765   14.4972  -24.4338 C   0  0  0  0  0  0  0  0  0  0  0  0
  -15.6367   13.9379  -24.3693 C   0  0  0  0  0  0  0  0  0  0  0  0
  -18.8426   14.3062  -24.9712 O   0  0  0  0  0  0  0  0  0  0  0  0
  -17.8070   13.6162  -25.5062 N   0  0  0  0  0  0  0  0  0  0  0  0
  -17.9999   12.5267  -26.0739 O   0  0  0  0  0  0  0  0  0  0  0  0
 25 26  1  0  0  0
 26 27  2  0  0  0
 26 19  1  0  0  0
 19 20  2  0  0  0
 20 21  1  0  0  0
 21 22  2  0  0  0
 22 23  1  0  0  0
 23 24  2  0  0  0
 24  1  1  0  0  0
  1  2  2  0  0  0
  2  3  1  0  0  0
  3  4  1  0  0  0
  4  5  2  0  0  0
  5  7  1  0  0  0
  7  8  2  0  0  0
  8  9  1  0  0  0
  9 10  2  0  0  0
  9 11  1  0  0  0
 11 12  1  0  0  0
 12 13  2  0  0  0
 13 14  1  0  0  0
 14 15  2  0  0  0
 15 16  1  0  0  0
 16 17  2  0  0  0
 24 19  1  0  0  0
  5  1  1  0  0  0
 17  8  1  0  0  0
 17 12  1  0  0  0
  3  6  1  0  0  0
 11 18  1  0  0  0
M  CHG 1  25  -1
M  CHG 1  26   1
M  END
> <minimizedAffinity>
-8.16151

> <CNNscore>
0.3185748458

> <CNNaffinity>
6.1540789604

> <CNN_VS>
1.9605348110

> <CNNaffinity_variance>
0.3194125295

$$$$
[H]C(=C1C(=O)N([H])c2c([H])c([H])c([H])c([H])c21)c1c(-c2c([H])c([H])c([H])c([H])c2[N+](=O)[O-])nn([H])c1[H]


 27 30  0  0  0  0  0  0  0  0999 V2000
  -17.9125   16.8367  -20.3242 C   0  0  0  0  0  0  0  0  0  0  0  0
  -17.4259   17.9144  -19.6534 N   0  0  0  0  0  0  0  0  0  0  0  0
  -16.3658   18.3477  -20.2613 N   0  0  0  0  0  0  0  0  0  0  0  0
  -16.0914   17.6018  -21.3462 C   0  0  0  0  0  0  0  0  0  0  0  0
  -17.0538   16.6281  -21.4224 C   0  0  0  0  0  0  0  0  0  0  0  0
  -15.8172   19.1774  -19.9223 H   0  0  0  0  0  0  0  0  0  0  0  0
  -17.1928   15.5538  -22.3665 C   0  0  0  0  0  0  0  0  0  0  0  0
  -17.0400   15.6505  -23.6717 C   0  0  0  0  0  0  0  0  0  0  0  0
  -16.7119   16.7928  -24.5093 C   0  0  0  0  0  0  0  0  0  0  0  0
  -16.5241   17.9822  -24.1686 O   0  0  0  0  0  0  0  0  0  0  0  0
  -16.6293   16.3363  -25.8795 N   0  0  0  0  0  0  0  0  0  0  0  0
  -16.8995   14.9509  -25.8885 C   0  0  0  0  0  0  0  0  0  0  0  0
  -16.9337   14.0612  -26.9826 C   0  0  0  0  0  0  0  0  0  0  0  0
  -17.2140   12.7442  -26.7843 C   0  0  0  0  0  0  0  0  0  0  0  0
  -17.4597   12.3193  -25.4980 C   0  0  0  0  0  0  0  0  0  0  0  0
  -17.4307   13.1681  -24.4244 C   0  0  0  0  0  0  0  0  0  0  0  0
  -17.1460   14.5093  -24.6150 C   0  0  0  0  0  0  0  0  0  0  0  0
  -16.4120   16.9076  -26.7224 H   0  0  0  0  0  0  0  0  0  0  0  0
  -20.3192   16.3776  -20.4825 C   0  0  0  0  0  0  0  0  0  0  0  0
  -21.4078   15.5309  -20.1993 C   0  0  0  0  0  0  0  0  0  0  0  0
  -21.2563   14.3743  -19.4791 C   0  0  0  0  0  0  0  0  0  0  0  0
  -20.0148   14.0179  -19.0150 C   0  0  0  0  0  0  0  0  0  0  0  0
  -18.9589   14.8541  -19.3002 C   0  0  0  0  0  0  0  0  0  0  0  0
  -19.0784   16.0243  -20.0223 C   0  0  0  0  0  0  0  0  0  0  0  0
  -20.4771   17.5450  -22.5793 O   0  0  0  0  0  0  0  0  0  0  0  0
  -20.5995   17.5519  -21.2303 N   0  0  0  0  0  0  0  0  0  0  0  0
  -20.9590   18.5821  -20.6338 O   0  0  0  0  0  0  0  0  0  0  0  0
 25 26  1  0  0  0
 26 27  2  0  0  0
 26 19  1  0  0  0
 19 20  2  0  0  0
 20 21  1  0  0  0
 21 22  2  0  0  0
 22 23  1  0  0  0
 23 24  2  0  0  0
 24  1  1  0  0  0
  1  2  2  0  0  0
  2  3  1  0  0  0
  3  4  1  0  0  0
  4  5  2  0  0  0
  5  7  1  0  0  0
  7  8  2  0  0  0
  8  9  1  0  0  0
  9 10  2  0  0  0
  9 11  1  0  0  0
 11 12  1  0  0  0
 12 13  2  0  0  0
 13 14  1  0  0  0
 14 15  2  0  0  0
 15 16  1  0  0  0
 16 17  2  0  0  0
 24 19  1  0  0  0
  5  1  1  0  0  0
 17  8  1  0  0  0
 17 12  1  0  0  0
  3  6  1  0  0  0
 11 18  1  0  0  0
M  CHG 1  25  -1
M  CHG 1  26   1
M  END
> <minimizedAffinity>
-7.47330

> <CNNscore>
0.2677995563

> <CNNaffinity>
5.7937684059

> <CNN_VS>
1.5515686274

> <CNNaffinity_variance>
0.2574468255

$$$$
[H]C(=C1C(=O)N([H])c2c([H])c([H])c([H])c([H])c21)c1c(-c2c([H])c([H])c([H])c([H])c2[N+](=O)[O-])nn([H])c1[H]


 27 30  0  0  0  0  0  0  0  0999 V2000
  -18.1597   17.8365  -21.2925 C   0  0  0  0  0  0  0  0  0  0  0  0
  -17.6185   18.6719  -20.3666 N   0  0  0  0  0  0  0  0  0  0  0  0
  -16.4152   18.2753  -20.0910 N   0  0  0  0  0  0  0  0  0  0  0  0
  -16.0929   17.1792  -20.8004 C   0  0  0  0  0  0  0  0  0  0  0  0
  -17.1775   16.8670  -21.5791 C   0  0  0  0  0  0  0  0  0  0  0  0
  -15.7997   18.7708  -19.3983 H   0  0  0  0  0  0  0  0  0  0  0  0
  -17.3653   15.7665  -22.4837 C   0  0  0  0  0  0  0  0  0  0  0  0
  -17.0704   15.7658  -23.7680 C   0  0  0  0  0  0  0  0  0  0  0  0
  -16.5078   16.8045  -24.6157 C   0  0  0  0  0  0  0  0  0  0  0  0
  -16.1955   17.9772  -24.3103 O   0  0  0  0  0  0  0  0  0  0  0  0
  -16.3506   16.2616  -25.9473 N   0  0  0  0  0  0  0  0  0  0  0  0
  -16.8041   14.9250  -25.9233 C   0  0  0  0  0  0  0  0  0  0  0  0
  -16.8485   13.9847  -26.9739 C   0  0  0  0  0  0  0  0  0  0  0  0
  -17.3236   12.7294  -26.7481 C   0  0  0  0  0  0  0  0  0  0  0  0
  -17.7527   12.4164  -25.4780 C   0  0  0  0  0  0  0  0  0  0  0  0
  -17.7168   13.3156  -24.4465 C   0  0  0  0  0  0  0  0  0  0  0  0
  -17.2349   14.5948  -24.6652 C   0  0  0  0  0  0  0  0  0  0  0  0
  -15.9741   16.7492  -26.7866 H   0  0  0  0  0  0  0  0  0  0  0  0
  -20.5622   17.3303  -21.2771 C   0  0  0  0  0  0  0  0  0  0  0  0
  -21.8234   17.4428  -21.8923 C   0  0  0  0  0  0  0  0  0  0  0  0
  -21.9881   18.0839  -23.0928 C   0  0  0  0  0  0  0  0  0  0  0  0
  -20.9026   18.6374  -23.7245 C   0  0  0  0  0  0  0  0  0  0  0  0
  -19.6753   18.5213  -23.1113 C   0  0  0  0  0  0  0  0  0  0  0  0
  -19.4767   17.8827  -21.9039 C   0  0  0  0  0  0  0  0  0  0  0  0
  -20.2104   15.3176  -20.0083 O   0  0  0  0  0  0  0  0  0  0  0  0
  -20.5138   16.6374  -20.0384 N   0  0  0  0  0  0  0  0  0  0  0  0
  -20.7508   17.2553  -18.9856 O   0  0  0  0  0  0  0  0  0  0  0  0
 25 26  1  0  0  0
 26 27  2  0  0  0
 26 19  1  0  0  0
 19 20  2  0  0  0
 20 21  1  0  0  0
 21 22  2  0  0  0
 22 23  1  0  0  0
 23 24  2  0  0  0
 24  1  1  0  0  0
  1  2  2  0  0  0
  2  3  1  0  0  0
  3  4  1  0  0  0
  4  5  2  0  0  0
  5  7  1  0  0  0
  7  8  2  0  0  0
  8  9  1  0  0  0
  9 10  2  0  0  0
  9 11  1  0  0  0
 11 12  1  0  0  0
 12 13  2  0  0  0
 13 14  1  0  0  0
 14 15  2  0  0  0
 15 16  1  0  0  0
 16 17  2  0  0  0
 24 19  1  0  0  0
  5  1  1  0  0  0
 17  8  1  0  0  0
 17 12  1  0  0  0
  3  6  1  0  0  0
 11 18  1  0  0  0
M  CHG 1  25  -1
M  CHG 1  26   1
M  END
> <minimizedAffinity>
-7.29328

> <CNNscore>
0.2668562531

> <CNNaffinity>
5.7358374596

> <CNN_VS>
1.5306440592

> <CNNaffinity_variance>
0.2479572594

$$$$
[H]C([H])=C([H])C(=O)N([H])[C@]1([H])C([H])([H])C([H])([H])[C@]([H])(n2nc(-c3c([H])c([H])c(Oc4c([H])c([H])c([H])c([H])c4[H])c([H])c3[H])c3c(N([H])[H])nc([H])nc32)C([H])([H])C1([H])[H]


 37 41  0  0  0  0  0  0  0  0999 V2000
  -17.0171    9.6142  -19.3545 N   0  0  0  0  0  0  0  0  0  0  0  0
  -16.7725   10.6616  -20.2661 C   0  0  0  0  0  0  0  0  0  0  0  0
  -15.8868   10.5029  -21.2728 N   0  0  0  0  0  0  0  0  0  0  0  0
  -15.6648   11.4771  -22.1737 C   0  0  0  0  0  0  0  0  0  0  0  0
  -16.3193   12.6483  -22.1041 N   0  0  0  0  0  0  0  0  0  0  0  0
  -17.2213   12.8730  -21.1182 C   0  0  0  0  0  0  0  0  0  0  0  0
  -18.0024   13.9352  -20.8445 N   0  0  0  0  0  0  0  0  0  0  0  0
  -18.6959   13.6372  -19.7962 N   0  0  0  0  0  0  0  0  0  0  0  0
  -18.4061   12.3855  -19.3402 C   0  0  0  0  0  0  0  0  0  0  0  0
  -17.4548   11.8625  -20.1775 C   0  0  0  0  0  0  0  0  0  0  0  0
  -16.3027    9.3737  -18.6465 H   0  0  0  0  0  0  0  0  0  0  0  0
  -17.9039    9.0860  -19.3892 H   0  0  0  0  0  0  0  0  0  0  0  0
  -19.0289   11.7359  -18.1993 C   0  0  0  0  0  0  0  0  0  0  0  0
  -18.7706   10.4620  -17.7601 C   0  0  0  0  0  0  0  0  0  0  0  0
  -19.4331    9.9055  -16.6713 C   0  0  0  0  0  0  0  0  0  0  0  0
  -20.3879   10.6101  -15.9735 C   0  0  0  0  0  0  0  0  0  0  0  0
  -20.6646   11.8913  -16.3942 C   0  0  0  0  0  0  0  0  0  0  0  0
  -20.0079   12.4360  -17.4702 C   0  0  0  0  0  0  0  0  0  0  0  0
  -21.0478   10.0386  -14.8789 O   0  0  0  0  0  0  0  0  0  0  0  0
  -20.3496    9.7640  -13.7355 C   0  0  0  0  0  0  0  0  0  0  0  0
  -19.9540   10.7635  -12.8715 C   0  0  0  0  0  0  0  0  0  0  0  0
  -19.2521   10.4690  -11.7256 C   0  0  0  0  0  0  0  0  0  0  0  0
  -18.9519    9.1598  -11.4569 C   0  0  0  0  0  0  0  0  0  0  0  0
  -19.3391    8.1665  -12.3054 C   0  0  0  0  0  0  0  0  0  0  0  0
  -20.0412    8.4521  -13.4533 C   0  0  0  0  0  0  0  0  0  0  0  0
  -18.0335   15.1692  -21.6082 C   0  0  0  0  0  0  0  0  0  0  0  0
  -18.2823   14.8218  -23.0306 C   0  0  0  0  0  0  0  0  0  0  0  0
  -18.2204   15.9496  -24.0045 C   0  0  0  0  0  0  0  0  0  0  0  0
  -17.1761   16.9787  -23.7185 C   0  0  0  0  0  0  0  0  0  0  0  0
  -16.9458   17.2252  -22.2530 C   0  0  0  0  0  0  0  0  0  0  0  0
  -16.7028   15.8950  -21.5278 C   0  0  0  0  0  0  0  0  0  0  0  0
  -15.8917   16.6568  -24.3053 N   0  0  0  0  0  0  0  0  0  0  0  0
  -15.7092   16.1274  -25.5822 C   0  0  0  0  0  0  0  0  0  0  0  0
  -16.6930   15.8932  -26.3174 O   0  0  0  0  0  0  0  0  0  0  0  0
  -15.0536   16.8530  -23.6832 H   0  0  0  0  0  0  0  0  0  0  0  0
  -14.3773   15.8344  -26.0920 C   0  0  0  0  0  0  0  0  0  0  0  0
  -13.6032   14.9233  -25.5448 C   0  0  0  0  0  0  0  0  0  0  0  0
  1  2  1  0  0  0
  2  3  2  0  0  0
  3  4  1  0  0  0
  4  5  2  0  0  0
  5  6  1  0  0  0
  6  7  1  0  0  0
  7  8  1  0  0  0
  8  9  2  0  0  0
  9 13  1  0  0  0
 13 14  2  0  0  0
 14 15  1  0  0  0
 15 16  2  0  0  0
 16 19  1  0  0  0
 19 20  1  0  0  0
 20 21  2  0  0  0
 21 22  1  0  0  0
 22 23  2  0  0  0
 23 24  1  0  0  0
 24 25  2  0  0  0
 16 17  1  0  0  0
 17 18  2  0  0  0
  9 10  1  0  0  0
  7 26  1  0  0  0
 26 27  1  0  0  0
 27 28  1  0  0  0
 28 29  1  0  0  0
 29 30  1  0  0  0
 30 31  1  0  0  0
 29 32  1  0  0  0
 32 33  1  0  0  0
 33 34  2  0  0  0
 33 36  1  0  0  0
 36 37  2  0  0  0
 10  2  1  0  0  0
 31 26  1  0  0  0
 10  6  2  0  0  0
 18 13  1  0  0  0
 25 20  1  0  0  0
  1 11  1  0  0  0
  1 12  1  0  0  0
 32 35  1  0  0  0
M  END
> <minimizedAffinity>
-9.24880

> <CNNscore>
0.8490895033

> <CNNaffinity>
7.5970559120

> <CNN_VS>
6.4505805969

> <CNNaffinity_variance>
0.1298753470

$$$$
[H]C([H])=C([H])C(=O)N([H])[C@]1([H])C([H])([H])C([H])([H])[C@]([H])(n2nc(-c3c([H])c([H])c(Oc4c([H])c([H])c([H])c([H])c4[H])c([H])c3[H])c3c(N([H])[H])nc([H])nc32)C([H])([H])C1([H])[H]


 37 41  0  0  0  0  0  0  0  0999 V2000
  -17.1239    9.7549  -18.6317 N   0  0  0  0  0  0  0  0  0  0  0  0
  -16.7704   10.4887  -19.7826 C   0  0  0  0  0  0  0  0  0  0  0  0
  -15.9069    9.9761  -20.6853 N   0  0  0  0  0  0  0  0  0  0  0  0
  -15.5835   10.6448  -21.8069 C   0  0  0  0  0  0  0  0  0  0  0  0
  -16.1104   11.8521  -22.0708 N   0  0  0  0  0  0  0  0  0  0  0  0
  -16.9832   12.4239  -21.2063 C   0  0  0  0  0  0  0  0  0  0  0  0
  -17.6475   13.5945  -21.2481 N   0  0  0  0  0  0  0  0  0  0  0  0
  -18.3681   13.6612  -20.1781 N   0  0  0  0  0  0  0  0  0  0  0  0
  -18.2121   12.5550  -19.3966 C   0  0  0  0  0  0  0  0  0  0  0  0
  -17.3218   11.7323  -20.0370 C   0  0  0  0  0  0  0  0  0  0  0  0
  -16.4386    9.6418  -17.8654 H   0  0  0  0  0  0  0  0  0  0  0  0
  -18.0616    9.3301  -18.5489 H   0  0  0  0  0  0  0  0  0  0  0  0
  -18.8996   12.3025  -18.1416 C   0  0  0  0  0  0  0  0  0  0  0  0
  -19.5517   11.1443  -17.8014 C   0  0  0  0  0  0  0  0  0  0  0  0
  -20.2093   10.9945  -16.5852 C   0  0  0  0  0  0  0  0  0  0  0  0
  -20.2386   12.0078  -15.6538 C   0  0  0  0  0  0  0  0  0  0  0  0
  -19.5905   13.1801  -15.9712 C   0  0  0  0  0  0  0  0  0  0  0  0
  -18.9431   13.3231  -17.1738 C   0  0  0  0  0  0  0  0  0  0  0  0
  -20.9040   11.8446  -14.4329 O   0  0  0  0  0  0  0  0  0  0  0  0
  -20.6576   10.7362  -13.6705 C   0  0  0  0  0  0  0  0  0  0  0  0
  -21.5961    9.7366  -13.5225 C   0  0  0  0  0  0  0  0  0  0  0  0
  -21.3314    8.6284  -12.7516 C   0  0  0  0  0  0  0  0  0  0  0  0
  -20.1138    8.5351  -12.1310 C   0  0  0  0  0  0  0  0  0  0  0  0
  -19.1812    9.5184  -12.2722 C   0  0  0  0  0  0  0  0  0  0  0  0
  -19.4376   10.6298  -13.0411 C   0  0  0  0  0  0  0  0  0  0  0  0
  -17.5483   14.5747  -22.3141 C   0  0  0  0  0  0  0  0  0  0  0  0
  -16.3791   15.4450  -22.0293 C   0  0  0  0  0  0  0  0  0  0  0  0
  -16.1828   16.6050  -22.9459 C   0  0  0  0  0  0  0  0  0  0  0  0
  -17.4388   17.2673  -23.4096 C   0  0  0  0  0  0  0  0  0  0  0  0
  -18.5890   16.3208  -23.6156 C   0  0  0  0  0  0  0  0  0  0  0  0
  -18.7857   15.4523  -22.3660 C   0  0  0  0  0  0  0  0  0  0  0  0
  -17.8948   18.3052  -22.5081 N   0  0  0  0  0  0  0  0  0  0  0  0
  -18.5955   19.4465  -22.8962 C   0  0  0  0  0  0  0  0  0  0  0  0
  -18.8772   19.6384  -24.0992 O   0  0  0  0  0  0  0  0  0  0  0  0
  -17.6561   18.1465  -21.4855 H   0  0  0  0  0  0  0  0  0  0  0  0
  -19.0161   20.4399  -21.9186 C   0  0  0  0  0  0  0  0  0  0  0  0
  -19.1605   20.1505  -20.6442 C   0  0  0  0  0  0  0  0  0  0  0  0
  1  2  1  0  0  0
  2  3  2  0  0  0
  3  4  1  0  0  0
  4  5  2  0  0  0
  5  6  1  0  0  0
  6  7  1  0  0  0
  7  8  1  0  0  0
  8  9  2  0  0  0
  9 13  1  0  0  0
 13 14  2  0  0  0
 14 15  1  0  0  0
 15 16  2  0  0  0
 16 19  1  0  0  0
 19 20  1  0  0  0
 20 21  2  0  0  0
 21 22  1  0  0  0
 22 23  2  0  0  0
 23 24  1  0  0  0
 24 25  2  0  0  0
 16 17  1  0  0  0
 17 18  2  0  0  0
  9 10  1  0  0  0
  7 26  1  0  0  0
 26 27  1  0  0  0
 27 28  1  0  0  0
 28 29  1  0  0  0
 29 30  1  0  0  0
 30 31  1  0  0  0
 29 32  1  0  0  0
 32 33  1  0  0  0
 33 34  2  0  0  0
 33 36  1  0  0  0
 36 37  2  0  0  0
 10  2  1  0  0  0
 31 26  1  0  0  0
 10  6  2  0  0  0
 18 13  1  0  0  0
 25 20  1  0  0  0
  1 11  1  0  0  0
  1 12  1  0  0  0
 32 35  1  0  0  0
M  END
> <minimizedAffinity>
-8.50544

> <CNNscore>
0.7907942533

> <CNNaffinity>
7.4711213112

> <CNN_VS>
5.9081196785

> <CNNaffinity_variance>
0.1353225261

$$$$
[H]C([H])=C([H])C(=O)N([H])[C@]1([H])C([H])([H])C([H])([H])[C@]([H])(n2nc(-c3c([H])c([H])c(Oc4c([H])c([H])c([H])c([H])c4[H])c([H])c3[H])c3c(N([H])[H])nc([H])nc32)C([H])([H])C1([H])[H]


 37 41  0  0  0  0  0  0  0  0999 V2000
  -16.7932    9.6895  -19.0062 N   0  0  0  0  0  0  0  0  0  0  0  0
  -16.6376   10.5958  -20.0750 C   0  0  0  0  0  0  0  0  0  0  0  0
  -15.7427   10.3529  -21.0564 N   0  0  0  0  0  0  0  0  0  0  0  0
  -15.6035   11.1869  -22.1028 C   0  0  0  0  0  0  0  0  0  0  0  0
  -16.3533   12.2965  -22.2097 N   0  0  0  0  0  0  0  0  0  0  0  0
  -17.2700   12.5997  -21.2591 C   0  0  0  0  0  0  0  0  0  0  0  0
  -18.1367   13.6240  -21.1455 N   0  0  0  0  0  0  0  0  0  0  0  0
  -18.8020   13.4399  -20.0536 N   0  0  0  0  0  0  0  0  0  0  0  0
  -18.4084   12.3044  -19.4099 C   0  0  0  0  0  0  0  0  0  0  0  0
  -17.4176   11.7353  -20.1675 C   0  0  0  0  0  0  0  0  0  0  0  0
  -16.0606    9.6238  -18.2792 H   0  0  0  0  0  0  0  0  0  0  0  0
  -17.6329    9.0914  -18.9446 H   0  0  0  0  0  0  0  0  0  0  0  0
  -18.9739   11.7948  -18.1721 C   0  0  0  0  0  0  0  0  0  0  0  0
  -19.4838   12.5539  -17.1491 C   0  0  0  0  0  0  0  0  0  0  0  0
  -19.9836   11.9848  -15.9828 C   0  0  0  0  0  0  0  0  0  0  0  0
  -19.9932   10.6212  -15.7947 C   0  0  0  0  0  0  0  0  0  0  0  0
  -19.4878    9.8375  -16.8074 C   0  0  0  0  0  0  0  0  0  0  0  0
  -18.9949   10.4044  -17.9569 C   0  0  0  0  0  0  0  0  0  0  0  0
  -20.4994   10.0604  -14.6160 O   0  0  0  0  0  0  0  0  0  0  0  0
  -21.8438   10.1028  -14.3691 C   0  0  0  0  0  0  0  0  0  0  0  0
  -22.3451   10.5629  -13.1695 C   0  0  0  0  0  0  0  0  0  0  0  0
  -23.7007   10.5985  -12.9382 C   0  0  0  0  0  0  0  0  0  0  0  0
  -24.5474   10.1670  -13.9247 C   0  0  0  0  0  0  0  0  0  0  0  0
  -24.0601    9.7110  -15.1127 C   0  0  0  0  0  0  0  0  0  0  0  0
  -22.7062    9.6720  -15.3523 C   0  0  0  0  0  0  0  0  0  0  0  0
  -18.2713   14.7145  -22.0939 C   0  0  0  0  0  0  0  0  0  0  0  0
  -18.2493   14.1375  -23.4622 C   0  0  0  0  0  0  0  0  0  0  0  0
  -18.2447   15.1145  -24.5889 C   0  0  0  0  0  0  0  0  0  0  0  0
  -17.4467   16.3545  -24.3507 C   0  0  0  0  0  0  0  0  0  0  0  0
  -17.4754   16.8358  -22.9262 C   0  0  0  0  0  0  0  0  0  0  0  0
  -17.1121   15.6874  -21.9757 C   0  0  0  0  0  0  0  0  0  0  0  0
  -16.0551   16.2103  -24.7257 N   0  0  0  0  0  0  0  0  0  0  0  0
  -15.6046   15.8667  -25.9996 C   0  0  0  0  0  0  0  0  0  0  0  0
  -16.4195   15.6559  -26.9242 O   0  0  0  0  0  0  0  0  0  0  0  0
  -15.3599   16.3872  -23.9425 H   0  0  0  0  0  0  0  0  0  0  0  0
  -14.1827   15.7445  -26.2874 C   0  0  0  0  0  0  0  0  0  0  0  0
  -13.3668   15.0678  -25.5096 C   0  0  0  0  0  0  0  0  0  0  0  0
  1  2  1  0  0  0
  2  3  2  0  0  0
  3  4  1  0  0  0
  4  5  2  0  0  0
  5  6  1  0  0  0
  6  7  1  0  0  0
  7  8  1  0  0  0
  8  9  2  0  0  0
  9 13  1  0  0  0
 13 14  2  0  0  0
 14 15  1  0  0  0
 15 16  2  0  0  0
 16 19  1  0  0  0
 19 20  1  0  0  0
 20 21  2  0  0  0
 21 22  1  0  0  0
 22 23  2  0  0  0
 23 24  1  0  0  0
 24 25  2  0  0  0
 16 17  1  0  0  0
 17 18  2  0  0  0
  9 10  1  0  0  0
  7 26  1  0  0  0
 26 27  1  0  0  0
 27 28  1  0  0  0
 28 29  1  0  0  0
 29 30  1  0  0  0
 30 31  1  0  0  0
 29 32  1  0  0  0
 32 33  1  0  0  0
 33 34  2  0  0  0
 33 36  1  0  0  0
 36 37  2  0  0  0
 10  2  1  0  0  0
 31 26  1  0  0  0
 10  6  2  0  0  0
 18 13  1  0  0  0
 25 20  1  0  0  0
  1 11  1  0  0  0
  1 12  1  0  0  0
 32 35  1  0  0  0
M  END
> <minimizedAffinity>
-8.71188

> <CNNscore>
0.7084667683

> <CNNaffinity>
7.3133292198

> <CNN_VS>
5.1812505722

> <CNNaffinity_variance>
0.1142583117

$$$$
[H]C([H])=C([H])C(=O)N([H])[C@]1([H])C([H])([H])C([H])([H])[C@]([H])(n2nc(-c3c([H])c([H])c(Oc4c([H])c([H])c([H])c([H])c4[H])c([H])c3[H])c3c(N([H])[H])nc([H])nc32)C([H])([H])C1([H])[H]


 37 41  0  0  0  0  0  0  0  0999 V2000
  -16.9503    9.7050  -18.7336 N   0  0  0  0  0  0  0  0  0  0  0  0
  -16.6324   10.4631  -19.8791 C   0  0  0  0  0  0  0  0  0  0  0  0
  -15.7733    9.9829  -20.8036 N   0  0  0  0  0  0  0  0  0  0  0  0
  -15.4837   10.6749  -21.9203 C   0  0  0  0  0  0  0  0  0  0  0  0
  -16.0412   11.8740  -22.1573 N   0  0  0  0  0  0  0  0  0  0  0  0
  -16.9114   12.4138  -21.2700 C   0  0  0  0  0  0  0  0  0  0  0  0
  -17.6017   13.5700  -21.2832 N   0  0  0  0  0  0  0  0  0  0  0  0
  -18.3054   13.6051  -20.2005 N   0  0  0  0  0  0  0  0  0  0  0  0
  -18.1121   12.4913  -19.4383 C   0  0  0  0  0  0  0  0  0  0  0  0
  -17.2151   11.6978  -20.1056 C   0  0  0  0  0  0  0  0  0  0  0  0
  -16.2498    9.5959  -17.9806 H   0  0  0  0  0  0  0  0  0  0  0  0
  -17.8770    9.2585  -18.6416 H   0  0  0  0  0  0  0  0  0  0  0  0
  -18.7726   12.2055  -18.1760 C   0  0  0  0  0  0  0  0  0  0  0  0
  -19.3272   11.0040  -17.8132 C   0  0  0  0  0  0  0  0  0  0  0  0
  -19.9663   10.8223  -16.5915 C   0  0  0  0  0  0  0  0  0  0  0  0
  -20.0749   11.8458  -15.6774 C   0  0  0  0  0  0  0  0  0  0  0  0
  -19.5254   13.0613  -16.0176 C   0  0  0  0  0  0  0  0  0  0  0  0
  -18.8958   13.2357  -17.2254 C   0  0  0  0  0  0  0  0  0  0  0  0
  -20.7207   11.6501  -14.4507 O   0  0  0  0  0  0  0  0  0  0  0  0
  -22.0252   12.0334  -14.3037 C   0  0  0  0  0  0  0  0  0  0  0  0
  -22.3687   13.3401  -14.0274 C   0  0  0  0  0  0  0  0  0  0  0  0
  -23.6864   13.7080  -13.8826 C   0  0  0  0  0  0  0  0  0  0  0  0
  -24.6552   12.7493  -14.0184 C   0  0  0  0  0  0  0  0  0  0  0  0
  -24.3241   11.4560  -14.2912 C   0  0  0  0  0  0  0  0  0  0  0  0
  -23.0092   11.0795  -14.4376 C   0  0  0  0  0  0  0  0  0  0  0  0
  -17.5419   14.5675  -22.3359 C   0  0  0  0  0  0  0  0  0  0  0  0
  -16.3814   15.4531  -22.0630 C   0  0  0  0  0  0  0  0  0  0  0  0
  -16.2243   16.6298  -22.9658 C   0  0  0  0  0  0  0  0  0  0  0  0
  -17.5009   17.2777  -23.3921 C   0  0  0  0  0  0  0  0  0  0  0  0
  -18.6395   16.3151  -23.5878 C   0  0  0  0  0  0  0  0  0  0  0  0
  -18.7945   15.4249  -22.3477 C   0  0  0  0  0  0  0  0  0  0  0  0
  -17.9542   18.2942  -22.4652 N   0  0  0  0  0  0  0  0  0  0  0  0
  -18.6278   19.4599  -22.8278 C   0  0  0  0  0  0  0  0  0  0  0  0
  -18.8849   19.6956  -24.0284 O   0  0  0  0  0  0  0  0  0  0  0  0
  -17.7364   18.0983  -21.4444 H   0  0  0  0  0  0  0  0  0  0  0  0
  -19.0479   20.4288  -21.8256 C   0  0  0  0  0  0  0  0  0  0  0  0
  -19.1245   20.1263  -20.5484 C   0  0  0  0  0  0  0  0  0  0  0  0
  1  2  1  0  0  0
  2  3  2  0  0  0
  3  4  1  0  0  0
  4  5  2  0  0  0
  5  6  1  0  0  0
  6  7  1  0  0  0
  7  8  1  0  0  0
  8  9  2  0  0  0
  9 13  1  0  0  0
 13 14  2  0  0  0
 14 15  1  0  0  0
 15 16  2  0  0  0
 16 19  1  0  0  0
 19 20  1  0  0  0
 20 21  2  0  0  0
 21 22  1  0  0  0
 22 23  2  0  0  0
 23 24  1  0  0  0
 24 25  2  0  0  0
 16 17  1  0  0  0
 17 18  2  0  0  0
  9 10  1  0  0  0
  7 26  1  0  0  0
 26 27  1  0  0  0
 27 28  1  0  0  0
 28 29  1  0  0  0
 29 30  1  0  0  0
 30 31  1  0  0  0
 29 32  1  0  0  0
 32 33  1  0  0  0
 33 34  2  0  0  0
 33 36  1  0  0  0
 36 37  2  0  0  0
 10  2  1  0  0  0
 31 26  1  0  0  0
 10  6  2  0  0  0
 18 13  1  0  0  0
 25 20  1  0  0  0
  1 11  1  0  0  0
  1 12  1  0  0  0
 32 35  1  0  0  0
M  END
> <minimizedAffinity>
-8.25855

> <CNNscore>
0.7038578987

> <CNNaffinity>
7.3935823441

> <CNN_VS>
5.2040314674

> <CNNaffinity_variance>
0.1679441482

$$$$
[H]C([H])=C([H])C(=O)N([H])[C@]1([H])C([H])([H])C([H])([H])[C@]([H])(n2nc(-c3c([H])c([H])c(Oc4c([H])c([H])c([H])c([H])c4[H])c([H])c3[H])c3c(N([H])[H])nc([H])nc32)C([H])([H])C1([H])[H]


 37 41  0  0  0  0  0  0  0  0999 V2000
  -17.5713    9.5097  -18.0986 N   0  0  0  0  0  0  0  0  0  0  0  0
  -17.1554   10.2770  -19.2060 C   0  0  0  0  0  0  0  0  0  0  0  0
  -16.2107    9.8091  -20.0497 N   0  0  0  0  0  0  0  0  0  0  0  0
  -15.8250   10.5099  -21.1313 C   0  0  0  0  0  0  0  0  0  0  0  0
  -16.3684   11.7059  -21.4127 N   0  0  0  0  0  0  0  0  0  0  0  0
  -17.3213   12.2336  -20.6067 C   0  0  0  0  0  0  0  0  0  0  0  0
  -18.0171   13.3843  -20.6776 N   0  0  0  0  0  0  0  0  0  0  0  0
  -18.8180   13.4075  -19.6643 N   0  0  0  0  0  0  0  0  0  0  0  0
  -18.6864   12.2908  -18.8933 C   0  0  0  0  0  0  0  0  0  0  0  0
  -17.7251   11.5084  -19.4790 C   0  0  0  0  0  0  0  0  0  0  0  0
  -16.9423    9.4017  -17.2848 H   0  0  0  0  0  0  0  0  0  0  0  0
  -18.4987    9.0553  -18.0949 H   0  0  0  0  0  0  0  0  0  0  0  0
  -19.4582   11.9923  -17.6988 C   0  0  0  0  0  0  0  0  0  0  0  0
  -19.9123   10.7529  -17.3244 C   0  0  0  0  0  0  0  0  0  0  0  0
  -20.6699   10.5581  -16.1745 C   0  0  0  0  0  0  0  0  0  0  0  0
  -21.0042   11.6065  -15.3473 C   0  0  0  0  0  0  0  0  0  0  0  0
  -20.5594   12.8604  -15.7009 C   0  0  0  0  0  0  0  0  0  0  0  0
  -19.8121   13.0474  -16.8376 C   0  0  0  0  0  0  0  0  0  0  0  0
  -21.7673   11.3973  -14.1923 O   0  0  0  0  0  0  0  0  0  0  0  0
  -21.1434   11.2759  -12.9814 C   0  0  0  0  0  0  0  0  0  0  0  0
  -19.9799   10.5498  -12.8365 C   0  0  0  0  0  0  0  0  0  0  0  0
  -19.3657   10.4381  -11.6106 C   0  0  0  0  0  0  0  0  0  0  0  0
  -19.9327   11.0637  -10.5319 C   0  0  0  0  0  0  0  0  0  0  0  0
  -21.0821   11.7829  -10.6668 C   0  0  0  0  0  0  0  0  0  0  0  0
  -21.7028   11.8998  -11.8888 C   0  0  0  0  0  0  0  0  0  0  0  0
  -17.8689   14.3884  -21.7152 C   0  0  0  0  0  0  0  0  0  0  0  0
  -16.6610   15.1945  -21.4039 C   0  0  0  0  0  0  0  0  0  0  0  0
  -16.4077   16.3694  -22.2870 C   0  0  0  0  0  0  0  0  0  0  0  0
  -17.6299   17.1029  -22.7336 C   0  0  0  0  0  0  0  0  0  0  0  0
  -18.8227   16.2177  -22.9682 C   0  0  0  0  0  0  0  0  0  0  0  0
  -19.0635   15.3245  -21.7441 C   0  0  0  0  0  0  0  0  0  0  0  0
  -18.0393   18.1352  -21.8038 N   0  0  0  0  0  0  0  0  0  0  0  0
  -18.5074   19.3967  -22.1691 C   0  0  0  0  0  0  0  0  0  0  0  0
  -18.6004   19.7131  -23.3752 O   0  0  0  0  0  0  0  0  0  0  0  0
  -17.9604   17.8707  -20.7782 H   0  0  0  0  0  0  0  0  0  0  0  0
  -18.8985   20.3744  -21.1637 C   0  0  0  0  0  0  0  0  0  0  0  0
  -19.1386   20.0373  -19.9158 C   0  0  0  0  0  0  0  0  0  0  0  0
  1  2  1  0  0  0
  2  3  2  0  0  0
  3  4  1  0  0  0
  4  5  2  0  0  0
  5  6  1  0  0  0
  6  7  1  0  0  0
  7  8  1  0  0  0
  8  9  2  0  0  0
  9 13  1  0  0  0
 13 14  2  0  0  0
 14 15  1  0  0  0
 15 16  2  0  0  0
 16 19  1  0  0  0
 19 20  1  0  0  0
 20 21  2  0  0  0
 21 22  1  0  0  0
 22 23  2  0  0  0
 23 24  1  0  0  0
 24 25  2  0  0  0
 16 17  1  0  0  0
 17 18  2  0  0  0
  9 10  1  0  0  0
  7 26  1  0  0  0
 26 27  1  0  0  0
 27 28  1  0  0  0
 28 29  1  0  0  0
 29 30  1  0  0  0
 30 31  1  0  0  0
 29 32  1  0  0  0
 32 33  1  0  0  0
 33 34  2  0  0  0
 33 36  1  0  0  0
 36 37  2  0  0  0
 10  2  1  0  0  0
 31 26  1  0  0  0
 10  6  2  0  0  0
 18 13  1  0  0  0
 25 20  1  0  0  0
  1 11  1  0  0  0
  1 12  1  0  0  0
 32 35  1  0  0  0
M  END
> <minimizedAffinity>
-8.33661

> <CNNscore>
0.7003347874

> <CNNaffinity>
7.3111939430

> <CNN_VS>
5.1202836037

> <CNNaffinity_variance>
0.1692356467

$$$$
[H]C([H])=C([H])C(=O)N([H])[C@]1([H])C([H])([H])C([H])([H])[C@]([H])(n2nc(-c3c([H])c([H])c(Oc4c([H])c([H])c([H])c([H])c4[H])c([H])c3[H])c3c(N([H])[H])nc([H])nc32)C([H])([H])C1([H])[H]


 37 41  0  0  0  0  0  0  0  0999 V2000
  -16.6146    9.7257  -19.6931 N   0  0  0  0  0  0  0  0  0  0  0  0
  -16.3599   10.7332  -20.6460 C   0  0  0  0  0  0  0  0  0  0  0  0
  -15.5011   10.5136  -21.6645 N   0  0  0  0  0  0  0  0  0  0  0  0
  -15.2707   11.4489  -22.6036 C   0  0  0  0  0  0  0  0  0  0  0  0
  -15.8897   12.6406  -22.5620 N   0  0  0  0  0  0  0  0  0  0  0  0
  -16.7634   12.9258  -21.5664 C   0  0  0  0  0  0  0  0  0  0  0  0
  -17.5077   14.0194  -21.3144 N   0  0  0  0  0  0  0  0  0  0  0  0
  -18.1866   13.7785  -20.2421 N   0  0  0  0  0  0  0  0  0  0  0  0
  -17.9229   12.5354  -19.7482 C   0  0  0  0  0  0  0  0  0  0  0  0
  -17.0054   11.9559  -20.5859 C   0  0  0  0  0  0  0  0  0  0  0  0
  -15.8922    9.4891  -18.9918 H   0  0  0  0  0  0  0  0  0  0  0  0
  -17.5167    9.2229  -19.6908 H   0  0  0  0  0  0  0  0  0  0  0  0
  -18.5394   11.9445  -18.5725 C   0  0  0  0  0  0  0  0  0  0  0  0
  -18.5332   10.6119  -18.2459 C   0  0  0  0  0  0  0  0  0  0  0  0
  -19.1725   10.1246  -17.1110 C   0  0  0  0  0  0  0  0  0  0  0  0
  -19.8480   10.9610  -16.2511 C   0  0  0  0  0  0  0  0  0  0  0  0
  -19.8679   12.3032  -16.5565 C   0  0  0  0  0  0  0  0  0  0  0  0
  -19.2354   12.7791  -17.6786 C   0  0  0  0  0  0  0  0  0  0  0  0
  -20.4875   10.4582  -15.1117 O   0  0  0  0  0  0  0  0  0  0  0  0
  -21.6201    9.7039  -15.2484 C   0  0  0  0  0  0  0  0  0  0  0  0
  -22.8560   10.2834  -15.4450 C   0  0  0  0  0  0  0  0  0  0  0  0
  -23.9850    9.5092  -15.5804 C   0  0  0  0  0  0  0  0  0  0  0  0
  -23.8593    8.1467  -15.5163 C   0  0  0  0  0  0  0  0  0  0  0  0
  -22.6418    7.5664  -15.3223 C   0  0  0  0  0  0  0  0  0  0  0  0
  -21.5078    8.3330  -15.1859 C   0  0  0  0  0  0  0  0  0  0  0  0
  -17.5199   15.2264  -22.1205 C   0  0  0  0  0  0  0  0  0  0  0  0
  -17.9953   16.3439  -21.2656 C   0  0  0  0  0  0  0  0  0  0  0  0
  -18.2038   17.6531  -21.9487 C   0  0  0  0  0  0  0  0  0  0  0  0
  -18.7509   17.5652  -23.3359 C   0  0  0  0  0  0  0  0  0  0  0  0
  -18.2644   16.3716  -24.1105 C   0  0  0  0  0  0  0  0  0  0  0  0
  -18.4761   15.0914  -23.2916 C   0  0  0  0  0  0  0  0  0  0  0  0
  -20.1986   17.5367  -23.3703 N   0  0  0  0  0  0  0  0  0  0  0  0
  -21.0081   18.6091  -23.7430 C   0  0  0  0  0  0  0  0  0  0  0  0
  -20.4987   19.6997  -24.0813 O   0  0  0  0  0  0  0  0  0  0  0  0
  -20.6350   16.6124  -23.0822 H   0  0  0  0  0  0  0  0  0  0  0  0
  -22.4590   18.4901  -23.7487 C   0  0  0  0  0  0  0  0  0  0  0  0
  -23.1587   18.5116  -24.8617 C   0  0  0  0  0  0  0  0  0  0  0  0
  1  2  1  0  0  0
  2  3  2  0  0  0
  3  4  1  0  0  0
  4  5  2  0  0  0
  5  6  1  0  0  0
  6  7  1  0  0  0
  7  8  1  0  0  0
  8  9  2  0  0  0
  9 13  1  0  0  0
 13 14  2  0  0  0
 14 15  1  0  0  0
 15 16  2  0  0  0
 16 19  1  0  0  0
 19 20  1  0  0  0
 20 21  2  0  0  0
 21 22  1  0  0  0
 22 23  2  0  0  0
 23 24  1  0  0  0
 24 25  2  0  0  0
 16 17  1  0  0  0
 17 18  2  0  0  0
  9 10  1  0  0  0
  7 26  1  0  0  0
 26 27  1  0  0  0
 27 28  1  0  0  0
 28 29  1  0  0  0
 29 30  1  0  0  0
 30 31  1  0  0  0
 29 32  1  0  0  0
 32 33  1  0  0  0
 33 34  2  0  0  0
 33 36  1  0  0  0
 36 37  2  0  0  0
 10  2  1  0  0  0
 31 26  1  0  0  0
 10  6  2  0  0  0
 18 13  1  0  0  0
 25 20  1  0  0  0
  1 11  1  0  0  0
  1 12  1  0  0  0
 32 35  1  0  0  0
M  END
> <minimizedAffinity>
-8.37257

> <CNNscore>
0.6861304045

> <CNNaffinity>
7.3440065384

> <CNN_VS>
5.0389461517

> <CNNaffinity_variance>
0.2073177844

$$$$
[H]C([H])=C([H])C(=O)N([H])[C@]1([H])C([H])([H])C([H])([H])[C@]([H])(n2nc(-c3c([H])c([H])c(Oc4c([H])c([H])c([H])c([H])c4[H])c([H])c3[H])c3c(N([H])[H])nc([H])nc32)C([H])([H])C1([H])[H]


 37 41  0  0  0  0  0  0  0  0999 V2000
  -17.7956    9.2139  -17.5563 N   0  0  0  0  0  0  0  0  0  0  0  0
  -17.7460   10.1694  -18.5919 C   0  0  0  0  0  0  0  0  0  0  0  0
  -16.9381    9.9851  -19.6580 N   0  0  0  0  0  0  0  0  0  0  0  0
  -16.9019   10.8671  -20.6732 C   0  0  0  0  0  0  0  0  0  0  0  0
  -17.6717   11.9681  -20.6631 N   0  0  0  0  0  0  0  0  0  0  0  0
  -18.5047   12.2137  -19.6230 C   0  0  0  0  0  0  0  0  0  0  0  0
  -19.3705   13.2177  -19.3871 N   0  0  0  0  0  0  0  0  0  0  0  0
  -19.9347   12.9743  -18.2508 N   0  0  0  0  0  0  0  0  0  0  0  0
  -19.4720   11.8177  -17.6968 C   0  0  0  0  0  0  0  0  0  0  0  0
  -18.5450   11.2991  -18.5635 C   0  0  0  0  0  0  0  0  0  0  0  0
  -17.0011    9.1278  -16.9000 H   0  0  0  0  0  0  0  0  0  0  0  0
  -18.6193    8.6002  -17.4490 H   0  0  0  0  0  0  0  0  0  0  0  0
  -19.9200   11.2443  -16.4390 C   0  0  0  0  0  0  0  0  0  0  0  0
  -20.6669   10.1021  -16.2973 C   0  0  0  0  0  0  0  0  0  0  0  0
  -21.0773    9.6353  -15.0532 C   0  0  0  0  0  0  0  0  0  0  0  0
  -20.7516   10.2998  -13.8925 C   0  0  0  0  0  0  0  0  0  0  0  0
  -20.0017   11.4485  -14.0080 C   0  0  0  0  0  0  0  0  0  0  0  0
  -19.5995   11.9055  -15.2389 C   0  0  0  0  0  0  0  0  0  0  0  0
  -21.1707    9.8195  -12.6459 O   0  0  0  0  0  0  0  0  0  0  0  0
  -20.3086    9.8481  -11.5847 C   0  0  0  0  0  0  0  0  0  0  0  0
  -19.1900    9.0428  -11.5392 C   0  0  0  0  0  0  0  0  0  0  0  0
  -18.3335    9.0846  -10.4635 C   0  0  0  0  0  0  0  0  0  0  0  0
  -18.6126    9.9441   -9.4341 C   0  0  0  0  0  0  0  0  0  0  0  0
  -19.7157   10.7430   -9.4714 C   0  0  0  0  0  0  0  0  0  0  0  0
  -20.5773   10.7076  -10.5431 C   0  0  0  0  0  0  0  0  0  0  0  0
  -19.6015   14.3471  -20.2691 C   0  0  0  0  0  0  0  0  0  0  0  0
  -18.3527   15.1491  -20.3236 C   0  0  0  0  0  0  0  0  0  0  0  0
  -18.4266   16.4323  -21.0801 C   0  0  0  0  0  0  0  0  0  0  0  0
  -19.7169   17.1734  -20.9484 C   0  0  0  0  0  0  0  0  0  0  0  0
  -20.9244   16.2839  -20.8389 C   0  0  0  0  0  0  0  0  0  0  0  0
  -20.7091   15.2382  -19.7369 C   0  0  0  0  0  0  0  0  0  0  0  0
  -19.7396   18.0680  -19.8095 N   0  0  0  0  0  0  0  0  0  0  0  0
  -19.1926   19.3504  -19.7925 C   0  0  0  0  0  0  0  0  0  0  0  0
  -18.6286   19.8120  -20.8084 O   0  0  0  0  0  0  0  0  0  0  0  0
  -20.2166   17.6788  -18.9441 H   0  0  0  0  0  0  0  0  0  0  0  0
  -19.2623   20.1823  -18.5998 C   0  0  0  0  0  0  0  0  0  0  0  0
  -19.6136   19.6988  -17.4287 C   0  0  0  0  0  0  0  0  0  0  0  0
  1  2  1  0  0  0
  2  3  2  0  0  0
  3  4  1  0  0  0
  4  5  2  0  0  0
  5  6  1  0  0  0
  6  7  1  0  0  0
  7  8  1  0  0  0
  8  9  2  0  0  0
  9 13  1  0  0  0
 13 14  2  0  0  0
 14 15  1  0  0  0
 15 16  2  0  0  0
 16 19  1  0  0  0
 19 20  1  0  0  0
 20 21  2  0  0  0
 21 22  1  0  0  0
 22 23  2  0  0  0
 23 24  1  0  0  0
 24 25  2  0  0  0
 16 17  1  0  0  0
 17 18  2  0  0  0
  9 10  1  0  0  0
  7 26  1  0  0  0
 26 27  1  0  0  0
 27 28  1  0  0  0
 28 29  1  0  0  0
 29 30  1  0  0  0
 30 31  1  0  0  0
 29 32  1  0  0  0
 32 33  1  0  0  0
 33 34  2  0  0  0
 33 36  1  0  0  0
 36 37  2  0  0  0
 10  2  1  0  0  0
 31 26  1  0  0  0
 10  6  2  0  0  0
 18 13  1  0  0  0
 25 20  1  0  0  0
  1 11  1  0  0  0
  1 12  1  0  0  0
 32 35  1  0  0  0
M  END
> <minimizedAffinity>
-7.56888

> <CNNscore>
0.6189277768

> <CNNaffinity>
7.1233305931

> <CNN_VS>
4.4088273048

> <CNNaffinity_variance>
0.2512090802

$$$$
[H]C([H])=C([H])C(=O)N([H])[C@]1([H])C([H])([H])C([H])([H])[C@]([H])(n2nc(-c3c([H])c([H])c(Oc4c([H])c([H])c([H])c([H])c4[H])c([H])c3[H])c3c(N([H])[H])nc([H])nc32)C([H])([H])C1([H])[H]


 37 41  0  0  0  0  0  0  0  0999 V2000
  -18.3141    9.1951  -17.4309 N   0  0  0  0  0  0  0  0  0  0  0  0
  -17.9078   10.1607  -18.3746 C   0  0  0  0  0  0  0  0  0  0  0  0
  -17.0650    9.8297  -19.3763 N   0  0  0  0  0  0  0  0  0  0  0  0
  -16.6928   10.7270  -20.3070 C   0  0  0  0  0  0  0  0  0  0  0  0
  -17.1484   11.9904  -20.2735 N   0  0  0  0  0  0  0  0  0  0  0  0
  -17.9966   12.3885  -19.2948 C   0  0  0  0  0  0  0  0  0  0  0  0
  -18.5937   13.5712  -19.0539 N   0  0  0  0  0  0  0  0  0  0  0  0
  -19.3207   13.4218  -17.9966 N   0  0  0  0  0  0  0  0  0  0  0  0
  -19.2352   12.1542  -17.5021 C   0  0  0  0  0  0  0  0  0  0  0  0
  -18.3859   11.4585  -18.3231 C   0  0  0  0  0  0  0  0  0  0  0  0
  -17.6443    8.8637  -16.7160 H   0  0  0  0  0  0  0  0  0  0  0  0
  -19.2749    8.8170  -17.4489 H   0  0  0  0  0  0  0  0  0  0  0  0
  -19.9490   11.6495  -16.3414 C   0  0  0  0  0  0  0  0  0  0  0  0
  -21.2158   11.1223  -16.3436 C   0  0  0  0  0  0  0  0  0  0  0  0
  -21.8378   10.6847  -15.1793 C   0  0  0  0  0  0  0  0  0  0  0  0
  -21.2090   10.7579  -13.9568 C   0  0  0  0  0  0  0  0  0  0  0  0
  -19.9365   11.2824  -13.9283 C   0  0  0  0  0  0  0  0  0  0  0  0
  -19.3270   11.7135  -15.0808 C   0  0  0  0  0  0  0  0  0  0  0  0
  -21.8459   10.3139  -12.7918 O   0  0  0  0  0  0  0  0  0  0  0  0
  -21.4784   10.8310  -11.5803 C   0  0  0  0  0  0  0  0  0  0  0  0
  -21.9005   12.0774  -11.1674 C   0  0  0  0  0  0  0  0  0  0  0  0
  -21.5210   12.5821   -9.9453 C   0  0  0  0  0  0  0  0  0  0  0  0
  -20.7130   11.8214   -9.1422 C   0  0  0  0  0  0  0  0  0  0  0  0
  -20.2916   10.5891   -9.5428 C   0  0  0  0  0  0  0  0  0  0  0  0
  -20.6663   10.0769  -10.7632 C   0  0  0  0  0  0  0  0  0  0  0  0
  -18.4285   14.7699  -19.8556 C   0  0  0  0  0  0  0  0  0  0  0  0
  -18.9643   15.9176  -19.0801 C   0  0  0  0  0  0  0  0  0  0  0  0
  -19.0055   17.2293  -19.7885 C   0  0  0  0  0  0  0  0  0  0  0  0
  -19.3512   17.1563  -21.2399 C   0  0  0  0  0  0  0  0  0  0  0  0
  -18.8198   15.9328  -21.9342 C   0  0  0  0  0  0  0  0  0  0  0  0
  -19.2119   14.6723  -21.1520 C   0  0  0  0  0  0  0  0  0  0  0  0
  -20.7785   17.2001  -21.4825 N   0  0  0  0  0  0  0  0  0  0  0  0
  -21.4066   18.0509  -22.3911 C   0  0  0  0  0  0  0  0  0  0  0  0
  -20.7358   18.8562  -23.0728 O   0  0  0  0  0  0  0  0  0  0  0  0
  -21.3519   16.5184  -20.9041 H   0  0  0  0  0  0  0  0  0  0  0  0
  -22.8511   18.0257  -22.5706 C   0  0  0  0  0  0  0  0  0  0  0  0
  -23.6388   17.3003  -21.8076 C   0  0  0  0  0  0  0  0  0  0  0  0
  1  2  1  0  0  0
  2  3  2  0  0  0
  3  4  1  0  0  0
  4  5  2  0  0  0
  5  6  1  0  0  0
  6  7  1  0  0  0
  7  8  1  0  0  0
  8  9  2  0  0  0
  9 13  1  0  0  0
 13 14  2  0  0  0
 14 15  1  0  0  0
 15 16  2  0  0  0
 16 19  1  0  0  0
 19 20  1  0  0  0
 20 21  2  0  0  0
 21 22  1  0  0  0
 22 23  2  0  0  0
 23 24  1  0  0  0
 24 25  2  0  0  0
 16 17  1  0  0  0
 17 18  2  0  0  0
  9 10  1  0  0  0
  7 26  1  0  0  0
 26 27  1  0  0  0
 27 28  1  0  0  0
 28 29  1  0  0  0
 29 30  1  0  0  0
 30 31  1  0  0  0
 29 32  1  0  0  0
 32 33  1  0  0  0
 33 34  2  0  0  0
 33 36  1  0  0  0
 36 37  2  0  0  0
 10  2  1  0  0  0
 31 26  1  0  0  0
 10  6  2  0  0  0
 18 13  1  0  0  0
 25 20  1  0  0  0
  1 11  1  0  0  0
  1 12  1  0  0  0
 32 35  1  0  0  0
M  END
> <minimizedAffinity>
-7.43474

> <CNNscore>
0.5555487871

> <CNNaffinity>
7.0258889198

> <CNN_VS>
3.9032239914

> <CNNaffinity_variance>
0.4203306139

$$$$
[H]C([H])=C([H])C(=O)N([H])[C@]1([H])C([H])([H])C([H])([H])[C@]([H])(n2nc(-c3c([H])c([H])c(Oc4c([H])c([H])c([H])c([H])c4[H])c([H])c3[H])c3c(N([H])[H])nc([H])nc32)C([H])([H])C1([H])[H]


 37 41  0  0  0  0  0  0  0  0999 V2000
  -16.4519   10.5690  -20.1850 N   0  0  0  0  0  0  0  0  0  0  0  0
  -17.4942   10.7047  -19.2452 C   0  0  0  0  0  0  0  0  0  0  0  0
  -17.7166    9.7438  -18.3230 N   0  0  0  0  0  0  0  0  0  0  0  0
  -18.6832    9.8698  -17.3958 C   0  0  0  0  0  0  0  0  0  0  0  0
  -19.4655   10.9611  -17.3535 N   0  0  0  0  0  0  0  0  0  0  0  0
  -19.2957   11.9626  -18.2503 C   0  0  0  0  0  0  0  0  0  0  0  0
  -19.9277   13.1414  -18.4063 N   0  0  0  0  0  0  0  0  0  0  0  0
  -19.3741   13.7400  -19.4082 N   0  0  0  0  0  0  0  0  0  0  0  0
  -18.3694   12.9932  -19.9481 C   0  0  0  0  0  0  0  0  0  0  0  0
  -18.2918   11.8354  -19.2180 C   0  0  0  0  0  0  0  0  0  0  0  0
  -16.5456    9.8906  -20.9599 H   0  0  0  0  0  0  0  0  0  0  0  0
  -15.5964   11.1420  -20.1046 H   0  0  0  0  0  0  0  0  0  0  0  0
  -17.5287   13.3884  -21.0655 C   0  0  0  0  0  0  0  0  0  0  0  0
  -17.0795   12.5624  -22.0647 C   0  0  0  0  0  0  0  0  0  0  0  0
  -16.2534   13.0177  -23.0866 C   0  0  0  0  0  0  0  0  0  0  0  0
  -15.8425   14.3301  -23.1483 C   0  0  0  0  0  0  0  0  0  0  0  0
  -16.2807   15.1794  -22.1574 C   0  0  0  0  0  0  0  0  0  0  0  0
  -17.0958   14.7246  -21.1503 C   0  0  0  0  0  0  0  0  0  0  0  0
  -15.0109   14.7764  -24.1824 O   0  0  0  0  0  0  0  0  0  0  0  0
  -15.4785   14.7939  -25.4674 C   0  0  0  0  0  0  0  0  0  0  0  0
  -16.5349   14.0009  -25.8639 C   0  0  0  0  0  0  0  0  0  0  0  0
  -16.9923   14.0313  -27.1610 C   0  0  0  0  0  0  0  0  0  0  0  0
  -16.3772   14.8667  -28.0555 C   0  0  0  0  0  0  0  0  0  0  0  0
  -15.3329   15.6533  -27.6717 C   0  0  0  0  0  0  0  0  0  0  0  0
  -14.8692   15.6292  -26.3769 C   0  0  0  0  0  0  0  0  0  0  0  0
  -21.0231   13.6183  -17.5820 C   0  0  0  0  0  0  0  0  0  0  0  0
  -21.2678   15.0427  -17.9239 C   0  0  0  0  0  0  0  0  0  0  0  0
  -22.2756   15.7569  -17.0882 C   0  0  0  0  0  0  0  0  0  0  0  0
  -22.2793   15.3846  -15.6416 C   0  0  0  0  0  0  0  0  0  0  0  0
  -21.9633   13.9374  -15.3819 C   0  0  0  0  0  0  0  0  0  0  0  0
  -20.6702   13.5431  -16.1075 C   0  0  0  0  0  0  0  0  0  0  0  0
  -21.3538   16.1727  -14.8542 N   0  0  0  0  0  0  0  0  0  0  0  0
  -21.5593   17.4982  -14.4734 C   0  0  0  0  0  0  0  0  0  0  0  0
  -22.6026   18.0994  -14.8101 O   0  0  0  0  0  0  0  0  0  0  0  0
  -20.4656   15.6658  -14.5675 H   0  0  0  0  0  0  0  0  0  0  0  0
  -20.5720   18.2145  -13.6788 C   0  0  0  0  0  0  0  0  0  0  0  0
  -20.0335   19.3437  -14.0833 C   0  0  0  0  0  0  0  0  0  0  0  0
  1  2  1  0  0  0
  2  3  2  0  0  0
  3  4  1  0  0  0
  4  5  2  0  0  0
  5  6  1  0  0  0
  6  7  1  0  0  0
  7  8  1  0  0  0
  8  9  2  0  0  0
  9 13  1  0  0  0
 13 14  2  0  0  0
 14 15  1  0  0  0
 15 16  2  0  0  0
 16 19  1  0  0  0
 19 20  1  0  0  0
 20 21  2  0  0  0
 21 22  1  0  0  0
 22 23  2  0  0  0
 23 24  1  0  0  0
 24 25  2  0  0  0
 16 17  1  0  0  0
 17 18  2  0  0  0
  9 10  1  0  0  0
  7 26  1  0  0  0
 26 27  1  0  0  0
 27 28  1  0  0  0
 28 29  1  0  0  0
 29 30  1  0  0  0
 30 31  1  0  0  0
 29 32  1  0  0  0
 32 33  1  0  0  0
 33 34  2  0  0  0
 33 36  1  0  0  0
 36 37  2  0  0  0
 10  2  1  0  0  0
 31 26  1  0  0  0
 10  6  2  0  0  0
 18 13  1  0  0  0
 25 20  1  0  0  0
  1 11  1  0  0  0
  1 12  1  0  0  0
 32 35  1  0  0  0
M  END
> <minimizedAffinity>
-9.72929

> <CNNscore>
0.5359141827

> <CNNaffinity>
7.3244028091

> <CNN_VS>
3.9252512455

> <CNNaffinity_variance>
0.3889636099

$$$$
[H]c1c([H])c([H])c2c(c1[H])c1c3c(c4c5c([H])c([H])c([H])c([H])c5n5c4c1n2C1([H])OC5([H])[C@]([H])(OC([H])([H])[H])[C@]([H])(N([H])C([H])([H])[H])C1([H])[H])C([H])([H])N([H])C3=O


 36 43  0  0  0  0  0  0  0  0999 V2000
  -19.2815   16.8384  -18.7792 C   0  0  0  0  0  0  0  0  0  0  0  0
  -19.3375   16.9196  -20.2822 C   0  0  0  0  0  0  0  0  0  0  0  0
  -20.0793   15.7633  -20.8960 C   0  0  0  0  0  0  0  0  0  0  0  0
  -21.1537   15.3261  -20.2212 O   0  0  0  0  0  0  0  0  0  0  0  0
  -21.1051   15.2400  -18.8459 C   0  0  0  0  0  0  0  0  0  0  0  0
  -20.5752   16.4683  -18.1511 C   0  0  0  0  0  0  0  0  0  0  0  0
  -20.4252   14.0140  -18.4160 N   0  0  0  0  0  0  0  0  0  0  0  0
  -20.6418   13.3240  -17.2867 C   0  0  0  0  0  0  0  0  0  0  0  0
  -21.4840   13.5129  -16.2254 C   0  0  0  0  0  0  0  0  0  0  0  0
  -21.5469   12.6656  -15.1490 C   0  0  0  0  0  0  0  0  0  0  0  0
  -20.7027   11.5587  -15.1501 C   0  0  0  0  0  0  0  0  0  0  0  0
  -19.8446   11.3329  -16.1928 C   0  0  0  0  0  0  0  0  0  0  0  0
  -19.8228   12.2110  -17.2427 C   0  0  0  0  0  0  0  0  0  0  0  0
  -19.0678   12.2374  -18.4214 C   0  0  0  0  0  0  0  0  0  0  0  0
  -18.1002   11.4299  -18.9697 C   0  0  0  0  0  0  0  0  0  0  0  0
  -17.5133   10.1850  -18.4229 C   0  0  0  0  0  0  0  0  0  0  0  0
  -16.5685    9.7710  -19.4024 N   0  0  0  0  0  0  0  0  0  0  0  0
  -16.5437   10.6899  -20.5069 C   0  0  0  0  0  0  0  0  0  0  0  0
  -15.7918   10.5100  -21.4558 O   0  0  0  0  0  0  0  0  0  0  0  0
  -17.5108   11.7153  -20.2080 C   0  0  0  0  0  0  0  0  0  0  0  0
  -17.9149   12.8426  -20.8966 C   0  0  0  0  0  0  0  0  0  0  0  0
  -17.5462   13.3999  -22.0997 C   0  0  0  0  0  0  0  0  0  0  0  0
  -16.6609   13.0959  -23.1048 C   0  0  0  0  0  0  0  0  0  0  0  0
  -16.5001   13.8703  -24.2401 C   0  0  0  0  0  0  0  0  0  0  0  0
  -17.2781   15.0028  -24.3510 C   0  0  0  0  0  0  0  0  0  0  0  0
  -18.1709   15.3172  -23.3465 C   0  0  0  0  0  0  0  0  0  0  0  0
  -18.3308   14.5455  -22.2155 C   0  0  0  0  0  0  0  0  0  0  0  0
  -19.1287   14.6711  -21.1405 N   0  0  0  0  0  0  0  0  0  0  0  0
  -18.8964   13.6341  -20.3075 C   0  0  0  0  0  0  0  0  0  0  0  0
  -19.4719   13.3525  -19.0975 C   0  0  0  0  0  0  0  0  0  0  0  0
  -15.9694    8.9266  -19.3480 H   0  0  0  0  0  0  0  0  0  0  0  0
  -18.6524   19.1745  -19.0018 C   0  0  0  0  0  0  0  0  0  0  0  0
  -18.6756   17.9904  -18.2184 N   0  0  0  0  0  0  0  0  0  0  0  0
  -18.9667   18.2010  -17.2390 H   0  0  0  0  0  0  0  0  0  0  0  0
  -21.5491   17.4424  -18.1538 O   0  0  0  0  0  0  0  0  0  0  0  0
  -22.6802   16.9988  -17.4656 C   0  0  0  0  0  0  0  0  0  0  0  0
 32 33  1  0  0  0
 33  1  1  0  0  0
  1  2  1  0  0  0
  2  3  1  0  0  0
  3  4  1  0  0  0
  4  5  1  0  0  0
  5  6  1  0  0  0
  6 35  1  0  0  0
 35 36  1  0  0  0
  5  7  1  0  0  0
  7  8  1  0  0  0
  8  9  2  0  0  0
  9 10  1  0  0  0
 10 11  2  0  0  0
 11 12  1  0  0  0
 12 13  2  0  0  0
 13 14  1  0  0  0
 14 15  2  0  0  0
 15 16  1  0  0  0
 16 17  1  0  0  0
 17 18  1  0  0  0
 18 19  2  0  0  0
 18 20  1  0  0  0
 20 21  2  0  0  0
 21 22  1  0  0  0
 22 23  2  0  0  0
 23 24  1  0  0  0
 24 25  2  0  0  0
 25 26  1  0  0  0
 26 27  2  0  0  0
 27 28  1  0  0  0
 28 29  1  0  0  0
 29 30  2  0  0  0
  6  1  1  0  0  0
 30  7  1  0  0  0
 28  3  1  0  0  0
 13  8  1  0  0  0
 30 14  1  0  0  0
 20 15  1  0  0  0
 29 21  1  0  0  0
 27 22  1  0  0  0
 33 34  1  0  0  0
 17 31  1  0  0  0
M  END
> <minimizedAffinity>
-10.72889

> <CNNscore>
0.7556383610

> <CNNaffinity>
7.0095071793

> <CNN_VS>
5.2966523170

> <CNNaffinity_variance>
0.1957966685

$$$$
[H]c1c([H])c([H])c2c(c1[H])c1c3c(c4c5c([H])c([H])c([H])c([H])c5n5c4c1n2C1([H])OC5([H])[C@]([H])(OC([H])([H])[H])[C@]([H])(N([H])C([H])([H])[H])C1([H])[H])C([H])([H])N([H])C3=O


 36 43  0  0  0  0  0  0  0  0999 V2000
  -19.1694   15.7593  -18.0501 C   0  0  0  0  0  0  0  0  0  0  0  0
  -19.5518   16.3666  -19.3744 C   0  0  0  0  0  0  0  0  0  0  0  0
  -20.1597   15.3627  -20.3161 C   0  0  0  0  0  0  0  0  0  0  0  0
  -20.9611   14.4412  -19.7599 O   0  0  0  0  0  0  0  0  0  0  0  0
  -20.6113   13.8743  -18.5526 C   0  0  0  0  0  0  0  0  0  0  0  0
  -20.2038   14.8567  -17.4843 C   0  0  0  0  0  0  0  0  0  0  0  0
  -19.6266   12.8034  -18.7363 N   0  0  0  0  0  0  0  0  0  0  0  0
  -19.4616   11.7175  -17.9669 C   0  0  0  0  0  0  0  0  0  0  0  0
  -20.0850   11.2748  -16.8326 C   0  0  0  0  0  0  0  0  0  0  0  0
  -19.7526   10.1085  -16.1924 C   0  0  0  0  0  0  0  0  0  0  0  0
  -18.7240    9.3450  -16.7373 C   0  0  0  0  0  0  0  0  0  0  0  0
  -18.0742    9.7521  -17.8715 C   0  0  0  0  0  0  0  0  0  0  0  0
  -18.4466   10.9254  -18.4706 C   0  0  0  0  0  0  0  0  0  0  0  0
  -17.9741   11.5800  -19.6144 C   0  0  0  0  0  0  0  0  0  0  0  0
  -17.0007   11.3164  -20.5482 C   0  0  0  0  0  0  0  0  0  0  0  0
  -16.0770   10.1612  -20.6230 C   0  0  0  0  0  0  0  0  0  0  0  0
  -15.2936   10.4003  -21.7859 N   0  0  0  0  0  0  0  0  0  0  0  0
  -15.6827   11.6306  -22.4183 C   0  0  0  0  0  0  0  0  0  0  0  0
  -15.1242   12.0163  -23.4369 O   0  0  0  0  0  0  0  0  0  0  0  0
  -16.7508   12.1800  -21.6224 C   0  0  0  0  0  0  0  0  0  0  0  0
  -17.5055   13.3305  -21.7447 C   0  0  0  0  0  0  0  0  0  0  0  0
  -17.5137   14.3654  -22.6518 C   0  0  0  0  0  0  0  0  0  0  0  0
  -16.8146   14.6962  -23.7868 C   0  0  0  0  0  0  0  0  0  0  0  0
  -17.0510   15.8449  -24.5210 C   0  0  0  0  0  0  0  0  0  0  0  0
  -18.0446   16.6898  -24.0748 C   0  0  0  0  0  0  0  0  0  0  0  0
  -18.7532   16.3664  -22.9353 C   0  0  0  0  0  0  0  0  0  0  0  0
  -18.5173   15.2219  -22.2040 C   0  0  0  0  0  0  0  0  0  0  0  0
  -19.0827   14.7295  -21.0878 N   0  0  0  0  0  0  0  0  0  0  0  0
  -18.4805   13.5613  -20.7787 C   0  0  0  0  0  0  0  0  0  0  0  0
  -18.7237   12.7150  -19.7302 C   0  0  0  0  0  0  0  0  0  0  0  0
  -14.5405    9.7857  -22.1464 H   0  0  0  0  0  0  0  0  0  0  0  0
  -19.1922   18.0671  -17.2906 C   0  0  0  0  0  0  0  0  0  0  0  0
  -18.7019   16.7427  -17.1428 N   0  0  0  0  0  0  0  0  0  0  0  0
  -18.7186   16.4522  -16.1409 H   0  0  0  0  0  0  0  0  0  0  0  0
  -21.3310   15.4688  -16.9821 O   0  0  0  0  0  0  0  0  0  0  0  0
  -21.9130   14.6749  -15.9916 C   0  0  0  0  0  0  0  0  0  0  0  0
 32 33  1  0  0  0
 33  1  1  0  0  0
  1  2  1  0  0  0
  2  3  1  0  0  0
  3  4  1  0  0  0
  4  5  1  0  0  0
  5  6  1  0  0  0
  6 35  1  0  0  0
 35 36  1  0  0  0
  5  7  1  0  0  0
  7  8  1  0  0  0
  8  9  2  0  0  0
  9 10  1  0  0  0
 10 11  2  0  0  0
 11 12  1  0  0  0
 12 13  2  0  0  0
 13 14  1  0  0  0
 14 15  2  0  0  0
 15 16  1  0  0  0
 16 17  1  0  0  0
 17 18  1  0  0  0
 18 19  2  0  0  0
 18 20  1  0  0  0
 20 21  2  0  0  0
 21 22  1  0  0  0
 22 23  2  0  0  0
 23 24  1  0  0  0
 24 25  2  0  0  0
 25 26  1  0  0  0
 26 27  2  0  0  0
 27 28  1  0  0  0
 28 29  1  0  0  0
 29 30  2  0  0  0
  6  1  1  0  0  0
 30  7  1  0  0  0
 28  3  1  0  0  0
 13  8  1  0  0  0
 30 14  1  0  0  0
 20 15  1  0  0  0
 29 21  1  0  0  0
 27 22  1  0  0  0
 33 34  1  0  0  0
 17 31  1  0  0  0
M  END
> <minimizedAffinity>
-11.58410

> <CNNscore>
0.7440701723

> <CNNaffinity>
6.9821906090

> <CNN_VS>
5.1952395439

> <CNNaffinity_variance>
0.1061797887

$$$$
[H]c1c([H])c([H])c2c(c1[H])c1c3c(c4c5c([H])c([H])c([H])c([H])c5n5c4c1n2C1([H])OC5([H])[C@]([H])(OC([H])([H])[H])[C@]([H])(N([H])C([H])([H])[H])C1([H])[H])C([H])([H])N([H])C3=O


 36 43  0  0  0  0  0  0  0  0999 V2000
  -18.9553   17.1231  -19.1578 C   0  0  0  0  0  0  0  0  0  0  0  0
  -19.0546   17.4721  -20.6197 C   0  0  0  0  0  0  0  0  0  0  0  0
  -19.7583   16.4102  -21.4205 C   0  0  0  0  0  0  0  0  0  0  0  0
  -20.7933   15.8049  -20.8177 O   0  0  0  0  0  0  0  0  0  0  0  0
  -20.7045   15.4739  -19.4822 C   0  0  0  0  0  0  0  0  0  0  0  0
  -20.2134   16.5812  -18.5849 C   0  0  0  0  0  0  0  0  0  0  0  0
  -19.9577   14.2260  -19.2947 N   0  0  0  0  0  0  0  0  0  0  0  0
  -20.1124   13.3331  -18.3061 C   0  0  0  0  0  0  0  0  0  0  0  0
  -20.9341   13.2845  -17.2135 C   0  0  0  0  0  0  0  0  0  0  0  0
  -20.9295   12.2542  -16.3084 C   0  0  0  0  0  0  0  0  0  0  0  0
  -20.0356   11.2095  -16.5258 C   0  0  0  0  0  0  0  0  0  0  0  0
  -19.1958   11.2193  -17.6071 C   0  0  0  0  0  0  0  0  0  0  0  0
  -19.2421   12.2729  -18.4799 C   0  0  0  0  0  0  0  0  0  0  0  0
  -18.5205   12.5499  -19.6473 C   0  0  0  0  0  0  0  0  0  0  0  0
  -17.5316   11.9044  -20.3503 C   0  0  0  0  0  0  0  0  0  0  0  0
  -16.8738   10.6121  -20.0496 C   0  0  0  0  0  0  0  0  0  0  0  0
  -15.9371   10.4300  -21.1046 N   0  0  0  0  0  0  0  0  0  0  0  0
  -15.9839   11.5337  -22.0237 C   0  0  0  0  0  0  0  0  0  0  0  0
  -15.2498   11.5663  -23.0025 O   0  0  0  0  0  0  0  0  0  0  0  0
  -16.9890   12.4384  -21.5261 C   0  0  0  0  0  0  0  0  0  0  0  0
  -17.4626   13.6499  -21.9909 C   0  0  0  0  0  0  0  0  0  0  0  0
  -17.1518   14.4335  -23.0787 C   0  0  0  0  0  0  0  0  0  0  0  0
  -16.2804   14.3611  -24.1379 C   0  0  0  0  0  0  0  0  0  0  0  0
  -16.1854   15.3352  -25.1159 C   0  0  0  0  0  0  0  0  0  0  0  0
  -17.0174   16.4287  -25.0051 C   0  0  0  0  0  0  0  0  0  0  0  0
  -17.8969   16.5110  -23.9445 C   0  0  0  0  0  0  0  0  0  0  0  0
  -17.9911   15.5404  -22.9702 C   0  0  0  0  0  0  0  0  0  0  0  0
  -18.7652   15.4293  -21.8764 N   0  0  0  0  0  0  0  0  0  0  0  0
  -18.4636   14.2717  -21.2504 C   0  0  0  0  0  0  0  0  0  0  0  0
  -18.9933   13.7473  -20.1019 C   0  0  0  0  0  0  0  0  0  0  0  0
  -15.2987    9.6208  -21.2154 H   0  0  0  0  0  0  0  0  0  0  0  0
  -18.7787   19.5091  -18.7346 C   0  0  0  0  0  0  0  0  0  0  0  0
  -18.3885   18.1835  -18.4075 N   0  0  0  0  0  0  0  0  0  0  0  0
  -18.4003   18.0392  -17.3743 H   0  0  0  0  0  0  0  0  0  0  0  0
  -21.2309   17.4897  -18.3931 O   0  0  0  0  0  0  0  0  0  0  0  0
  -21.7731   17.3474  -17.1142 C   0  0  0  0  0  0  0  0  0  0  0  0
 32 33  1  0  0  0
 33  1  1  0  0  0
  1  2  1  0  0  0
  2  3  1  0  0  0
  3  4  1  0  0  0
  4  5  1  0  0  0
  5  6  1  0  0  0
  6 35  1  0  0  0
 35 36  1  0  0  0
  5  7  1  0  0  0
  7  8  1  0  0  0
  8  9  2  0  0  0
  9 10  1  0  0  0
 10 11  2  0  0  0
 11 12  1  0  0  0
 12 13  2  0  0  0
 13 14  1  0  0  0
 14 15  2  0  0  0
 15 16  1  0  0  0
 16 17  1  0  0  0
 17 18  1  0  0  0
 18 19  2  0  0  0
 18 20  1  0  0  0
 20 21  2  0  0  0
 21 22  1  0  0  0
 22 23  2  0  0  0
 23 24  1  0  0  0
 24 25  2  0  0  0
 25 26  1  0  0  0
 26 27  2  0  0  0
 27 28  1  0  0  0
 28 29  1  0  0  0
 29 30  2  0  0  0
  6  1  1  0  0  0
 30  7  1  0  0  0
 28  3  1  0  0  0
 13  8  1  0  0  0
 30 14  1  0  0  0
 20 15  1  0  0  0
 29 21  1  0  0  0
 27 22  1  0  0  0
 33 34  1  0  0  0
 17 31  1  0  0  0
M  END
> <minimizedAffinity>
-10.58235

> <CNNscore>
0.5678716302

> <CNNaffinity>
6.8877434731

> <CNN_VS>
3.9113540649

> <CNNaffinity_variance>
0.2545608878

$$$$
[H]c1c([H])c([H])c2c(c1[H])c1c3c(c4c5c([H])c([H])c([H])c([H])c5n5c4c1n2C1([H])OC5([H])[C@]([H])(OC([H])([H])[H])[C@]([H])(N([H])C([H])([H])[H])C1([H])[H])C([H])([H])N([H])C3=O


 36 43  0  0  0  0  0  0  0  0999 V2000
  -19.5962   16.7406  -17.7593 C   0  0  0  0  0  0  0  0  0  0  0  0
  -19.5662   16.7057  -19.2649 C   0  0  0  0  0  0  0  0  0  0  0  0
  -20.4364   15.6185  -19.8349 C   0  0  0  0  0  0  0  0  0  0  0  0
  -21.5945   15.3929  -19.1954 O   0  0  0  0  0  0  0  0  0  0  0  0
  -21.6262   15.4137  -17.8171 C   0  0  0  0  0  0  0  0  0  0  0  0
  -20.9590   16.6082  -17.1845 C   0  0  0  0  0  0  0  0  0  0  0  0
  -21.1525   14.1438  -17.2576 N   0  0  0  0  0  0  0  0  0  0  0  0
  -21.5215   13.5858  -16.0954 C   0  0  0  0  0  0  0  0  0  0  0  0
  -22.3786   13.9771  -15.1036 C   0  0  0  0  0  0  0  0  0  0  0  0
  -22.6160   13.2379  -13.9732 C   0  0  0  0  0  0  0  0  0  0  0  0
  -21.9416   12.0272  -13.8416 C   0  0  0  0  0  0  0  0  0  0  0  0
  -21.0751   11.5987  -14.8112 C   0  0  0  0  0  0  0  0  0  0  0  0
  -20.8752   12.3763  -15.9200 C   0  0  0  0  0  0  0  0  0  0  0  0
  -20.0675   12.2000  -17.0499 C   0  0  0  0  0  0  0  0  0  0  0  0
  -19.2011   11.2226  -17.4777 C   0  0  0  0  0  0  0  0  0  0  0  0
  -18.8277    9.9566  -16.8060 C   0  0  0  0  0  0  0  0  0  0  0  0
  -17.9059    9.3355  -17.6935 N   0  0  0  0  0  0  0  0  0  0  0  0
  -17.6945   10.1484  -18.8595 C   0  0  0  0  0  0  0  0  0  0  0  0
  -16.9309    9.7878  -19.7455 O   0  0  0  0  0  0  0  0  0  0  0  0
  -18.5167   11.3203  -18.6960 C   0  0  0  0  0  0  0  0  0  0  0  0
  -18.7194   12.4329  -19.4892 C   0  0  0  0  0  0  0  0  0  0  0  0
  -18.2155   12.8327  -20.7059 C   0  0  0  0  0  0  0  0  0  0  0  0
  -17.3354   12.3263  -21.6307 C   0  0  0  0  0  0  0  0  0  0  0  0
  -17.0090   12.9750  -22.8085 C   0  0  0  0  0  0  0  0  0  0  0  0
  -17.6087   14.1926  -23.0495 C   0  0  0  0  0  0  0  0  0  0  0  0
  -18.4948   14.7102  -22.1264 C   0  0  0  0  0  0  0  0  0  0  0  0
  -18.8198   14.0636  -20.9531 C   0  0  0  0  0  0  0  0  0  0  0  0
  -19.6428   14.3874  -19.9403 N   0  0  0  0  0  0  0  0  0  0  0  0
  -19.6039   13.3998  -19.0204 C   0  0  0  0  0  0  0  0  0  0  0  0
  -20.2726   13.3016  -17.8297 C   0  0  0  0  0  0  0  0  0  0  0  0
  -17.4386    8.4228  -17.5409 H   0  0  0  0  0  0  0  0  0  0  0  0
  -19.0454   18.1864  -15.8860 C   0  0  0  0  0  0  0  0  0  0  0  0
  -18.8584   17.8382  -17.2499 N   0  0  0  0  0  0  0  0  0  0  0  0
  -17.8440   17.8301  -17.4935 H   0  0  0  0  0  0  0  0  0  0  0  0
  -21.7805   17.7058  -17.3179 O   0  0  0  0  0  0  0  0  0  0  0  0
  -22.9651   17.5142  -16.6037 C   0  0  0  0  0  0  0  0  0  0  0  0
 32 33  1  0  0  0
 33  1  1  0  0  0
  1  2  1  0  0  0
  2  3  1  0  0  0
  3  4  1  0  0  0
  4  5  1  0  0  0
  5  6  1  0  0  0
  6 35  1  0  0  0
 35 36  1  0  0  0
  5  7  1  0  0  0
  7  8  1  0  0  0
  8  9  2  0  0  0
  9 10  1  0  0  0
 10 11  2  0  0  0
 11 12  1  0  0  0
 12 13  2  0  0  0
 13 14  1  0  0  0
 14 15  2  0  0  0
 15 16  1  0  0  0
 16 17  1  0  0  0
 17 18  1  0  0  0
 18 19  2  0  0  0
 18 20  1  0  0  0
 20 21  2  0  0  0
 21 22  1  0  0  0
 22 23  2  0  0  0
 23 24  1  0  0  0
 24 25  2  0  0  0
 25 26  1  0  0  0
 26 27  2  0  0  0
 27 28  1  0  0  0
 28 29  1  0  0  0
 29 30  2  0  0  0
  6  1  1  0  0  0
 30  7  1  0  0  0
 28  3  1  0  0  0
 13  8  1  0  0  0
 30 14  1  0  0  0
 20 15  1  0  0  0
 29 21  1  0  0  0
 27 22  1  0  0  0
 33 34  1  0  0  0
 17 31  1  0  0  0
M  END
> <minimizedAffinity>
-10.02376

> <CNNscore>
0.5540695190

> <CNNaffinity>
6.4693260193

> <CNN_VS>
3.5844564438

> <CNNaffinity_variance>
0.2300771773

$$$$
[H]c1c([H])c([H])c2c(c1[H])c1c3c(c4c5c([H])c([H])c([H])c([H])c5n5c4c1n2C1([H])OC5([H])[C@]([H])(OC([H])([H])[H])[C@]([H])(N([H])C([H])([H])[H])C1([H])[H])C([H])([H])N([H])C3=O


 36 43  0  0  0  0  0  0  0  0999 V2000
  -21.2908   15.9012  -17.9989 C   0  0  0  0  0  0  0  0  0  0  0  0
  -21.0892   14.9598  -16.8405 C   0  0  0  0  0  0  0  0  0  0  0  0
  -19.6349   14.7242  -16.5341 C   0  0  0  0  0  0  0  0  0  0  0  0
  -18.8240   15.7852  -16.6675 O   0  0  0  0  0  0  0  0  0  0  0  0
  -18.9973   16.6450  -17.7314 C   0  0  0  0  0  0  0  0  0  0  0  0
  -20.4167   17.1008  -17.9547 C   0  0  0  0  0  0  0  0  0  0  0  0
  -18.3806   16.1106  -18.9496 N   0  0  0  0  0  0  0  0  0  0  0  0
  -17.8692   16.8132  -19.9709 C   0  0  0  0  0  0  0  0  0  0  0  0
  -17.7675   18.1542  -20.2219 C   0  0  0  0  0  0  0  0  0  0  0  0
  -17.1935   18.6705  -21.3553 C   0  0  0  0  0  0  0  0  0  0  0  0
  -16.6921   17.7702  -22.2912 C   0  0  0  0  0  0  0  0  0  0  0  0
  -16.7738   16.4202  -22.0786 C   0  0  0  0  0  0  0  0  0  0  0  0
  -17.3570   15.9585  -20.9294 C   0  0  0  0  0  0  0  0  0  0  0  0
  -17.5767   14.6614  -20.4505 C   0  0  0  0  0  0  0  0  0  0  0  0
  -17.3032   13.3979  -20.9170 C   0  0  0  0  0  0  0  0  0  0  0  0
  -16.6416   12.9999  -22.1808 C   0  0  0  0  0  0  0  0  0  0  0  0
  -16.6191   11.5781  -22.1440 N   0  0  0  0  0  0  0  0  0  0  0  0
  -17.2294   11.0898  -20.9382 C   0  0  0  0  0  0  0  0  0  0  0  0
  -17.3105    9.8885  -20.7181 O   0  0  0  0  0  0  0  0  0  0  0  0
  -17.6469   12.2496  -20.1921 C   0  0  0  0  0  0  0  0  0  0  0  0
  -18.2801   12.3935  -18.9728 C   0  0  0  0  0  0  0  0  0  0  0  0
  -18.7458   11.4988  -18.0366 C   0  0  0  0  0  0  0  0  0  0  0  0
  -18.7814   10.1326  -17.9006 C   0  0  0  0  0  0  0  0  0  0  0  0
  -19.3346    9.4886  -16.8080 C   0  0  0  0  0  0  0  0  0  0  0  0
  -19.8735   10.2761  -15.8132 C   0  0  0  0  0  0  0  0  0  0  0  0
  -19.8426   11.6502  -15.9402 C   0  0  0  0  0  0  0  0  0  0  0  0
  -19.2915   12.2914  -17.0289 C   0  0  0  0  0  0  0  0  0  0  0  0
  -19.1614   13.5927  -17.3415 N   0  0  0  0  0  0  0  0  0  0  0  0
  -18.5396   13.6892  -18.5360 C   0  0  0  0  0  0  0  0  0  0  0  0
  -18.2016   14.8101  -19.2459 C   0  0  0  0  0  0  0  0  0  0  0  0
  -16.2225   10.9590  -22.8749 H   0  0  0  0  0  0  0  0  0  0  0  0
  -23.0007   17.1308  -19.2105 C   0  0  0  0  0  0  0  0  0  0  0  0
  -22.6633   16.1935  -18.1985 N   0  0  0  0  0  0  0  0  0  0  0  0
  -23.2827   15.3556  -18.2495 H   0  0  0  0  0  0  0  0  0  0  0  0
  -20.7390   18.0491  -17.0090 O   0  0  0  0  0  0  0  0  0  0  0  0
  -19.8393   19.1155  -17.0658 C   0  0  0  0  0  0  0  0  0  0  0  0
 32 33  1  0  0  0
 33  1  1  0  0  0
  1  2  1  0  0  0
  2  3  1  0  0  0
  3  4  1  0  0  0
  4  5  1  0  0  0
  5  6  1  0  0  0
  6 35  1  0  0  0
 35 36  1  0  0  0
  5  7  1  0  0  0
  7  8  1  0  0  0
  8  9  2  0  0  0
  9 10  1  0  0  0
 10 11  2  0  0  0
 11 12  1  0  0  0
 12 13  2  0  0  0
 13 14  1  0  0  0
 14 15  2  0  0  0
 15 16  1  0  0  0
 16 17  1  0  0  0
 17 18  1  0  0  0
 18 19  2  0  0  0
 18 20  1  0  0  0
 20 21  2  0  0  0
 21 22  1  0  0  0
 22 23  2  0  0  0
 23 24  1  0  0  0
 24 25  2  0  0  0
 25 26  1  0  0  0
 26 27  2  0  0  0
 27 28  1  0  0  0
 28 29  1  0  0  0
 29 30  2  0  0  0
  6  1  1  0  0  0
 30  7  1  0  0  0
 28  3  1  0  0  0
 13  8  1  0  0  0
 30 14  1  0  0  0
 20 15  1  0  0  0
 29 21  1  0  0  0
 27 22  1  0  0  0
 33 34  1  0  0  0
 17 31  1  0  0  0
M  END
> <minimizedAffinity>
-9.05322

> <CNNscore>
0.4686566889

> <CNNaffinity>
6.6245422363

> <CNN_VS>
3.1046359539

> <CNNaffinity_variance>
0.0905854926

$$$$
[H]c1c([H])c([H])c2c(c1[H])c1c3c(c4c5c([H])c([H])c([H])c([H])c5n5c4c1n2C1([H])OC5([H])[C@]([H])(OC([H])([H])[H])[C@]([H])(N([H])C([H])([H])[H])C1([H])[H])C([H])([H])N([H])C3=O


 36 43  0  0  0  0  0  0  0  0999 V2000
  -21.7962   18.8134  -22.7989 C   0  0  0  0  0  0  0  0  0  0  0  0
  -21.6680   17.5326  -23.5810 C   0  0  0  0  0  0  0  0  0  0  0  0
  -21.3948   16.3432  -22.7007 C   0  0  0  0  0  0  0  0  0  0  0  0
  -22.0237   16.3291  -21.5153 O   0  0  0  0  0  0  0  0  0  0  0  0
  -22.1354   17.4965  -20.7901 C   0  0  0  0  0  0  0  0  0  0  0  0
  -22.6262   18.6866  -21.5743 C   0  0  0  0  0  0  0  0  0  0  0  0
  -20.9011   17.7808  -20.0513 N   0  0  0  0  0  0  0  0  0  0  0  0
  -20.7890   18.4427  -18.8904 C   0  0  0  0  0  0  0  0  0  0  0  0
  -21.7015   19.0467  -18.0694 C   0  0  0  0  0  0  0  0  0  0  0  0
  -21.3650   19.6811  -16.9011 C   0  0  0  0  0  0  0  0  0  0  0  0
  -20.0196   19.7038  -16.5446 C   0  0  0  0  0  0  0  0  0  0  0  0
  -19.0743   19.1112  -17.3382 C   0  0  0  0  0  0  0  0  0  0  0  0
  -19.4653   18.4912  -18.4943 C   0  0  0  0  0  0  0  0  0  0  0  0
  -18.7391   17.8152  -19.4822 C   0  0  0  0  0  0  0  0  0  0  0  0
  -17.4117   17.5146  -19.6728 C   0  0  0  0  0  0  0  0  0  0  0  0
  -16.2526   17.8533  -18.8154 C   0  0  0  0  0  0  0  0  0  0  0  0
  -15.1307   17.2945  -19.4881 N   0  0  0  0  0  0  0  0  0  0  0  0
  -15.5377   16.6416  -20.7018 C   0  0  0  0  0  0  0  0  0  0  0  0
  -14.7156   16.0977  -21.4275 O   0  0  0  0  0  0  0  0  0  0  0  0
  -16.9675   16.7958  -20.7900 C   0  0  0  0  0  0  0  0  0  0  0  0
  -17.8925   16.3782  -21.7272 C   0  0  0  0  0  0  0  0  0  0  0  0
  -17.7940   15.6780  -22.9079 C   0  0  0  0  0  0  0  0  0  0  0  0
  -16.7837   15.1053  -23.6411 C   0  0  0  0  0  0  0  0  0  0  0  0
  -16.9909   14.4402  -24.8366 C   0  0  0  0  0  0  0  0  0  0  0  0
  -18.2864   14.3579  -25.3005 C   0  0  0  0  0  0  0  0  0  0  0  0
  -19.3090   14.9301  -24.5710 C   0  0  0  0  0  0  0  0  0  0  0  0
  -19.1021   15.5927  -23.3801 C   0  0  0  0  0  0  0  0  0  0  0  0
  -19.9426   16.2081  -22.5299 N   0  0  0  0  0  0  0  0  0  0  0  0
  -19.2263   16.7029  -21.4979 C   0  0  0  0  0  0  0  0  0  0  0  0
  -19.6582   17.4047  -20.4045 C   0  0  0  0  0  0  0  0  0  0  0  0
  -14.1464   17.3398  -19.1659 H   0  0  0  0  0  0  0  0  0  0  0  0
  -21.7445   21.2003  -23.2497 C   0  0  0  0  0  0  0  0  0  0  0  0
  -22.1612   19.8985  -23.6345 N   0  0  0  0  0  0  0  0  0  0  0  0
  -21.9888   19.7408  -24.6513 H   0  0  0  0  0  0  0  0  0  0  0  0
  -23.9838   18.5652  -21.7739 O   0  0  0  0  0  0  0  0  0  0  0  0
  -24.6811   19.0193  -20.6526 C   0  0  0  0  0  0  0  0  0  0  0  0
 32 33  1  0  0  0
 33  1  1  0  0  0
  1  2  1  0  0  0
  2  3  1  0  0  0
  3  4  1  0  0  0
  4  5  1  0  0  0
  5  6  1  0  0  0
  6 35  1  0  0  0
 35 36  1  0  0  0
  5  7  1  0  0  0
  7  8  1  0  0  0
  8  9  2  0  0  0
  9 10  1  0  0  0
 10 11  2  0  0  0
 11 12  1  0  0  0
 12 13  2  0  0  0
 13 14  1  0  0  0
 14 15  2  0  0  0
 15 16  1  0  0  0
 16 17  1  0  0  0
 17 18  1  0  0  0
 18 19  2  0  0  0
 18 20  1  0  0  0
 20 21  2  0  0  0
 21 22  1  0  0  0
 22 23  2  0  0  0
 23 24  1  0  0  0
 24 25  2  0  0  0
 25 26  1  0  0  0
 26 27  2  0  0  0
 27 28  1  0  0  0
 28 29  1  0  0  0
 29 30  2  0  0  0
  6  1  1  0  0  0
 30  7  1  0  0  0
 28  3  1  0  0  0
 13  8  1  0  0  0
 30 14  1  0  0  0
 20 15  1  0  0  0
 29 21  1  0  0  0
 27 22  1  0  0  0
 33 34  1  0  0  0
 17 31  1  0  0  0
M  END
> <minimizedAffinity>
2.97454

> <CNNscore>
0.3803734183

> <CNNaffinity>
6.0335783958

> <CNN_VS>
2.2950129509

> <CNNaffinity_variance>
1.3057219982

$$$$
[H]c1c([H])c([H])c2c(c1[H])c1c3c(c4c5c([H])c([H])c([H])c([H])c5n5c4c1n2C1([H])OC5([H])[C@]([H])(OC([H])([H])[H])[C@]([H])(N([H])C([H])([H])[H])C1([H])[H])C([H])([H])N([H])C3=O


 36 43  0  0  0  0  0  0  0  0999 V2000
  -18.3993   18.3067  -21.3320 C   0  0  0  0  0  0  0  0  0  0  0  0
  -18.2158   18.2922  -22.8269 C   0  0  0  0  0  0  0  0  0  0  0  0
  -18.9843   17.1829  -23.4925 C   0  0  0  0  0  0  0  0  0  0  0  0
  -20.1923   16.9091  -22.9762 O   0  0  0  0  0  0  0  0  0  0  0  0
  -20.3642   16.9110  -21.6081 C   0  0  0  0  0  0  0  0  0  0  0  0
  -19.8076   18.1197  -20.8999 C   0  0  0  0  0  0  0  0  0  0  0  0
  -19.9043   15.6512  -21.0152 N   0  0  0  0  0  0  0  0  0  0  0  0
  -20.3689   15.0658  -19.9016 C   0  0  0  0  0  0  0  0  0  0  0  0
  -21.3354   15.4144  -18.9985 C   0  0  0  0  0  0  0  0  0  0  0  0
  -21.6593   14.6529  -17.9050 C   0  0  0  0  0  0  0  0  0  0  0  0
  -20.9588   13.4647  -17.7168 C   0  0  0  0  0  0  0  0  0  0  0  0
  -19.9838   13.0791  -18.5972 C   0  0  0  0  0  0  0  0  0  0  0  0
  -19.7007   13.8773  -19.6727 C   0  0  0  0  0  0  0  0  0  0  0  0
  -18.7769   13.7437  -20.7163 C   0  0  0  0  0  0  0  0  0  0  0  0
  -17.8372   12.8026  -21.0628 C   0  0  0  0  0  0  0  0  0  0  0  0
  -17.4886   11.5418  -20.3685 C   0  0  0  0  0  0  0  0  0  0  0  0
  -16.4600   10.9645  -21.1634 N   0  0  0  0  0  0  0  0  0  0  0  0
  -16.1609   11.7992  -22.2943 C   0  0  0  0  0  0  0  0  0  0  0  0
  -15.2991   11.4768  -23.1015 O   0  0  0  0  0  0  0  0  0  0  0  0
  -17.0370   12.9397  -22.2044 C   0  0  0  0  0  0  0  0  0  0  0  0
  -17.1981   14.0547  -23.0037 C   0  0  0  0  0  0  0  0  0  0  0  0
  -16.5883   14.4873  -24.1591 C   0  0  0  0  0  0  0  0  0  0  0  0
  -15.6014   14.0237  -24.9943 C   0  0  0  0  0  0  0  0  0  0  0  0
  -15.1809   14.6985  -26.1267 C   0  0  0  0  0  0  0  0  0  0  0  0
  -15.7964   15.8975  -26.4161 C   0  0  0  0  0  0  0  0  0  0  0  0
  -16.7894   16.3721  -25.5832 C   0  0  0  0  0  0  0  0  0  0  0  0
  -17.2081   15.6996  -24.4550 C   0  0  0  0  0  0  0  0  0  0  0  0
  -18.1405   15.9816  -23.5281 N   0  0  0  0  0  0  0  0  0  0  0  0
  -18.1596   14.9842  -22.6183 C   0  0  0  0  0  0  0  0  0  0  0  0
  -18.9414   14.8475  -21.5026 C   0  0  0  0  0  0  0  0  0  0  0  0
  -15.9781   10.0667  -20.9726 H   0  0  0  0  0  0  0  0  0  0  0  0
  -17.0509   19.2135  -19.5258 C   0  0  0  0  0  0  0  0  0  0  0  0
  -17.7567   19.4227  -20.7401 N   0  0  0  0  0  0  0  0  0  0  0  0
  -17.1921   19.9997  -21.4009 H   0  0  0  0  0  0  0  0  0  0  0  0
  -20.6503   19.1897  -21.1059 O   0  0  0  0  0  0  0  0  0  0  0  0
  -20.9846   19.7849  -19.8877 C   0  0  0  0  0  0  0  0  0  0  0  0
 32 33  1  0  0  0
 33  1  1  0  0  0
  1  2  1  0  0  0
  2  3  1  0  0  0
  3  4  1  0  0  0
  4  5  1  0  0  0
  5  6  1  0  0  0
  6 35  1  0  0  0
 35 36  1  0  0  0
  5  7  1  0  0  0
  7  8  1  0  0  0
  8  9  2  0  0  0
  9 10  1  0  0  0
 10 11  2  0  0  0
 11 12  1  0  0  0
 12 13  2  0  0  0
 13 14  1  0  0  0
 14 15  2  0  0  0
 15 16  1  0  0  0
 16 17  1  0  0  0
 17 18  1  0  0  0
 18 19  2  0  0  0
 18 20  1  0  0  0
 20 21  2  0  0  0
 21 22  1  0  0  0
 22 23  2  0  0  0
 23 24  1  0  0  0
 24 25  2  0  0  0
 25 26  1  0  0  0
 26 27  2  0  0  0
 27 28  1  0  0  0
 28 29  1  0  0  0
 29 30  2  0  0  0
  6  1  1  0  0  0
 30  7  1  0  0  0
 28  3  1  0  0  0
 13  8  1  0  0  0
 30 14  1  0  0  0
 20 15  1  0  0  0
 29 21  1  0  0  0
 27 22  1  0  0  0
 33 34  1  0  0  0
 17 31  1  0  0  0
M  END
> <minimizedAffinity>
-8.46404

> <CNNscore>
0.3626596332

> <CNNaffinity>
6.6705994606

> <CNN_VS>
2.4191572666

> <CNNaffinity_variance>
0.1755697876

$$$$
[H]c1c([H])c([H])c2c(c1[H])c1c3c(c4c5c([H])c([H])c([H])c([H])c5n5c4c1n2C1([H])OC5([H])[C@]([H])(OC([H])([H])[H])[C@]([H])(N([H])C([H])([H])[H])C1([H])[H])C([H])([H])N([H])C3=O


 36 43  0  0  0  0  0  0  0  0999 V2000
  -19.2673   18.8945  -20.7508 C   0  0  0  0  0  0  0  0  0  0  0  0
  -19.0164   18.5637  -22.1987 C   0  0  0  0  0  0  0  0  0  0  0  0
  -19.8568   17.4129  -22.6823 C   0  0  0  0  0  0  0  0  0  0  0  0
  -21.1084   17.3530  -22.2019 O   0  0  0  0  0  0  0  0  0  0  0  0
  -21.3430   17.6450  -20.8749 C   0  0  0  0  0  0  0  0  0  0  0  0
  -20.7057   18.9194  -20.3830 C   0  0  0  0  0  0  0  0  0  0  0  0
  -21.0354   16.4958  -20.0178 N   0  0  0  0  0  0  0  0  0  0  0  0
  -21.6059   16.1884  -18.8437 C   0  0  0  0  0  0  0  0  0  0  0  0
  -22.5752   16.7931  -18.0913 C   0  0  0  0  0  0  0  0  0  0  0  0
  -23.0220   16.2978  -16.8930 C   0  0  0  0  0  0  0  0  0  0  0  0
  -22.4493   15.1164  -16.4303 C   0  0  0  0  0  0  0  0  0  0  0  0
  -21.4762   14.4795  -17.1527 C   0  0  0  0  0  0  0  0  0  0  0  0
  -21.0672   15.0177  -18.3431 C   0  0  0  0  0  0  0  0  0  0  0  0
  -20.1130   14.5982  -19.2779 C   0  0  0  0  0  0  0  0  0  0  0  0
  -19.2536   13.5298  -19.3712 C   0  0  0  0  0  0  0  0  0  0  0  0
  -19.0615   12.4095  -18.4219 C   0  0  0  0  0  0  0  0  0  0  0  0
  -18.0576   11.5981  -19.0196 N   0  0  0  0  0  0  0  0  0  0  0  0
  -17.6267   12.1594  -20.2703 C   0  0  0  0  0  0  0  0  0  0  0  0
  -16.7634   11.6085  -20.9407 O   0  0  0  0  0  0  0  0  0  0  0  0
  -18.3915   13.3652  -20.4630 C   0  0  0  0  0  0  0  0  0  0  0  0
  -18.4065   14.3061  -21.4743 C   0  0  0  0  0  0  0  0  0  0  0  0
  -17.7044   14.4435  -22.6499 C   0  0  0  0  0  0  0  0  0  0  0  0
  -16.7292   13.7386  -23.3120 C   0  0  0  0  0  0  0  0  0  0  0  0
  -16.1929   14.1331  -24.5250 C   0  0  0  0  0  0  0  0  0  0  0  0
  -16.6754   15.2974  -25.0834 C   0  0  0  0  0  0  0  0  0  0  0  0
  -17.6555   16.0132  -24.4261 C   0  0  0  0  0  0  0  0  0  0  0  0
  -18.1895   15.6199  -23.2175 C   0  0  0  0  0  0  0  0  0  0  0  0
  -19.1325   16.1614  -22.4266 N   0  0  0  0  0  0  0  0  0  0  0  0
  -19.2904   15.3729  -21.3420 C   0  0  0  0  0  0  0  0  0  0  0  0
  -20.1330   15.5310  -20.2745 C   0  0  0  0  0  0  0  0  0  0  0  0
  -17.6743   10.7192  -18.6254 H   0  0  0  0  0  0  0  0  0  0  0  0
  -18.5424   21.1642  -21.2260 C   0  0  0  0  0  0  0  0  0  0  0  0
  -18.5480   20.0476  -20.3488 N   0  0  0  0  0  0  0  0  0  0  0  0
  -18.7266   20.3503  -19.3665 H   0  0  0  0  0  0  0  0  0  0  0  0
  -21.4304   19.9941  -20.8492 O   0  0  0  0  0  0  0  0  0  0  0  0
  -22.6485   20.0874  -20.1728 C   0  0  0  0  0  0  0  0  0  0  0  0
 32 33  1  0  0  0
 33  1  1  0  0  0
  1  2  1  0  0  0
  2  3  1  0  0  0
  3  4  1  0  0  0
  4  5  1  0  0  0
  5  6  1  0  0  0
  6 35  1  0  0  0
 35 36  1  0  0  0
  5  7  1  0  0  0
  7  8  1  0  0  0
  8  9  2  0  0  0
  9 10  1  0  0  0
 10 11  2  0  0  0
 11 12  1  0  0  0
 12 13  2  0  0  0
 13 14  1  0  0  0
 14 15  2  0  0  0
 15 16  1  0  0  0
 16 17  1  0  0  0
 17 18  1  0  0  0
 18 19  2  0  0  0
 18 20  1  0  0  0
 20 21  2  0  0  0
 21 22  1  0  0  0
 22 23  2  0  0  0
 23 24  1  0  0  0
 24 25  2  0  0  0
 25 26  1  0  0  0
 26 27  2  0  0  0
 27 28  1  0  0  0
 28 29  1  0  0  0
 29 30  2  0  0  0
  6  1  1  0  0  0
 30  7  1  0  0  0
 28  3  1  0  0  0
 13  8  1  0  0  0
 30 14  1  0  0  0
 20 15  1  0  0  0
 29 21  1  0  0  0
 27 22  1  0  0  0
 33 34  1  0  0  0
 17 31  1  0  0  0
M  END
> <minimizedAffinity>
-8.75401

> <CNNscore>
0.3400728405

> <CNNaffinity>
6.3862962723

> <CNN_VS>
2.1718058586

> <CNNaffinity_variance>
0.1832977533

$$$$
[H]c1c([H])c([H])c2c(c1[H])c1c3c(c4c5c([H])c([H])c([H])c([H])c5n5c4c1n2C1([H])OC5([H])[C@]([H])(OC([H])([H])[H])[C@]([H])(N([H])C([H])([H])[H])C1([H])[H])C([H])([H])N([H])C3=O


 36 43  0  0  0  0  0  0  0  0999 V2000
  -18.2803   16.4736  -19.4155 C   0  0  0  0  0  0  0  0  0  0  0  0
  -17.8739   15.5136  -20.5027 C   0  0  0  0  0  0  0  0  0  0  0  0
  -18.9607   14.5290  -20.8397 C   0  0  0  0  0  0  0  0  0  0  0  0
  -20.2155   15.0043  -20.8182 O   0  0  0  0  0  0  0  0  0  0  0  0
  -20.5963   15.8757  -19.8197 C   0  0  0  0  0  0  0  0  0  0  0  0
  -19.6490   17.0243  -19.5840 C   0  0  0  0  0  0  0  0  0  0  0  0
  -20.9242   15.1554  -18.5853 N   0  0  0  0  0  0  0  0  0  0  0  0
  -21.7997   15.5289  -17.6407 C   0  0  0  0  0  0  0  0  0  0  0  0
  -22.6090   16.6227  -17.4994 C   0  0  0  0  0  0  0  0  0  0  0  0
  -23.4474   16.8107  -16.4306 C   0  0  0  0  0  0  0  0  0  0  0  0
  -23.4651   15.8280  -15.4448 C   0  0  0  0  0  0  0  0  0  0  0  0
  -22.6706   14.7178  -15.5478 C   0  0  0  0  0  0  0  0  0  0  0  0
  -21.8520   14.5802  -16.6364 C   0  0  0  0  0  0  0  0  0  0  0  0
  -20.9496   13.5750  -17.0040 C   0  0  0  0  0  0  0  0  0  0  0  0
  -20.5497   12.3827  -16.4495 C   0  0  0  0  0  0  0  0  0  0  0  0
  -20.9906   11.7563  -15.1820 C   0  0  0  0  0  0  0  0  0  0  0  0
  -20.2591   10.5386  -15.1078 N   0  0  0  0  0  0  0  0  0  0  0  0
  -19.3996   10.3901  -16.2497 C   0  0  0  0  0  0  0  0  0  0  0  0
  -18.6833    9.4051  -16.3719 O   0  0  0  0  0  0  0  0  0  0  0  0
  -19.6030   11.5573  -17.0697 C   0  0  0  0  0  0  0  0  0  0  0  0
  -19.0557   11.9556  -18.2739 C   0  0  0  0  0  0  0  0  0  0  0  0
  -18.1240   11.3993  -19.1203 C   0  0  0  0  0  0  0  0  0  0  0  0
  -17.3655   10.2546  -19.1473 C   0  0  0  0  0  0  0  0  0  0  0  0
  -16.4804    9.9495  -20.1662 C   0  0  0  0  0  0  0  0  0  0  0  0
  -16.3675   10.8537  -21.2005 C   0  0  0  0  0  0  0  0  0  0  0  0
  -17.1255   12.0071  -21.1830 C   0  0  0  0  0  0  0  0  0  0  0  0
  -18.0070   12.3109  -20.1677 C   0  0  0  0  0  0  0  0  0  0  0  0
  -18.8240   13.3591  -19.9629 N   0  0  0  0  0  0  0  0  0  0  0  0
  -19.4864   13.1691  -18.8018 C   0  0  0  0  0  0  0  0  0  0  0  0
  -20.4128   13.9736  -18.1943 C   0  0  0  0  0  0  0  0  0  0  0  0
  -20.3214    9.8396  -14.3447 H   0  0  0  0  0  0  0  0  0  0  0  0
  -16.3607   17.7147  -20.2390 C   0  0  0  0  0  0  0  0  0  0  0  0
  -17.2850   17.4577  -19.1921 N   0  0  0  0  0  0  0  0  0  0  0  0
  -17.6405   18.3503  -18.7856 H   0  0  0  0  0  0  0  0  0  0  0  0
  -19.8077   17.9523  -20.5895 O   0  0  0  0  0  0  0  0  0  0  0  0
  -20.7298   18.9286  -20.2068 C   0  0  0  0  0  0  0  0  0  0  0  0
 32 33  1  0  0  0
 33  1  1  0  0  0
  1  2  1  0  0  0
  2  3  1  0  0  0
  3  4  1  0  0  0
  4  5  1  0  0  0
  5  6  1  0  0  0
  6 35  1  0  0  0
 35 36  1  0  0  0
  5  7  1  0  0  0
  7  8  1  0  0  0
  8  9  2  0  0  0
  9 10  1  0  0  0
 10 11  2  0  0  0
 11 12  1  0  0  0
 12 13  2  0  0  0
 13 14  1  0  0  0
 14 15  2  0  0  0
 15 16  1  0  0  0
 16 17  1  0  0  0
 17 18  1  0  0  0
 18 19  2  0  0  0
 18 20  1  0  0  0
 20 21  2  0  0  0
 21 22  1  0  0  0
 22 23  2  0  0  0
 23 24  1  0  0  0
 24 25  2  0  0  0
 25 26  1  0  0  0
 26 27  2  0  0  0
 27 28  1  0  0  0
 28 29  1  0  0  0
 29 30  2  0  0  0
  6  1  1  0  0  0
 30  7  1  0  0  0
 28  3  1  0  0  0
 13  8  1  0  0  0
 30 14  1  0  0  0
 20 15  1  0  0  0
 29 21  1  0  0  0
 27 22  1  0  0  0
 33 34  1  0  0  0
 17 31  1  0  0  0
M  END
> <minimizedAffinity>
-9.67244

> <CNNscore>
0.3378714025

> <CNNaffinity>
5.9129180908

> <CNN_VS>
1.9978059530

> <CNNaffinity_variance>
0.7187451124

$$$$
[H]c1c([H])c(N([H])c2nc(N([H])C([H])([H])[C@@]([H])(N([H])[H])C([H])([H])[H])c([H])c3nc([H])n([H])c(=O)c23)c2c(c1[H])c([H])c([H])n2[H]


 32 35  0  0  0  0  0  0  0  0999 V2000
  -18.4600   14.4594  -20.1968 C   0  0  0  0  0  0  0  0  0  0  0  0
  -18.6165   13.6009  -19.1435 C   0  0  0  0  0  0  0  0  0  0  0  0
  -18.0998   12.3144  -19.1958 C   0  0  0  0  0  0  0  0  0  0  0  0
  -18.3069   11.5290  -18.1169 N   0  0  0  0  0  0  0  0  0  0  0  0
  -17.8179   10.2813  -18.1708 C   0  0  0  0  0  0  0  0  0  0  0  0
  -17.1580    9.8467  -19.2482 N   0  0  0  0  0  0  0  0  0  0  0  0
  -16.9480   10.6412  -20.3397 C   0  0  0  0  0  0  0  0  0  0  0  0
  -16.3314   10.1769  -21.3068 O   0  0  0  0  0  0  0  0  0  0  0  0
  -17.4204   11.9149  -20.3396 C   0  0  0  0  0  0  0  0  0  0  0  0
  -17.2559   12.7759  -21.4107 C   0  0  0  0  0  0  0  0  0  0  0  0
  -17.7943   13.9970  -21.2581 N   0  0  0  0  0  0  0  0  0  0  0  0
  -16.7803    8.8895  -19.2963 H   0  0  0  0  0  0  0  0  0  0  0  0
  -18.9575   15.7883  -20.1688 N   0  0  0  0  0  0  0  0  0  0  0  0
  -19.7842   16.0193  -20.7908 H   0  0  0  0  0  0  0  0  0  0  0  0
  -18.4395   16.8390  -19.3745 C   0  0  0  0  0  0  0  0  0  0  0  0
  -16.2050   17.4150  -20.3385 C   0  0  0  0  0  0  0  0  0  0  0  0
  -17.6461   17.8453  -20.1622 C   0  0  0  0  0  0  0  0  0  0  0  0
  -17.6904   19.1143  -19.4323 N   0  0  0  0  0  0  0  0  0  0  0  0
  -18.6041   19.1598  -18.9264 H   0  0  0  0  0  0  0  0  0  0  0  0
  -17.6397   19.8761  -20.1415 H   0  0  0  0  0  0  0  0  0  0  0  0
  -16.5240   12.4087  -22.5513 N   0  0  0  0  0  0  0  0  0  0  0  0
  -15.7925   11.6873  -22.4821 H   0  0  0  0  0  0  0  0  0  0  0  0
  -16.6547   12.9472  -23.8618 C   0  0  0  0  0  0  0  0  0  0  0  0
  -17.6625   12.6940  -24.7218 C   0  0  0  0  0  0  0  0  0  0  0  0
  -17.6866   13.2552  -25.9960 C   0  0  0  0  0  0  0  0  0  0  0  0
  -16.6944   14.0846  -26.4326 C   0  0  0  0  0  0  0  0  0  0  0  0
  -15.6580   14.3616  -25.5865 C   0  0  0  0  0  0  0  0  0  0  0  0
  -14.5438   15.1488  -25.7576 C   0  0  0  0  0  0  0  0  0  0  0  0
  -13.8329   15.0686  -24.5790 C   0  0  0  0  0  0  0  0  0  0  0  0
  -14.5142   14.2633  -23.7581 N   0  0  0  0  0  0  0  0  0  0  0  0
  -15.6441   13.8032  -24.3323 C   0  0  0  0  0  0  0  0  0  0  0  0
  -14.2304   14.0045  -22.7861 H   0  0  0  0  0  0  0  0  0  0  0  0
 16 17  1  0  0  0
 17 18  1  0  0  0
 17 15  1  0  0  0
 15 13  1  0  0  0
 13  1  1  0  0  0
  1  2  2  0  0  0
  2  3  1  0  0  0
  3  4  1  0  0  0
  4  5  2  0  0  0
  5  6  1  0  0  0
  6  7  1  0  0  0
  7  8  2  0  0  0
  7  9  1  0  0  0
  9 10  1  0  0  0
 10 21  1  0  0  0
 21 23  1  0  0  0
 23 24  2  0  0  0
 24 25  1  0  0  0
 25 26  2  0  0  0
 26 27  1  0  0  0
 27 28  1  0  0  0
 28 29  2  0  0  0
 29 30  1  0  0  0
 30 31  1  0  0  0
 10 11  2  0  0  0
 11  1  1  0  0  0
  9  3  2  0  0  0
 31 23  1  0  0  0
 31 27  2  0  0  0
 18 19  1  0  0  0
 18 20  1  0  0  0
 13 14  1  0  0  0
  6 12  1  0  0  0
 21 22  1  0  0  0
 30 32  1  0  0  0
M  END
> <minimizedAffinity>
-8.74197

> <CNNscore>
0.9471130371

> <CNNaffinity>
7.5906195641

> <CNN_VS>
7.1891746521

> <CNNaffinity_variance>
0.1403352916

$$$$
[H]c1c([H])c(N([H])c2nc(N([H])C([H])([H])[C@@]([H])(N([H])[H])C([H])([H])[H])c([H])c3nc([H])n([H])c(=O)c23)c2c(c1[H])c([H])c([H])n2[H]


 32 35  0  0  0  0  0  0  0  0999 V2000
  -18.4959   14.4229  -20.2313 C   0  0  0  0  0  0  0  0  0  0  0  0
  -18.6704   13.5089  -19.2289 C   0  0  0  0  0  0  0  0  0  0  0  0
  -18.0686   12.2606  -19.2960 C   0  0  0  0  0  0  0  0  0  0  0  0
  -18.3001   11.4152  -18.2688 N   0  0  0  0  0  0  0  0  0  0  0  0
  -17.7283   10.2040  -18.3380 C   0  0  0  0  0  0  0  0  0  0  0  0
  -16.9668    9.8610  -19.3810 N   0  0  0  0  0  0  0  0  0  0  0  0
  -16.7322   10.7163  -20.4202 C   0  0  0  0  0  0  0  0  0  0  0  0
  -16.0196   10.3360  -21.3577 O   0  0  0  0  0  0  0  0  0  0  0  0
  -17.2853   11.9570  -20.4022 C   0  0  0  0  0  0  0  0  0  0  0  0
  -17.1017   12.8748  -21.4219 C   0  0  0  0  0  0  0  0  0  0  0  0
  -17.7280   14.0519  -21.2589 N   0  0  0  0  0  0  0  0  0  0  0  0
  -16.5251    8.9323  -19.4406 H   0  0  0  0  0  0  0  0  0  0  0  0
  -19.0796   15.7158  -20.1852 N   0  0  0  0  0  0  0  0  0  0  0  0
  -19.9330   15.8940  -20.7882 H   0  0  0  0  0  0  0  0  0  0  0  0
  -18.6153   16.7951  -19.3961 C   0  0  0  0  0  0  0  0  0  0  0  0
  -16.3540   17.2827  -20.3463 C   0  0  0  0  0  0  0  0  0  0  0  0
  -17.7741   17.7764  -20.1656 C   0  0  0  0  0  0  0  0  0  0  0  0
  -17.7615   19.0339  -19.4147 N   0  0  0  0  0  0  0  0  0  0  0  0
  -18.6735   19.1133  -18.9099 H   0  0  0  0  0  0  0  0  0  0  0  0
  -17.6737   19.8041  -20.1111 H   0  0  0  0  0  0  0  0  0  0  0  0
  -16.2685   12.6065  -22.5196 N   0  0  0  0  0  0  0  0  0  0  0  0
  -15.8688   11.6656  -22.6434 H   0  0  0  0  0  0  0  0  0  0  0  0
  -15.8651   13.5217  -23.5316 C   0  0  0  0  0  0  0  0  0  0  0  0
  -15.0162   14.5567  -23.3663 C   0  0  0  0  0  0  0  0  0  0  0  0
  -14.7018   15.4119  -24.4193 C   0  0  0  0  0  0  0  0  0  0  0  0
  -15.2365   15.2431  -25.6637 C   0  0  0  0  0  0  0  0  0  0  0  0
  -16.1008   14.2043  -25.8655 C   0  0  0  0  0  0  0  0  0  0  0  0
  -16.7761   13.8033  -26.9939 C   0  0  0  0  0  0  0  0  0  0  0  0
  -17.5091   12.6942  -26.6284 C   0  0  0  0  0  0  0  0  0  0  0  0
  -17.2642   12.4649  -25.3345 N   0  0  0  0  0  0  0  0  0  0  0  0
  -16.4039   13.3670  -24.8205 C   0  0  0  0  0  0  0  0  0  0  0  0
  -17.6744   11.6899  -24.7658 H   0  0  0  0  0  0  0  0  0  0  0  0
 16 17  1  0  0  0
 17 18  1  0  0  0
 17 15  1  0  0  0
 15 13  1  0  0  0
 13  1  1  0  0  0
  1  2  2  0  0  0
  2  3  1  0  0  0
  3  4  1  0  0  0
  4  5  2  0  0  0
  5  6  1  0  0  0
  6  7  1  0  0  0
  7  8  2  0  0  0
  7  9  1  0  0  0
  9 10  1  0  0  0
 10 21  1  0  0  0
 21 23  1  0  0  0
 23 24  2  0  0  0
 24 25  1  0  0  0
 25 26  2  0  0  0
 26 27  1  0  0  0
 27 28  1  0  0  0
 28 29  2  0  0  0
 29 30  1  0  0  0
 30 31  1  0  0  0
 10 11  2  0  0  0
 11  1  1  0  0  0
  9  3  2  0  0  0
 31 23  1  0  0  0
 31 27  2  0  0  0
 18 19  1  0  0  0
 18 20  1  0  0  0
 13 14  1  0  0  0
  6 12  1  0  0  0
 21 22  1  0  0  0
 30 32  1  0  0  0
M  END
> <minimizedAffinity>
-8.71363

> <CNNscore>
0.9400106072

> <CNNaffinity>
7.5929818153

> <CNN_VS>
7.1374835968

> <CNNaffinity_variance>
0.1081566364

$$$$
[H]c1c([H])c(N([H])c2nc(N([H])C([H])([H])[C@@]([H])(N([H])[H])C([H])([H])[H])c([H])c3nc([H])n([H])c(=O)c23)c2c(c1[H])c([H])c([H])n2[H]


 32 35  0  0  0  0  0  0  0  0999 V2000
  -15.9444   12.9787  -23.3514 C   0  0  0  0  0  0  0  0  0  0  0  0
  -15.6156   11.8164  -22.7099 C   0  0  0  0  0  0  0  0  0  0  0  0
  -16.2695   11.4408  -21.5453 C   0  0  0  0  0  0  0  0  0  0  0  0
  -15.8772   10.2833  -20.9710 N   0  0  0  0  0  0  0  0  0  0  0  0
  -16.5006    9.9250  -19.8388 C   0  0  0  0  0  0  0  0  0  0  0  0
  -17.4640   10.6869  -19.3128 N   0  0  0  0  0  0  0  0  0  0  0  0
  -17.8612   11.8578  -19.8939 C   0  0  0  0  0  0  0  0  0  0  0  0
  -18.7576   12.5185  -19.3543 O   0  0  0  0  0  0  0  0  0  0  0  0
  -17.2649   12.2693  -21.0431 C   0  0  0  0  0  0  0  0  0  0  0  0
  -17.6058   13.4473  -21.6848 C   0  0  0  0  0  0  0  0  0  0  0  0
  -16.9122   13.7175  -22.8029 N   0  0  0  0  0  0  0  0  0  0  0  0
  -17.9465   10.4177  -18.4434 H   0  0  0  0  0  0  0  0  0  0  0  0
  -15.3105   13.3829  -24.5553 N   0  0  0  0  0  0  0  0  0  0  0  0
  -15.4486   12.7766  -25.4137 H   0  0  0  0  0  0  0  0  0  0  0  0
  -14.5036   14.5357  -24.7075 C   0  0  0  0  0  0  0  0  0  0  0  0
  -16.2621   15.1952  -26.3586 C   0  0  0  0  0  0  0  0  0  0  0  0
  -15.2186   15.6790  -25.3739 C   0  0  0  0  0  0  0  0  0  0  0  0
  -14.2148   16.4783  -26.0802 N   0  0  0  0  0  0  0  0  0  0  0  0
  -13.3178   16.4068  -25.5481 H   0  0  0  0  0  0  0  0  0  0  0  0
  -14.5517   17.4644  -26.0758 H   0  0  0  0  0  0  0  0  0  0  0  0
  -18.6471   14.2684  -21.2232 N   0  0  0  0  0  0  0  0  0  0  0  0
  -19.6116   13.9087  -21.1964 H   0  0  0  0  0  0  0  0  0  0  0  0
  -18.5416   15.6162  -20.7799 C   0  0  0  0  0  0  0  0  0  0  0  0
  -18.5507   16.0272  -19.4952 C   0  0  0  0  0  0  0  0  0  0  0  0
  -18.4643   17.3772  -19.1652 C   0  0  0  0  0  0  0  0  0  0  0  0
  -18.3671   18.3444  -20.1234 C   0  0  0  0  0  0  0  0  0  0  0  0
  -18.3556   17.9625  -21.4352 C   0  0  0  0  0  0  0  0  0  0  0  0
  -18.2682   18.7074  -22.5874 C   0  0  0  0  0  0  0  0  0  0  0  0
  -18.3012   17.8060  -23.6302 C   0  0  0  0  0  0  0  0  0  0  0  0
  -18.4040   16.5848  -23.0966 N   0  0  0  0  0  0  0  0  0  0  0  0
  -18.4411   16.6287  -21.7496 C   0  0  0  0  0  0  0  0  0  0  0  0
  -18.4517   15.6889  -23.6328 H   0  0  0  0  0  0  0  0  0  0  0  0
 16 17  1  0  0  0
 17 18  1  0  0  0
 17 15  1  0  0  0
 15 13  1  0  0  0
 13  1  1  0  0  0
  1  2  2  0  0  0
  2  3  1  0  0  0
  3  4  1  0  0  0
  4  5  2  0  0  0
  5  6  1  0  0  0
  6  7  1  0  0  0
  7  8  2  0  0  0
  7  9  1  0  0  0
  9 10  1  0  0  0
 10 21  1  0  0  0
 21 23  1  0  0  0
 23 24  2  0  0  0
 24 25  1  0  0  0
 25 26  2  0  0  0
 26 27  1  0  0  0
 27 28  1  0  0  0
 28 29  2  0  0  0
 29 30  1  0  0  0
 30 31  1  0  0  0
 10 11  2  0  0  0
 11  1  1  0  0  0
  9  3  2  0  0  0
 31 23  1  0  0  0
 31 27  2  0  0  0
 18 19  1  0  0  0
 18 20  1  0  0  0
 13 14  1  0  0  0
  6 12  1  0  0  0
 21 22  1  0  0  0
 30 32  1  0  0  0
M  END
> <minimizedAffinity>
-7.90526

> <CNNscore>
0.8197263479

> <CNNaffinity>
7.5254135132

> <CNN_VS>
6.1687798500

> <CNNaffinity_variance>
0.2106404006

$$$$
[H]c1c([H])c(N([H])c2nc(N([H])C([H])([H])[C@@]([H])(N([H])[H])C([H])([H])[H])c([H])c3nc([H])n([H])c(=O)c23)c2c(c1[H])c([H])c([H])n2[H]


 32 35  0  0  0  0  0  0  0  0999 V2000
  -18.6643   11.8282  -18.4943 C   0  0  0  0  0  0  0  0  0  0  0  0
  -17.6596   10.9430  -18.7731 C   0  0  0  0  0  0  0  0  0  0  0  0
  -16.9537   11.0252  -19.9646 C   0  0  0  0  0  0  0  0  0  0  0  0
  -15.9841   10.1068  -20.1644 N   0  0  0  0  0  0  0  0  0  0  0  0
  -15.3086   10.1782  -21.3210 C   0  0  0  0  0  0  0  0  0  0  0  0
  -15.5914   11.1193  -22.2262 N   0  0  0  0  0  0  0  0  0  0  0  0
  -16.5721   12.0488  -22.0241 C   0  0  0  0  0  0  0  0  0  0  0  0
  -16.7861   12.8924  -22.9037 O   0  0  0  0  0  0  0  0  0  0  0  0
  -17.2877   12.0247  -20.8695 C   0  0  0  0  0  0  0  0  0  0  0  0
  -18.3022   12.9260  -20.5970 C   0  0  0  0  0  0  0  0  0  0  0  0
  -18.9220   12.7583  -19.4171 N   0  0  0  0  0  0  0  0  0  0  0  0
  -15.0769   11.1795  -23.1166 H   0  0  0  0  0  0  0  0  0  0  0  0
  -19.3927   11.7857  -17.2769 N   0  0  0  0  0  0  0  0  0  0  0  0
  -19.0088   11.1850  -16.4925 H   0  0  0  0  0  0  0  0  0  0  0  0
  -20.5972   12.4830  -17.0198 C   0  0  0  0  0  0  0  0  0  0  0  0
  -20.9385   14.9368  -17.3608 C   0  0  0  0  0  0  0  0  0  0  0  0
  -20.3791   13.8600  -16.4551 C   0  0  0  0  0  0  0  0  0  0  0  0
  -18.9352   14.0528  -16.3021 N   0  0  0  0  0  0  0  0  0  0  0  0
  -18.5082   13.1200  -16.1010 H   0  0  0  0  0  0  0  0  0  0  0  0
  -18.7969   14.6887  -15.4883 H   0  0  0  0  0  0  0  0  0  0  0  0
  -18.6158   13.9766  -21.4741 N   0  0  0  0  0  0  0  0  0  0  0  0
  -19.1699   13.7900  -22.3217 H   0  0  0  0  0  0  0  0  0  0  0  0
  -18.2302   15.3403  -21.3482 C   0  0  0  0  0  0  0  0  0  0  0  0
  -18.2237   16.0560  -20.2050 C   0  0  0  0  0  0  0  0  0  0  0  0
  -17.8492   17.3972  -20.1912 C   0  0  0  0  0  0  0  0  0  0  0  0
  -17.4728   18.0478  -21.3305 C   0  0  0  0  0  0  0  0  0  0  0  0
  -17.4687   17.3521  -22.5065 C   0  0  0  0  0  0  0  0  0  0  0  0
  -17.1413   17.7457  -23.7824 C   0  0  0  0  0  0  0  0  0  0  0  0
  -17.3166   16.6368  -24.5827 C   0  0  0  0  0  0  0  0  0  0  0  0
  -17.7306   15.6397  -23.7947 N   0  0  0  0  0  0  0  0  0  0  0  0
  -17.8396   16.0302  -22.5088 C   0  0  0  0  0  0  0  0  0  0  0  0
  -17.9502   14.6673  -24.1089 H   0  0  0  0  0  0  0  0  0  0  0  0
 16 17  1  0  0  0
 17 18  1  0  0  0
 17 15  1  0  0  0
 15 13  1  0  0  0
 13  1  1  0  0  0
  1  2  2  0  0  0
  2  3  1  0  0  0
  3  4  1  0  0  0
  4  5  2  0  0  0
  5  6  1  0  0  0
  6  7  1  0  0  0
  7  8  2  0  0  0
  7  9  1  0  0  0
  9 10  1  0  0  0
 10 21  1  0  0  0
 21 23  1  0  0  0
 23 24  2  0  0  0
 24 25  1  0  0  0
 25 26  2  0  0  0
 26 27  1  0  0  0
 27 28  1  0  0  0
 28 29  2  0  0  0
 29 30  1  0  0  0
 30 31  1  0  0  0
 10 11  2  0  0  0
 11  1  1  0  0  0
  9  3  2  0  0  0
 31 23  1  0  0  0
 31 27  2  0  0  0
 18 19  1  0  0  0
 18 20  1  0  0  0
 13 14  1  0  0  0
  6 12  1  0  0  0
 21 22  1  0  0  0
 30 32  1  0  0  0
M  END
> <minimizedAffinity>
-7.32784

> <CNNscore>
0.8043028712

> <CNNaffinity>
7.0821228027

> <CNN_VS>
5.6961717606

> <CNNaffinity_variance>
0.1843617857

$$$$
[H]c1c([H])c(N([H])c2nc(N([H])C([H])([H])[C@@]([H])(N([H])[H])C([H])([H])[H])c([H])c3nc([H])n([H])c(=O)c23)c2c(c1[H])c([H])c([H])n2[H]


 32 35  0  0  0  0  0  0  0  0999 V2000
  -15.9492   12.9845  -23.4072 C   0  0  0  0  0  0  0  0  0  0  0  0
  -15.5416   11.8502  -22.7606 C   0  0  0  0  0  0  0  0  0  0  0  0
  -16.1923   11.4156  -21.6149 C   0  0  0  0  0  0  0  0  0  0  0  0
  -15.7202   10.2918  -21.0337 N   0  0  0  0  0  0  0  0  0  0  0  0
  -16.3411    9.8770  -19.9196 C   0  0  0  0  0  0  0  0  0  0  0  0
  -17.3780   10.5534  -19.4171 N   0  0  0  0  0  0  0  0  0  0  0  0
  -17.8561   11.6902  -20.0051 C   0  0  0  0  0  0  0  0  0  0  0  0
  -18.8183   12.2713  -19.4877 O   0  0  0  0  0  0  0  0  0  0  0  0
  -17.2661   12.1558  -21.1369 C   0  0  0  0  0  0  0  0  0  0  0  0
  -17.6870   13.3047  -21.7839 C   0  0  0  0  0  0  0  0  0  0  0  0
  -16.9892   13.6373  -22.8824 N   0  0  0  0  0  0  0  0  0  0  0  0
  -17.8591   10.2406  -18.5616 H   0  0  0  0  0  0  0  0  0  0  0  0
  -15.3197   13.4461  -24.5925 N   0  0  0  0  0  0  0  0  0  0  0  0
  -15.4320   12.8630  -25.4705 H   0  0  0  0  0  0  0  0  0  0  0  0
  -14.5491   14.6283  -24.7021 C   0  0  0  0  0  0  0  0  0  0  0  0
  -16.1251   15.1580  -26.5701 C   0  0  0  0  0  0  0  0  0  0  0  0
  -15.2369   15.7175  -25.4787 C   0  0  0  0  0  0  0  0  0  0  0  0
  -14.1982   16.5583  -26.0781 N   0  0  0  0  0  0  0  0  0  0  0  0
  -13.3705   16.5468  -25.4397 H   0  0  0  0  0  0  0  0  0  0  0  0
  -14.5851   17.5239  -26.1394 H   0  0  0  0  0  0  0  0  0  0  0  0
  -18.8048   14.0338  -21.3478 N   0  0  0  0  0  0  0  0  0  0  0  0
  -19.7246   13.5752  -21.2845 H   0  0  0  0  0  0  0  0  0  0  0  0
  -18.8395   15.4075  -20.9787 C   0  0  0  0  0  0  0  0  0  0  0  0
  -18.9426   16.4502  -21.8280 C   0  0  0  0  0  0  0  0  0  0  0  0
  -18.9451   17.7640  -21.3664 C   0  0  0  0  0  0  0  0  0  0  0  0
  -18.8432   18.0566  -20.0371 C   0  0  0  0  0  0  0  0  0  0  0  0
  -18.7367   17.0235  -19.1493 C   0  0  0  0  0  0  0  0  0  0  0  0
  -18.6225   17.0240  -17.7792 C   0  0  0  0  0  0  0  0  0  0  0  0
  -18.5498   15.7005  -17.3999 C   0  0  0  0  0  0  0  0  0  0  0  0
  -18.6198   14.9638  -18.5131 N   0  0  0  0  0  0  0  0  0  0  0  0
  -18.7355   15.7320  -19.6151 C   0  0  0  0  0  0  0  0  0  0  0  0
  -18.5909   13.9198  -18.5544 H   0  0  0  0  0  0  0  0  0  0  0  0
 16 17  1  0  0  0
 17 18  1  0  0  0
 17 15  1  0  0  0
 15 13  1  0  0  0
 13  1  1  0  0  0
  1  2  2  0  0  0
  2  3  1  0  0  0
  3  4  1  0  0  0
  4  5  2  0  0  0
  5  6  1  0  0  0
  6  7  1  0  0  0
  7  8  2  0  0  0
  7  9  1  0  0  0
  9 10  1  0  0  0
 10 21  1  0  0  0
 21 23  1  0  0  0
 23 24  2  0  0  0
 24 25  1  0  0  0
 25 26  2  0  0  0
 26 27  1  0  0  0
 27 28  1  0  0  0
 28 29  2  0  0  0
 29 30  1  0  0  0
 30 31  1  0  0  0
 10 11  2  0  0  0
 11  1  1  0  0  0
  9  3  2  0  0  0
 31 23  1  0  0  0
 31 27  2  0  0  0
 18 19  1  0  0  0
 18 20  1  0  0  0
 13 14  1  0  0  0
  6 12  1  0  0  0
 21 22  1  0  0  0
 30 32  1  0  0  0
M  END
> <minimizedAffinity>
-7.93389

> <CNNscore>
0.7225990891

> <CNNaffinity>
7.3945336342

> <CNN_VS>
5.3432831764

> <CNNaffinity_variance>
0.2119788677

$$$$
[H]c1c([H])c(N([H])c2nc(N([H])C([H])([H])[C@@]([H])(N([H])[H])C([H])([H])[H])c([H])c3nc([H])n([H])c(=O)c23)c2c(c1[H])c([H])c([H])n2[H]


 32 35  0  0  0  0  0  0  0  0999 V2000
  -17.2788   13.7021  -22.7757 C   0  0  0  0  0  0  0  0  0  0  0  0
  -16.6138   12.5225  -22.5828 C   0  0  0  0  0  0  0  0  0  0  0  0
  -16.7847   11.7963  -21.4131 C   0  0  0  0  0  0  0  0  0  0  0  0
  -16.0837   10.6476  -21.2998 N   0  0  0  0  0  0  0  0  0  0  0  0
  -16.2392    9.9504  -20.1646 C   0  0  0  0  0  0  0  0  0  0  0  0
  -17.0531   10.3829  -19.1973 N   0  0  0  0  0  0  0  0  0  0  0  0
  -17.7627   11.5449  -19.3119 C   0  0  0  0  0  0  0  0  0  0  0  0
  -18.4972   11.8909  -18.3781 O   0  0  0  0  0  0  0  0  0  0  0  0
  -17.6446   12.2911  -20.4410 C   0  0  0  0  0  0  0  0  0  0  0  0
  -18.3230   13.4832  -20.6263 C   0  0  0  0  0  0  0  0  0  0  0  0
  -18.0864   14.1070  -21.7922 N   0  0  0  0  0  0  0  0  0  0  0  0
  -17.1768    9.8526  -18.3229 H   0  0  0  0  0  0  0  0  0  0  0  0
  -17.1433   14.4598  -23.9681 N   0  0  0  0  0  0  0  0  0  0  0  0
  -16.6112   14.0220  -24.7735 H   0  0  0  0  0  0  0  0  0  0  0  0
  -17.6626   15.7602  -24.1741 C   0  0  0  0  0  0  0  0  0  0  0  0
  -16.8451   17.3998  -22.4719 C   0  0  0  0  0  0  0  0  0  0  0  0
  -16.6721   16.8515  -23.8727 C   0  0  0  0  0  0  0  0  0  0  0  0
  -16.8850   17.9247  -24.8464 N   0  0  0  0  0  0  0  0  0  0  0  0
  -17.2214   17.4877  -25.7345 H   0  0  0  0  0  0  0  0  0  0  0  0
  -15.9616   18.3814  -25.0038 H   0  0  0  0  0  0  0  0  0  0  0  0
  -19.2385   13.9701  -19.6797 N   0  0  0  0  0  0  0  0  0  0  0  0
  -20.0492   13.3968  -19.4069 H   0  0  0  0  0  0  0  0  0  0  0  0
  -19.2017   15.2324  -19.0242 C   0  0  0  0  0  0  0  0  0  0  0  0
  -18.7929   15.4520  -17.7577 C   0  0  0  0  0  0  0  0  0  0  0  0
  -18.8168   16.7272  -17.1989 C   0  0  0  0  0  0  0  0  0  0  0  0
  -19.2540   17.8107  -17.9045 C   0  0  0  0  0  0  0  0  0  0  0  0
  -19.6758   17.6233  -19.1905 C   0  0  0  0  0  0  0  0  0  0  0  0
  -20.1581   18.5168  -20.1174 C   0  0  0  0  0  0  0  0  0  0  0  0
  -20.4311   17.7825  -21.2520 C   0  0  0  0  0  0  0  0  0  0  0  0
  -20.1169   16.5106  -20.9872 N   0  0  0  0  0  0  0  0  0  0  0  0
  -19.6480   16.3619  -19.7318 C   0  0  0  0  0  0  0  0  0  0  0  0
  -20.2123   15.7095  -21.6517 H   0  0  0  0  0  0  0  0  0  0  0  0
 16 17  1  0  0  0
 17 18  1  0  0  0
 17 15  1  0  0  0
 15 13  1  0  0  0
 13  1  1  0  0  0
  1  2  2  0  0  0
  2  3  1  0  0  0
  3  4  1  0  0  0
  4  5  2  0  0  0
  5  6  1  0  0  0
  6  7  1  0  0  0
  7  8  2  0  0  0
  7  9  1  0  0  0
  9 10  1  0  0  0
 10 21  1  0  0  0
 21 23  1  0  0  0
 23 24  2  0  0  0
 24 25  1  0  0  0
 25 26  2  0  0  0
 26 27  1  0  0  0
 27 28  1  0  0  0
 28 29  2  0  0  0
 29 30  1  0  0  0
 30 31  1  0  0  0
 10 11  2  0  0  0
 11  1  1  0  0  0
  9  3  2  0  0  0
 31 23  1  0  0  0
 31 27  2  0  0  0
 18 19  1  0  0  0
 18 20  1  0  0  0
 13 14  1  0  0  0
  6 12  1  0  0  0
 21 22  1  0  0  0
 30 32  1  0  0  0
M  END
> <minimizedAffinity>
-7.29742

> <CNNscore>
0.4437781274

> <CNNaffinity>
6.9925522804

> <CNN_VS>
3.1031417847

> <CNNaffinity_variance>
0.4139172137

$$$$
[H]c1c([H])c(N([H])c2nc(N([H])C([H])([H])[C@@]([H])(N([H])[H])C([H])([H])[H])c([H])c3nc([H])n([H])c(=O)c23)c2c(c1[H])c([H])c([H])n2[H]


 32 35  0  0  0  0  0  0  0  0999 V2000
  -16.5971   16.3575  -21.3335 C   0  0  0  0  0  0  0  0  0  0  0  0
  -16.0152   16.8249  -22.4797 C   0  0  0  0  0  0  0  0  0  0  0  0
  -15.8672   16.0005  -23.5857 C   0  0  0  0  0  0  0  0  0  0  0  0
  -15.2741   16.5385  -24.6731 N   0  0  0  0  0  0  0  0  0  0  0  0
  -15.1200   15.7392  -25.7391 C   0  0  0  0  0  0  0  0  0  0  0  0
  -15.5380   14.4704  -25.7141 N   0  0  0  0  0  0  0  0  0  0  0  0
  -16.1384   13.9260  -24.6142 C   0  0  0  0  0  0  0  0  0  0  0  0
  -16.5002   12.7434  -24.6549 O   0  0  0  0  0  0  0  0  0  0  0  0
  -16.3214   14.6903  -23.5060 C   0  0  0  0  0  0  0  0  0  0  0  0
  -16.9123   14.2075  -22.3512 C   0  0  0  0  0  0  0  0  0  0  0  0
  -17.0065   15.0864  -21.3399 N   0  0  0  0  0  0  0  0  0  0  0  0
  -15.4224   13.8511  -26.5291 H   0  0  0  0  0  0  0  0  0  0  0  0
  -16.7828   17.1789  -20.1911 N   0  0  0  0  0  0  0  0  0  0  0  0
  -15.9690   17.2826  -19.5199 H   0  0  0  0  0  0  0  0  0  0  0  0
  -17.9716   17.8767  -19.8701 C   0  0  0  0  0  0  0  0  0  0  0  0
  -18.1596   16.2298  -17.9976 C   0  0  0  0  0  0  0  0  0  0  0  0
  -18.9077   17.0875  -18.9964 C   0  0  0  0  0  0  0  0  0  0  0  0
  -19.7122   16.2299  -19.8697 N   0  0  0  0  0  0  0  0  0  0  0  0
  -19.8307   16.7256  -20.7825 H   0  0  0  0  0  0  0  0  0  0  0  0
  -20.6391   16.1091  -19.4090 H   0  0  0  0  0  0  0  0  0  0  0  0
  -17.4278   12.9040  -22.2715 N   0  0  0  0  0  0  0  0  0  0  0  0
  -17.9788   12.5207  -23.0525 H   0  0  0  0  0  0  0  0  0  0  0  0
  -17.2978   11.9974  -21.1827 C   0  0  0  0  0  0  0  0  0  0  0  0
  -16.4509   10.9492  -21.1257 C   0  0  0  0  0  0  0  0  0  0  0  0
  -16.4161   10.1044  -20.0193 C   0  0  0  0  0  0  0  0  0  0  0  0
  -17.2350   10.2971  -18.9445 C   0  0  0  0  0  0  0  0  0  0  0  0
  -18.1057   11.3498  -18.9698 C   0  0  0  0  0  0  0  0  0  0  0  0
  -19.0290   11.7749  -18.0441 C   0  0  0  0  0  0  0  0  0  0  0  0
  -19.6330   12.8884  -18.5884 C   0  0  0  0  0  0  0  0  0  0  0  0
  -19.0767   13.0968  -19.7858 N   0  0  0  0  0  0  0  0  0  0  0  0
  -18.1317   12.1766  -20.0656 C   0  0  0  0  0  0  0  0  0  0  0  0
  -19.3236   13.8694  -20.4450 H   0  0  0  0  0  0  0  0  0  0  0  0
 16 17  1  0  0  0
 17 18  1  0  0  0
 17 15  1  0  0  0
 15 13  1  0  0  0
 13  1  1  0  0  0
  1  2  2  0  0  0
  2  3  1  0  0  0
  3  4  1  0  0  0
  4  5  2  0  0  0
  5  6  1  0  0  0
  6  7  1  0  0  0
  7  8  2  0  0  0
  7  9  1  0  0  0
  9 10  1  0  0  0
 10 21  1  0  0  0
 21 23  1  0  0  0
 23 24  2  0  0  0
 24 25  1  0  0  0
 25 26  2  0  0  0
 26 27  1  0  0  0
 27 28  1  0  0  0
 28 29  2  0  0  0
 29 30  1  0  0  0
 30 31  1  0  0  0
 10 11  2  0  0  0
 11  1  1  0  0  0
  9  3  2  0  0  0
 31 23  1  0  0  0
 31 27  2  0  0  0
 18 19  1  0  0  0
 18 20  1  0  0  0
 13 14  1  0  0  0
  6 12  1  0  0  0
 21 22  1  0  0  0
 30 32  1  0  0  0
M  END
> <minimizedAffinity>
-8.33251

> <CNNscore>
0.4063026607

> <CNNaffinity>
6.7256636620

> <CNN_VS>
2.7326550484

> <CNNaffinity_variance>
0.1441240758

$$$$
[H]c1c([H])c(N([H])c2nc(N([H])C([H])([H])[C@@]([H])(N([H])[H])C([H])([H])[H])c([H])c3nc([H])n([H])c(=O)c23)c2c(c1[H])c([H])c([H])n2[H]


 32 35  0  0  0  0  0  0  0  0999 V2000
  -17.6801   17.0874  -22.9337 C   0  0  0  0  0  0  0  0  0  0  0  0
  -16.6047   17.1938  -23.7722 C   0  0  0  0  0  0  0  0  0  0  0  0
  -15.9469   16.0604  -24.2276 C   0  0  0  0  0  0  0  0  0  0  0  0
  -14.8895   16.2549  -25.0447 N   0  0  0  0  0  0  0  0  0  0  0  0
  -14.2457   15.1604  -25.4764 C   0  0  0  0  0  0  0  0  0  0  0  0
  -14.6416   13.9387  -25.1076 N   0  0  0  0  0  0  0  0  0  0  0  0
  -15.7116   13.7416  -24.2812 C   0  0  0  0  0  0  0  0  0  0  0  0
  -16.0250   12.5843  -23.9754 O   0  0  0  0  0  0  0  0  0  0  0  0
  -16.4019   14.8146  -23.8146 C   0  0  0  0  0  0  0  0  0  0  0  0
  -17.4895   14.6957  -22.9667 C   0  0  0  0  0  0  0  0  0  0  0  0
  -18.0532   15.8536  -22.5849 N   0  0  0  0  0  0  0  0  0  0  0  0
  -14.1514   13.0940  -25.4351 H   0  0  0  0  0  0  0  0  0  0  0  0
  -18.3886   18.2246  -22.4655 N   0  0  0  0  0  0  0  0  0  0  0  0
  -18.5186   19.0357  -23.1353 H   0  0  0  0  0  0  0  0  0  0  0  0
  -18.9405   18.3680  -21.1701 C   0  0  0  0  0  0  0  0  0  0  0  0
  -18.1838   17.0371  -19.1928 C   0  0  0  0  0  0  0  0  0  0  0  0
  -17.9210   18.2420  -20.0713 C   0  0  0  0  0  0  0  0  0  0  0  0
  -17.9893   19.4605  -19.2614 N   0  0  0  0  0  0  0  0  0  0  0  0
  -18.2713   20.2464  -19.8903 H   0  0  0  0  0  0  0  0  0  0  0  0
  -17.0319   19.6321  -18.8872 H   0  0  0  0  0  0  0  0  0  0  0  0
  -17.9978   13.4441  -22.5841 N   0  0  0  0  0  0  0  0  0  0  0  0
  -18.2828   12.7639  -23.3027 H   0  0  0  0  0  0  0  0  0  0  0  0
  -18.2003   12.9722  -21.2572 C   0  0  0  0  0  0  0  0  0  0  0  0
  -19.0976   13.4584  -20.3753 C   0  0  0  0  0  0  0  0  0  0  0  0
  -19.2026   12.9399  -19.0872 C   0  0  0  0  0  0  0  0  0  0  0  0
  -18.4046   11.9190  -18.6585 C   0  0  0  0  0  0  0  0  0  0  0  0
  -17.4843   11.4033  -19.5267 C   0  0  0  0  0  0  0  0  0  0  0  0
  -16.5670   10.3916  -19.3678 C   0  0  0  0  0  0  0  0  0  0  0  0
  -15.8959   10.2904  -20.5680 C   0  0  0  0  0  0  0  0  0  0  0  0
  -16.4092   11.2118  -21.3890 N   0  0  0  0  0  0  0  0  0  0  0  0
  -17.3892   11.9217  -20.7944 C   0  0  0  0  0  0  0  0  0  0  0  0
  -16.1079   11.3833  -22.3751 H   0  0  0  0  0  0  0  0  0  0  0  0
 16 17  1  0  0  0
 17 18  1  0  0  0
 17 15  1  0  0  0
 15 13  1  0  0  0
 13  1  1  0  0  0
  1  2  2  0  0  0
  2  3  1  0  0  0
  3  4  1  0  0  0
  4  5  2  0  0  0
  5  6  1  0  0  0
  6  7  1  0  0  0
  7  8  2  0  0  0
  7  9  1  0  0  0
  9 10  1  0  0  0
 10 21  1  0  0  0
 21 23  1  0  0  0
 23 24  2  0  0  0
 24 25  1  0  0  0
 25 26  2  0  0  0
 26 27  1  0  0  0
 27 28  1  0  0  0
 28 29  2  0  0  0
 29 30  1  0  0  0
 30 31  1  0  0  0
 10 11  2  0  0  0
 11  1  1  0  0  0
  9  3  2  0  0  0
 31 23  1  0  0  0
 31 27  2  0  0  0
 18 19  1  0  0  0
 18 20  1  0  0  0
 13 14  1  0  0  0
  6 12  1  0  0  0
 21 22  1  0  0  0
 30 32  1  0  0  0
M  END
> <minimizedAffinity>
-8.28103

> <CNNscore>
0.3975333273

> <CNNaffinity>
6.6908025742

> <CNN_VS>
2.6598169804

> <CNNaffinity_variance>
0.1559948623

$$$$
[H]c1c([H])c(N([H])c2nc(N([H])C([H])([H])[C@@]([H])(N([H])[H])C([H])([H])[H])c([H])c3nc([H])n([H])c(=O)c23)c2c(c1[H])c([H])c([H])n2[H]


 32 35  0  0  0  0  0  0  0  0999 V2000
  -19.1044   15.3058  -18.9661 C   0  0  0  0  0  0  0  0  0  0  0  0
  -18.7143   14.1794  -18.2955 C   0  0  0  0  0  0  0  0  0  0  0  0
  -18.2192   13.0813  -18.9839 C   0  0  0  0  0  0  0  0  0  0  0  0
  -17.8655   12.0069  -18.2462 N   0  0  0  0  0  0  0  0  0  0  0  0
  -17.3976   10.9404  -18.9114 C   0  0  0  0  0  0  0  0  0  0  0  0
  -17.2911   10.9524  -20.2432 N   0  0  0  0  0  0  0  0  0  0  0  0
  -17.6485   12.0393  -20.9898 C   0  0  0  0  0  0  0  0  0  0  0  0
  -17.5279   11.9849  -22.2201 O   0  0  0  0  0  0  0  0  0  0  0  0
  -18.1279   13.1482  -20.3683 C   0  0  0  0  0  0  0  0  0  0  0  0
  -18.5193   14.2835  -21.0566 C   0  0  0  0  0  0  0  0  0  0  0  0
  -18.9841   15.2884  -20.2959 N   0  0  0  0  0  0  0  0  0  0  0  0
  -16.9329   10.1366  -20.7604 H   0  0  0  0  0  0  0  0  0  0  0  0
  -19.5959   16.4542  -18.2922 N   0  0  0  0  0  0  0  0  0  0  0  0
  -20.4808   16.9040  -18.6640 H   0  0  0  0  0  0  0  0  0  0  0  0
  -18.9999   17.0540  -17.1571 C   0  0  0  0  0  0  0  0  0  0  0  0
  -19.3677   18.3071  -15.0245 C   0  0  0  0  0  0  0  0  0  0  0  0
  -19.9946   17.4420  -16.0976 C   0  0  0  0  0  0  0  0  0  0  0  0
  -20.5034   16.2083  -15.4941 N   0  0  0  0  0  0  0  0  0  0  0  0
  -20.4932   15.4654  -16.2296 H   0  0  0  0  0  0  0  0  0  0  0  0
  -21.4835   16.3969  -15.1945 H   0  0  0  0  0  0  0  0  0  0  0  0
  -18.3816   14.3902  -22.4497 N   0  0  0  0  0  0  0  0  0  0  0  0
  -18.8678   13.7242  -23.0665 H   0  0  0  0  0  0  0  0  0  0  0  0
  -17.5982   15.3407  -23.1619 C   0  0  0  0  0  0  0  0  0  0  0  0
  -17.9735   16.5986  -23.4720 C   0  0  0  0  0  0  0  0  0  0  0  0
  -17.1389   17.4468  -24.1952 C   0  0  0  0  0  0  0  0  0  0  0  0
  -15.9062   17.0458  -24.6227 C   0  0  0  0  0  0  0  0  0  0  0  0
  -15.4950   15.7771  -24.3259 C   0  0  0  0  0  0  0  0  0  0  0  0
  -14.3255   15.1186  -24.6237 C   0  0  0  0  0  0  0  0  0  0  0  0
  -14.4455   13.8580  -24.0784 C   0  0  0  0  0  0  0  0  0  0  0  0
  -15.6426   13.7933  -23.4873 N   0  0  0  0  0  0  0  0  0  0  0  0
  -16.3257   14.9490  -23.6123 C   0  0  0  0  0  0  0  0  0  0  0  0
  -16.0279   12.9627  -22.9831 H   0  0  0  0  0  0  0  0  0  0  0  0
 16 17  1  0  0  0
 17 18  1  0  0  0
 17 15  1  0  0  0
 15 13  1  0  0  0
 13  1  1  0  0  0
  1  2  2  0  0  0
  2  3  1  0  0  0
  3  4  1  0  0  0
  4  5  2  0  0  0
  5  6  1  0  0  0
  6  7  1  0  0  0
  7  8  2  0  0  0
  7  9  1  0  0  0
  9 10  1  0  0  0
 10 21  1  0  0  0
 21 23  1  0  0  0
 23 24  2  0  0  0
 24 25  1  0  0  0
 25 26  2  0  0  0
 26 27  1  0  0  0
 27 28  1  0  0  0
 28 29  2  0  0  0
 29 30  1  0  0  0
 30 31  1  0  0  0
 10 11  2  0  0  0
 11  1  1  0  0  0
  9  3  2  0  0  0
 31 23  1  0  0  0
 31 27  2  0  0  0
 18 19  1  0  0  0
 18 20  1  0  0  0
 13 14  1  0  0  0
  6 12  1  0  0  0
 21 22  1  0  0  0
 30 32  1  0  0  0
M  END
> <minimizedAffinity>
-7.48414

> <CNNscore>
0.3372102976

> <CNNaffinity>
6.6307969093

> <CNN_VS>
2.2359728813

> <CNNaffinity_variance>
0.1280334741

$$$$
[H]c1nc(N([H])c2c([H])c([H])c([H])c(N3C([H])([H])C([H])([H])OC([H])([H])C3([H])[H])c2[H])nc(-c2c(-c3c([H])c([H])c([H])c(N([H])C(=O)C([H])([H])c4c([H])c([H])c([H])c([H])c4[H])c3[H])nc3sc([H])c([H])n23)c1[H]


 45 51  0  0  0  0  0  0  0  0999 V2000
  -20.0266   12.7412  -16.6030 C   0  0  0  0  0  0  0  0  0  0  0  0
  -20.8159   12.5779  -15.4946 N   0  0  0  0  0  0  0  0  0  0  0  0
  -20.8954   11.2443  -15.2513 C   0  0  0  0  0  0  0  0  0  0  0  0
  -21.5379   10.0504  -14.2267 S   0  0  0  0  0  0  0  0  0  0  0  0
  -20.8832    8.6716  -14.9908 C   0  0  0  0  0  0  0  0  0  0  0  0
  -20.1809    9.2326  -16.0293 C   0  0  0  0  0  0  0  0  0  0  0  0
  -20.2026   10.5434  -16.1400 N   0  0  0  0  0  0  0  0  0  0  0  0
  -19.6597   11.4926  -16.9840 C   0  0  0  0  0  0  0  0  0  0  0  0
  -20.7107   16.1153  -18.1146 C   0  0  0  0  0  0  0  0  0  0  0  0
  -19.4574   16.7272  -17.9658 C   0  0  0  0  0  0  0  0  0  0  0  0
  -18.4066   16.0421  -17.4057 C   0  0  0  0  0  0  0  0  0  0  0  0
  -18.5674   14.7213  -16.9728 C   0  0  0  0  0  0  0  0  0  0  0  0
  -19.7802   14.0824  -17.0983 C   0  0  0  0  0  0  0  0  0  0  0  0
  -20.8023   14.8304  -17.6749 C   0  0  0  0  0  0  0  0  0  0  0  0
  -21.3636   16.0934  -20.7877 O   0  0  0  0  0  0  0  0  0  0  0  0
  -22.1257   16.7866  -20.0157 C   0  0  0  0  0  0  0  0  0  0  0  0
  -21.8155   16.8392  -18.6340 N   0  0  0  0  0  0  0  0  0  0  0  0
  -22.4058   17.4106  -18.0112 H   0  0  0  0  0  0  0  0  0  0  0  0
  -23.2757   17.4833  -20.5994 C   0  0  0  0  0  0  0  0  0  0  0  0
  -23.0365   17.8512  -21.9967 C   0  0  0  0  0  0  0  0  0  0  0  0
  -23.8616   17.2150  -22.9494 C   0  0  0  0  0  0  0  0  0  0  0  0
  -23.7556   17.4650  -24.2761 C   0  0  0  0  0  0  0  0  0  0  0  0
  -22.8136   18.3705  -24.7211 C   0  0  0  0  0  0  0  0  0  0  0  0
  -21.9809   19.0201  -23.8194 C   0  0  0  0  0  0  0  0  0  0  0  0
  -22.1109   18.7426  -22.4616 C   0  0  0  0  0  0  0  0  0  0  0  0
  -18.7619   11.2392  -18.1354 C   0  0  0  0  0  0  0  0  0  0  0  0
  -17.8123   10.2645  -18.1532 C   0  0  0  0  0  0  0  0  0  0  0  0
  -17.0481   10.1699  -19.3248 C   0  0  0  0  0  0  0  0  0  0  0  0
  -17.2588   11.0057  -20.3611 N   0  0  0  0  0  0  0  0  0  0  0  0
  -18.1864   11.9593  -20.3452 C   0  0  0  0  0  0  0  0  0  0  0  0
  -18.9244   12.0396  -19.1944 N   0  0  0  0  0  0  0  0  0  0  0  0
  -18.4608   12.8583  -21.3924 N   0  0  0  0  0  0  0  0  0  0  0  0
  -19.3427   12.6940  -21.9871 H   0  0  0  0  0  0  0  0  0  0  0  0
  -17.6929   13.9748  -21.7391 C   0  0  0  0  0  0  0  0  0  0  0  0
  -17.3010   14.9973  -20.9199 C   0  0  0  0  0  0  0  0  0  0  0  0
  -16.5237   16.0720  -21.3215 C   0  0  0  0  0  0  0  0  0  0  0  0
  -16.0935   16.1598  -22.6228 C   0  0  0  0  0  0  0  0  0  0  0  0
  -16.4841   15.1269  -23.4664 C   0  0  0  0  0  0  0  0  0  0  0  0
  -17.2495   14.0683  -23.0704 C   0  0  0  0  0  0  0  0  0  0  0  0
  -16.0507   15.2208  -24.8330 N   0  0  0  0  0  0  0  0  0  0  0  0
  -16.4688   14.3291  -25.8767 C   0  0  0  0  0  0  0  0  0  0  0  0
  -16.3674   15.0567  -27.1906 C   0  0  0  0  0  0  0  0  0  0  0  0
  -15.0978   15.4988  -27.4621 O   0  0  0  0  0  0  0  0  0  0  0  0
  -14.3344   15.8485  -26.3761 C   0  0  0  0  0  0  0  0  0  0  0  0
  -15.1414   16.3137  -25.1849 C   0  0  0  0  0  0  0  0  0  0  0  0
 15 16  2  0  0  0
 16 19  1  0  0  0
 19 20  1  0  0  0
 20 21  2  0  0  0
 21 22  1  0  0  0
 22 23  2  0  0  0
 23 24  1  0  0  0
 24 25  2  0  0  0
 16 17  1  0  0  0
 17  9  1  0  0  0
  9 10  2  0  0  0
 10 11  1  0  0  0
 11 12  2  0  0  0
 12 13  1  0  0  0
 13 14  2  0  0  0
 13  1  1  0  0  0
  1  2  1  0  0  0
  2  3  2  0  0  0
  3  4  1  0  0  0
  4  5  1  0  0  0
  5  6  2  0  0  0
  6  7  1  0  0  0
  7  8  1  0  0  0
  8 26  1  0  0  0
 26 27  2  0  0  0
 27 28  1  0  0  0
 28 29  2  0  0  0
 29 30  1  0  0  0
 30 32  1  0  0  0
 32 34  1  0  0  0
 34 35  2  0  0  0
 35 36  1  0  0  0
 36 37  2  0  0  0
 37 38  1  0  0  0
 38 39  2  0  0  0
 38 40  1  0  0  0
 40 41  1  0  0  0
 41 42  1  0  0  0
 42 43  1  0  0  0
 43 44  1  0  0  0
 44 45  1  0  0  0
 30 31  2  0  0  0
 25 20  1  0  0  0
 14  9  1  0  0  0
  8  1  2  0  0  0
 31 26  1  0  0  0
  7  3  1  0  0  0
 39 34  1  0  0  0
 45 40  1  0  0  0
 17 18  1  0  0  0
 32 33  1  0  0  0
M  END
> <minimizedAffinity>
-9.74763

> <CNNscore>
0.2897875309

> <CNNaffinity>
7.8493719101

> <CNN_VS>
2.2746500969

> <CNNaffinity_variance>
0.1575271487

$$$$
[H]c1nc(N([H])c2c([H])c([H])c([H])c(N3C([H])([H])C([H])([H])OC([H])([H])C3([H])[H])c2[H])nc(-c2c(-c3c([H])c([H])c([H])c(N([H])C(=O)C([H])([H])c4c([H])c([H])c([H])c([H])c4[H])c3[H])nc3sc([H])c([H])n23)c1[H]


 45 51  0  0  0  0  0  0  0  0999 V2000
  -19.4657   12.6368  -18.1057 C   0  0  0  0  0  0  0  0  0  0  0  0
  -20.3283   12.4643  -17.0547 N   0  0  0  0  0  0  0  0  0  0  0  0
  -20.1808   11.1865  -16.6199 C   0  0  0  0  0  0  0  0  0  0  0  0
  -20.6961   10.0328  -15.4834 S   0  0  0  0  0  0  0  0  0  0  0  0
  -19.7116    8.7271  -15.9731 C   0  0  0  0  0  0  0  0  0  0  0  0
  -19.0169    9.2770  -17.0226 C   0  0  0  0  0  0  0  0  0  0  0  0
  -19.2736   10.5298  -17.3318 N   0  0  0  0  0  0  0  0  0  0  0  0
  -18.8293   11.4497  -18.2616 C   0  0  0  0  0  0  0  0  0  0  0  0
  -20.6680   15.6848  -19.9502 C   0  0  0  0  0  0  0  0  0  0  0  0
  -19.4952   16.4536  -19.9767 C   0  0  0  0  0  0  0  0  0  0  0  0
  -18.3320   15.9744  -19.4247 C   0  0  0  0  0  0  0  0  0  0  0  0
  -18.2959   14.7106  -18.8255 C   0  0  0  0  0  0  0  0  0  0  0  0
  -19.4237   13.9229  -18.7760 C   0  0  0  0  0  0  0  0  0  0  0  0
  -20.5675   14.4652  -19.3541 C   0  0  0  0  0  0  0  0  0  0  0  0
  -22.1705   17.5441  -18.5873 O   0  0  0  0  0  0  0  0  0  0  0  0
  -22.6209   17.1702  -19.7339 C   0  0  0  0  0  0  0  0  0  0  0  0
  -21.8870   16.2011  -20.4621 N   0  0  0  0  0  0  0  0  0  0  0  0
  -22.2515   15.8775  -21.3705 H   0  0  0  0  0  0  0  0  0  0  0  0
  -23.8650   17.7644  -20.2316 C   0  0  0  0  0  0  0  0  0  0  0  0
  -23.6096   18.7963  -21.2391 C   0  0  0  0  0  0  0  0  0  0  0  0
  -23.8563   18.4224  -22.5779 C   0  0  0  0  0  0  0  0  0  0  0  0
  -23.6700   19.2776  -23.6111 C   0  0  0  0  0  0  0  0  0  0  0  0
  -23.2251   20.5594  -23.3570 C   0  0  0  0  0  0  0  0  0  0  0  0
  -22.9699   20.9705  -22.0554 C   0  0  0  0  0  0  0  0  0  0  0  0
  -23.1687   20.0699  -21.0129 C   0  0  0  0  0  0  0  0  0  0  0  0
  -17.7774   11.2342  -19.2828 C   0  0  0  0  0  0  0  0  0  0  0  0
  -16.6796   10.4547  -19.0842 C   0  0  0  0  0  0  0  0  0  0  0  0
  -15.7832   10.3675  -20.1587 C   0  0  0  0  0  0  0  0  0  0  0  0
  -16.0151   11.0253  -21.3122 N   0  0  0  0  0  0  0  0  0  0  0  0
  -17.0875   11.7880  -21.5078 C   0  0  0  0  0  0  0  0  0  0  0  0
  -17.9534   11.8637  -20.4496 N   0  0  0  0  0  0  0  0  0  0  0  0
  -17.3913   12.4944  -22.6862 N   0  0  0  0  0  0  0  0  0  0  0  0
  -18.0773   12.0483  -23.3853 H   0  0  0  0  0  0  0  0  0  0  0  0
  -16.8901   13.7505  -23.0434 C   0  0  0  0  0  0  0  0  0  0  0  0
  -15.6232   14.0478  -23.4637 C   0  0  0  0  0  0  0  0  0  0  0  0
  -15.1907   15.3153  -23.8200 C   0  0  0  0  0  0  0  0  0  0  0  0
  -16.0586   16.3781  -23.7629 C   0  0  0  0  0  0  0  0  0  0  0  0
  -17.3499   16.0901  -23.3378 C   0  0  0  0  0  0  0  0  0  0  0  0
  -17.7756   14.8415  -22.9872 C   0  0  0  0  0  0  0  0  0  0  0  0
  -18.2586   17.2003  -23.2606 N   0  0  0  0  0  0  0  0  0  0  0  0
  -19.5969   17.1871  -23.7784 C   0  0  0  0  0  0  0  0  0  0  0  0
  -20.4165   18.1805  -22.9989 C   0  0  0  0  0  0  0  0  0  0  0  0
  -19.9218   19.4577  -23.0709 O   0  0  0  0  0  0  0  0  0  0  0  0
  -18.5589   19.5722  -23.1887 C   0  0  0  0  0  0  0  0  0  0  0  0
  -17.7932   18.4150  -22.5875 C   0  0  0  0  0  0  0  0  0  0  0  0
 15 16  2  0  0  0
 16 19  1  0  0  0
 19 20  1  0  0  0
 20 21  2  0  0  0
 21 22  1  0  0  0
 22 23  2  0  0  0
 23 24  1  0  0  0
 24 25  2  0  0  0
 16 17  1  0  0  0
 17  9  1  0  0  0
  9 10  2  0  0  0
 10 11  1  0  0  0
 11 12  2  0  0  0
 12 13  1  0  0  0
 13 14  2  0  0  0
 13  1  1  0  0  0
  1  2  1  0  0  0
  2  3  2  0  0  0
  3  4  1  0  0  0
  4  5  1  0  0  0
  5  6  2  0  0  0
  6  7  1  0  0  0
  7  8  1  0  0  0
  8 26  1  0  0  0
 26 27  2  0  0  0
 27 28  1  0  0  0
 28 29  2  0  0  0
 29 30  1  0  0  0
 30 32  1  0  0  0
 32 34  1  0  0  0
 34 35  2  0  0  0
 35 36  1  0  0  0
 36 37  2  0  0  0
 37 38  1  0  0  0
 38 39  2  0  0  0
 38 40  1  0  0  0
 40 41  1  0  0  0
 41 42  1  0  0  0
 42 43  1  0  0  0
 43 44  1  0  0  0
 44 45  1  0  0  0
 30 31  2  0  0  0
 25 20  1  0  0  0
 14  9  1  0  0  0
  8  1  2  0  0  0
 31 26  1  0  0  0
  7  3  1  0  0  0
 39 34  1  0  0  0
 45 40  1  0  0  0
 17 18  1  0  0  0
 32 33  1  0  0  0
M  END
> <minimizedAffinity>
-8.99910

> <CNNscore>
0.2697810829

> <CNNaffinity>
7.8207893372

> <CNN_VS>
2.1099009514

> <CNNaffinity_variance>
0.1322061121

$$$$
[H]c1nc(N([H])c2c([H])c([H])c([H])c(N3C([H])([H])C([H])([H])OC([H])([H])C3([H])[H])c2[H])nc(-c2c(-c3c([H])c([H])c([H])c(N([H])C(=O)C([H])([H])c4c([H])c([H])c([H])c([H])c4[H])c3[H])nc3sc([H])c([H])n23)c1[H]


 45 51  0  0  0  0  0  0  0  0999 V2000
  -20.4785   12.2707  -16.9159 C   0  0  0  0  0  0  0  0  0  0  0  0
  -21.3141   11.8768  -15.9035 N   0  0  0  0  0  0  0  0  0  0  0  0
  -21.0304   10.5770  -15.6317 C   0  0  0  0  0  0  0  0  0  0  0  0
  -21.4164    9.2411  -14.6547 S   0  0  0  0  0  0  0  0  0  0  0  0
  -20.3008    8.1191  -15.2953 C   0  0  0  0  0  0  0  0  0  0  0  0
  -19.6721    8.8673  -16.2603 C   0  0  0  0  0  0  0  0  0  0  0  0
  -20.0613   10.1150  -16.4117 N   0  0  0  0  0  0  0  0  0  0  0  0
  -19.7204   11.1867  -17.2138 C   0  0  0  0  0  0  0  0  0  0  0  0
  -20.0283   15.9997  -17.0887 C   0  0  0  0  0  0  0  0  0  0  0  0
  -20.5830   16.2717  -18.3480 C   0  0  0  0  0  0  0  0  0  0  0  0
  -21.1139   15.2606  -19.1117 C   0  0  0  0  0  0  0  0  0  0  0  0
  -21.1106   13.9407  -18.6476 C   0  0  0  0  0  0  0  0  0  0  0  0
  -20.5754   13.6283  -17.4184 C   0  0  0  0  0  0  0  0  0  0  0  0
  -20.0560   14.6972  -16.6943 C   0  0  0  0  0  0  0  0  0  0  0  0
  -21.2013   17.0455  -14.8299 O   0  0  0  0  0  0  0  0  0  0  0  0
  -20.0538   17.5284  -15.1575 C   0  0  0  0  0  0  0  0  0  0  0  0
  -19.4219   17.0301  -16.3240 N   0  0  0  0  0  0  0  0  0  0  0  0
  -18.5138   17.4269  -16.6081 H   0  0  0  0  0  0  0  0  0  0  0  0
  -19.4558   18.5643  -14.3103 C   0  0  0  0  0  0  0  0  0  0  0  0
  -20.4317   19.5897  -13.9347 C   0  0  0  0  0  0  0  0  0  0  0  0
  -20.6321   20.6218  -14.8769 C   0  0  0  0  0  0  0  0  0  0  0  0
  -21.5093   21.6313  -14.6645 C   0  0  0  0  0  0  0  0  0  0  0  0
  -22.2366   21.6605  -13.4916 C   0  0  0  0  0  0  0  0  0  0  0  0
  -22.0721   20.6657  -12.5367 C   0  0  0  0  0  0  0  0  0  0  0  0
  -21.1623   19.6410  -12.7809 C   0  0  0  0  0  0  0  0  0  0  0  0
  -18.6553   11.2142  -18.2437 C   0  0  0  0  0  0  0  0  0  0  0  0
  -17.5039   10.4935  -18.1597 C   0  0  0  0  0  0  0  0  0  0  0  0
  -16.6032   10.6447  -19.2234 C   0  0  0  0  0  0  0  0  0  0  0  0
  -16.8818   11.4614  -20.2590 N   0  0  0  0  0  0  0  0  0  0  0  0
  -18.0066   12.1669  -20.3424 C   0  0  0  0  0  0  0  0  0  0  0  0
  -18.8761   12.0091  -19.2963 N   0  0  0  0  0  0  0  0  0  0  0  0
  -18.3604   13.0303  -21.3957 N   0  0  0  0  0  0  0  0  0  0  0  0
  -19.2526   12.8113  -21.9564 H   0  0  0  0  0  0  0  0  0  0  0  0
  -17.6611   14.1761  -21.7890 C   0  0  0  0  0  0  0  0  0  0  0  0
  -17.3527   15.2633  -21.0190 C   0  0  0  0  0  0  0  0  0  0  0  0
  -16.6400   16.3652  -21.4648 C   0  0  0  0  0  0  0  0  0  0  0  0
  -16.1920   16.4140  -22.7621 C   0  0  0  0  0  0  0  0  0  0  0  0
  -16.4980   15.3151  -23.5558 C   0  0  0  0  0  0  0  0  0  0  0  0
  -17.1997   14.2299  -23.1163 C   0  0  0  0  0  0  0  0  0  0  0  0
  -16.0459   15.3669  -24.9186 N   0  0  0  0  0  0  0  0  0  0  0  0
  -16.4880   14.4741  -25.9515 C   0  0  0  0  0  0  0  0  0  0  0  0
  -16.3427   15.1733  -27.2766 C   0  0  0  0  0  0  0  0  0  0  0  0
  -15.0533   15.5590  -27.5407 O   0  0  0  0  0  0  0  0  0  0  0  0
  -14.2886   15.8972  -26.4520 C   0  0  0  0  0  0  0  0  0  0  0  0
  -15.0894   16.4159  -25.2788 C   0  0  0  0  0  0  0  0  0  0  0  0
 15 16  2  0  0  0
 16 19  1  0  0  0
 19 20  1  0  0  0
 20 21  2  0  0  0
 21 22  1  0  0  0
 22 23  2  0  0  0
 23 24  1  0  0  0
 24 25  2  0  0  0
 16 17  1  0  0  0
 17  9  1  0  0  0
  9 10  2  0  0  0
 10 11  1  0  0  0
 11 12  2  0  0  0
 12 13  1  0  0  0
 13 14  2  0  0  0
 13  1  1  0  0  0
  1  2  1  0  0  0
  2  3  2  0  0  0
  3  4  1  0  0  0
  4  5  1  0  0  0
  5  6  2  0  0  0
  6  7  1  0  0  0
  7  8  1  0  0  0
  8 26  1  0  0  0
 26 27  2  0  0  0
 27 28  1  0  0  0
 28 29  2  0  0  0
 29 30  1  0  0  0
 30 32  1  0  0  0
 32 34  1  0  0  0
 34 35  2  0  0  0
 35 36  1  0  0  0
 36 37  2  0  0  0
 37 38  1  0  0  0
 38 39  2  0  0  0
 38 40  1  0  0  0
 40 41  1  0  0  0
 41 42  1  0  0  0
 42 43  1  0  0  0
 43 44  1  0  0  0
 44 45  1  0  0  0
 30 31  2  0  0  0
 25 20  1  0  0  0
 14  9  1  0  0  0
  8  1  2  0  0  0
 31 26  1  0  0  0
  7  3  1  0  0  0
 39 34  1  0  0  0
 45 40  1  0  0  0
 17 18  1  0  0  0
 32 33  1  0  0  0
M  END
> <minimizedAffinity>
-9.30095

> <CNNscore>
0.1928007454

> <CNNaffinity>
7.4939370155

> <CNN_VS>
1.4448366165

> <CNNaffinity_variance>
0.0932467580

$$$$
[H]c1nc(N([H])c2c([H])c([H])c([H])c(N3C([H])([H])C([H])([H])OC([H])([H])C3([H])[H])c2[H])nc(-c2c(-c3c([H])c([H])c([H])c(N([H])C(=O)C([H])([H])c4c([H])c([H])c([H])c([H])c4[H])c3[H])nc3sc([H])c([H])n23)c1[H]


 45 51  0  0  0  0  0  0  0  0999 V2000
  -20.0235   12.7725  -16.6217 C   0  0  0  0  0  0  0  0  0  0  0  0
  -20.8336   12.6080  -15.5286 N   0  0  0  0  0  0  0  0  0  0  0  0
  -20.9227   11.2739  -15.2921 C   0  0  0  0  0  0  0  0  0  0  0  0
  -21.5886   10.0786  -14.2842 S   0  0  0  0  0  0  0  0  0  0  0  0
  -20.9253    8.7001  -15.0416 C   0  0  0  0  0  0  0  0  0  0  0  0
  -20.2018    9.2623  -16.0649 C   0  0  0  0  0  0  0  0  0  0  0  0
  -20.2165   10.5737  -16.1708 N   0  0  0  0  0  0  0  0  0  0  0  0
  -19.6544   11.5240  -17.0009 C   0  0  0  0  0  0  0  0  0  0  0  0
  -20.6738   16.1695  -18.0967 C   0  0  0  0  0  0  0  0  0  0  0  0
  -19.4108   16.7625  -17.9536 C   0  0  0  0  0  0  0  0  0  0  0  0
  -18.3647   16.0578  -17.4091 C   0  0  0  0  0  0  0  0  0  0  0  0
  -18.5401   14.7355  -16.9867 C   0  0  0  0  0  0  0  0  0  0  0  0
  -19.7627   14.1147  -17.1071 C   0  0  0  0  0  0  0  0  0  0  0  0
  -20.7794   14.8819  -17.6678 C   0  0  0  0  0  0  0  0  0  0  0  0
  -21.4592   16.0427  -20.7309 O   0  0  0  0  0  0  0  0  0  0  0  0
  -22.1534   16.8053  -19.9604 C   0  0  0  0  0  0  0  0  0  0  0  0
  -21.7730   16.9133  -18.5996 N   0  0  0  0  0  0  0  0  0  0  0  0
  -22.3080   17.5397  -17.9798 H   0  0  0  0  0  0  0  0  0  0  0  0
  -23.3019   17.5209  -20.5239 C   0  0  0  0  0  0  0  0  0  0  0  0
  -23.9392   18.3914  -19.5335 C   0  0  0  0  0  0  0  0  0  0  0  0
  -23.5137   19.7375  -19.5342 C   0  0  0  0  0  0  0  0  0  0  0  0
  -24.0226   20.6548  -18.6778 C   0  0  0  0  0  0  0  0  0  0  0  0
  -24.9901   20.2708  -17.7712 C   0  0  0  0  0  0  0  0  0  0  0  0
  -25.4389   18.9571  -17.7352 C   0  0  0  0  0  0  0  0  0  0  0  0
  -24.8970   18.0351  -18.6261 C   0  0  0  0  0  0  0  0  0  0  0  0
  -18.7366   11.2715  -18.1365 C   0  0  0  0  0  0  0  0  0  0  0  0
  -17.7727   10.3108  -18.1302 C   0  0  0  0  0  0  0  0  0  0  0  0
  -16.9905   10.2150  -19.2897 C   0  0  0  0  0  0  0  0  0  0  0  0
  -17.1985   11.0363  -20.3381 N   0  0  0  0  0  0  0  0  0  0  0  0
  -18.1401   11.9762  -20.3457 C   0  0  0  0  0  0  0  0  0  0  0  0
  -18.8956   12.0580  -19.2065 N   0  0  0  0  0  0  0  0  0  0  0  0
  -18.4126   12.8596  -21.4066 N   0  0  0  0  0  0  0  0  0  0  0  0
  -19.2583   12.6513  -22.0388 H   0  0  0  0  0  0  0  0  0  0  0  0
  -17.6867   14.0128  -21.7225 C   0  0  0  0  0  0  0  0  0  0  0  0
  -17.3773   15.0513  -20.8883 C   0  0  0  0  0  0  0  0  0  0  0  0
  -16.6378   16.1633  -21.2588 C   0  0  0  0  0  0  0  0  0  0  0  0
  -16.1615   16.2745  -22.5421 C   0  0  0  0  0  0  0  0  0  0  0  0
  -16.4681   15.2257  -23.4006 C   0  0  0  0  0  0  0  0  0  0  0  0
  -17.1964   14.1305  -23.0353 C   0  0  0  0  0  0  0  0  0  0  0  0
  -15.9864   15.3434  -24.7491 N   0  0  0  0  0  0  0  0  0  0  0  0
  -15.1118   16.3849  -25.2070 C   0  0  0  0  0  0  0  0  0  0  0  0
  -14.3385   15.8681  -26.3906 C   0  0  0  0  0  0  0  0  0  0  0  0
  -15.1452   15.4735  -27.4273 O   0  0  0  0  0  0  0  0  0  0  0  0
  -16.3701   14.9612  -27.0788 C   0  0  0  0  0  0  0  0  0  0  0  0
  -16.3977   14.3179  -25.7105 C   0  0  0  0  0  0  0  0  0  0  0  0
 15 16  2  0  0  0
 16 19  1  0  0  0
 19 20  1  0  0  0
 20 21  2  0  0  0
 21 22  1  0  0  0
 22 23  2  0  0  0
 23 24  1  0  0  0
 24 25  2  0  0  0
 16 17  1  0  0  0
 17  9  1  0  0  0
  9 10  2  0  0  0
 10 11  1  0  0  0
 11 12  2  0  0  0
 12 13  1  0  0  0
 13 14  2  0  0  0
 13  1  1  0  0  0
  1  2  1  0  0  0
  2  3  2  0  0  0
  3  4  1  0  0  0
  4  5  1  0  0  0
  5  6  2  0  0  0
  6  7  1  0  0  0
  7  8  1  0  0  0
  8 26  1  0  0  0
 26 27  2  0  0  0
 27 28  1  0  0  0
 28 29  2  0  0  0
 29 30  1  0  0  0
 30 32  1  0  0  0
 32 34  1  0  0  0
 34 35  2  0  0  0
 35 36  1  0  0  0
 36 37  2  0  0  0
 37 38  1  0  0  0
 38 39  2  0  0  0
 38 40  1  0  0  0
 40 41  1  0  0  0
 41 42  1  0  0  0
 42 43  1  0  0  0
 43 44  1  0  0  0
 44 45  1  0  0  0
 30 31  2  0  0  0
 25 20  1  0  0  0
 14  9  1  0  0  0
  8  1  2  0  0  0
 31 26  1  0  0  0
  7  3  1  0  0  0
 39 34  1  0  0  0
 45 40  1  0  0  0
 17 18  1  0  0  0
 32 33  1  0  0  0
M  END
> <minimizedAffinity>
-8.73011

> <CNNscore>
0.1519748271

> <CNNaffinity>
7.5916061401

> <CNN_VS>
1.1537330151

> <CNNaffinity_variance>
0.1163261160

$$$$
[H]c1nc(N([H])c2c([H])c([H])c([H])c(N3C([H])([H])C([H])([H])OC([H])([H])C3([H])[H])c2[H])nc(-c2c(-c3c([H])c([H])c([H])c(N([H])C(=O)C([H])([H])c4c([H])c([H])c([H])c([H])c4[H])c3[H])nc3sc([H])c([H])n23)c1[H]


 45 51  0  0  0  0  0  0  0  0999 V2000
  -17.5002   13.5033  -21.8160 C   0  0  0  0  0  0  0  0  0  0  0  0
  -16.9635   12.2609  -22.0316 N   0  0  0  0  0  0  0  0  0  0  0  0
  -17.0952   11.5606  -20.8758 C   0  0  0  0  0  0  0  0  0  0  0  0
  -16.8109   10.0710  -20.1086 S   0  0  0  0  0  0  0  0  0  0  0  0
  -17.4704   10.4368  -18.5773 C   0  0  0  0  0  0  0  0  0  0  0  0
  -17.8873   11.7335  -18.7531 C   0  0  0  0  0  0  0  0  0  0  0  0
  -17.6852   12.2826  -19.9315 N   0  0  0  0  0  0  0  0  0  0  0  0
  -17.9369   13.5008  -20.5322 C   0  0  0  0  0  0  0  0  0  0  0  0
  -17.5287   16.8398  -23.5494 C   0  0  0  0  0  0  0  0  0  0  0  0
  -17.3248   16.4448  -24.8797 C   0  0  0  0  0  0  0  0  0  0  0  0
  -17.2051   15.1153  -25.2041 C   0  0  0  0  0  0  0  0  0  0  0  0
  -17.2840   14.1305  -24.2133 C   0  0  0  0  0  0  0  0  0  0  0  0
  -17.4820   14.4732  -22.8949 C   0  0  0  0  0  0  0  0  0  0  0  0
  -17.5969   15.8353  -22.6334 C   0  0  0  0  0  0  0  0  0  0  0  0
  -19.8440   18.3129  -23.7540 O   0  0  0  0  0  0  0  0  0  0  0  0
  -18.8074   18.9310  -23.3061 C   0  0  0  0  0  0  0  0  0  0  0  0
  -17.5894   18.2143  -23.2007 N   0  0  0  0  0  0  0  0  0  0  0  0
  -16.7478   18.7065  -22.8656 H   0  0  0  0  0  0  0  0  0  0  0  0
  -18.9359   20.3404  -22.9246 C   0  0  0  0  0  0  0  0  0  0  0  0
  -19.6172   20.4953  -21.6375 C   0  0  0  0  0  0  0  0  0  0  0  0
  -20.7051   21.3949  -21.6225 C   0  0  0  0  0  0  0  0  0  0  0  0
  -21.4302   21.6305  -20.5033 C   0  0  0  0  0  0  0  0  0  0  0  0
  -21.1030   20.9737  -19.3341 C   0  0  0  0  0  0  0  0  0  0  0  0
  -20.0408   20.0798  -19.3028 C   0  0  0  0  0  0  0  0  0  0  0  0
  -19.3119   19.8581  -20.4677 C   0  0  0  0  0  0  0  0  0  0  0  0
  -18.6218   14.6625  -19.9181 C   0  0  0  0  0  0  0  0  0  0  0  0
  -18.0189   15.5266  -19.0566 C   0  0  0  0  0  0  0  0  0  0  0  0
  -18.8199   16.5680  -18.5672 C   0  0  0  0  0  0  0  0  0  0  0  0
  -20.1092   16.6878  -18.9416 N   0  0  0  0  0  0  0  0  0  0  0  0
  -20.7001   15.8438  -19.7834 C   0  0  0  0  0  0  0  0  0  0  0  0
  -19.9055   14.8320  -20.2526 N   0  0  0  0  0  0  0  0  0  0  0  0
  -22.0363   15.9158  -20.2184 N   0  0  0  0  0  0  0  0  0  0  0  0
  -22.6019   15.0022  -20.2809 H   0  0  0  0  0  0  0  0  0  0  0  0
  -22.7228   17.0813  -20.5747 C   0  0  0  0  0  0  0  0  0  0  0  0
  -23.4558   17.8942  -19.7549 C   0  0  0  0  0  0  0  0  0  0  0  0
  -24.1018   19.0490  -20.1669 C   0  0  0  0  0  0  0  0  0  0  0  0
  -24.0297   19.4448  -21.4800 C   0  0  0  0  0  0  0  0  0  0  0  0
  -23.2873   18.6279  -22.3243 C   0  0  0  0  0  0  0  0  0  0  0  0
  -22.6508   17.4907  -21.9181 C   0  0  0  0  0  0  0  0  0  0  0  0
  -23.2209   19.0277  -23.7027 N   0  0  0  0  0  0  0  0  0  0  0  0
  -23.1480   20.3904  -24.1466 C   0  0  0  0  0  0  0  0  0  0  0  0
  -22.4709   20.4154  -25.4908 C   0  0  0  0  0  0  0  0  0  0  0  0
  -23.1291   19.6718  -26.4367 O   0  0  0  0  0  0  0  0  0  0  0  0
  -23.7941   18.5620  -25.9777 C   0  0  0  0  0  0  0  0  0  0  0  0
  -23.2027   17.9717  -24.7174 C   0  0  0  0  0  0  0  0  0  0  0  0
 15 16  2  0  0  0
 16 19  1  0  0  0
 19 20  1  0  0  0
 20 21  2  0  0  0
 21 22  1  0  0  0
 22 23  2  0  0  0
 23 24  1  0  0  0
 24 25  2  0  0  0
 16 17  1  0  0  0
 17  9  1  0  0  0
  9 10  2  0  0  0
 10 11  1  0  0  0
 11 12  2  0  0  0
 12 13  1  0  0  0
 13 14  2  0  0  0
 13  1  1  0  0  0
  1  2  1  0  0  0
  2  3  2  0  0  0
  3  4  1  0  0  0
  4  5  1  0  0  0
  5  6  2  0  0  0
  6  7  1  0  0  0
  7  8  1  0  0  0
  8 26  1  0  0  0
 26 27  2  0  0  0
 27 28  1  0  0  0
 28 29  2  0  0  0
 29 30  1  0  0  0
 30 32  1  0  0  0
 32 34  1  0  0  0
 34 35  2  0  0  0
 35 36  1  0  0  0
 36 37  2  0  0  0
 37 38  1  0  0  0
 38 39  2  0  0  0
 38 40  1  0  0  0
 40 41  1  0  0  0
 41 42  1  0  0  0
 42 43  1  0  0  0
 43 44  1  0  0  0
 44 45  1  0  0  0
 30 31  2  0  0  0
 25 20  1  0  0  0
 14  9  1  0  0  0
  8  1  2  0  0  0
 31 26  1  0  0  0
  7  3  1  0  0  0
 39 34  1  0  0  0
 45 40  1  0  0  0
 17 18  1  0  0  0
 32 33  1  0  0  0
M  END
> <minimizedAffinity>
-8.68796

> <CNNscore>
0.1506022066

> <CNNaffinity>
7.2532615662

> <CNN_VS>
1.0923571587

> <CNNaffinity_variance>
0.3508024812

$$$$
[H]c1nc(N([H])c2c([H])c([H])c([H])c(N3C([H])([H])C([H])([H])OC([H])([H])C3([H])[H])c2[H])nc(-c2c(-c3c([H])c([H])c([H])c(N([H])C(=O)C([H])([H])c4c([H])c([H])c([H])c([H])c4[H])c3[H])nc3sc([H])c([H])n23)c1[H]


 45 51  0  0  0  0  0  0  0  0999 V2000
  -19.0771   11.6327  -17.9819 C   0  0  0  0  0  0  0  0  0  0  0  0
  -19.6665   10.5484  -17.3861 N   0  0  0  0  0  0  0  0  0  0  0  0
  -20.5319   11.0237  -16.4539 C   0  0  0  0  0  0  0  0  0  0  0  0
  -21.6730   10.6010  -15.2676 S   0  0  0  0  0  0  0  0  0  0  0  0
  -22.1137   12.1699  -14.7595 C   0  0  0  0  0  0  0  0  0  0  0  0
  -21.3269   12.9574  -15.5640 C   0  0  0  0  0  0  0  0  0  0  0  0
  -20.5310   12.3503  -16.4177 N   0  0  0  0  0  0  0  0  0  0  0  0
  -19.6150   12.7233  -17.3820 C   0  0  0  0  0  0  0  0  0  0  0  0
  -17.3822   11.8540  -21.3310 C   0  0  0  0  0  0  0  0  0  0  0  0
  -16.1883   11.1675  -21.0654 C   0  0  0  0  0  0  0  0  0  0  0  0
  -15.9548   10.6239  -19.8255 C   0  0  0  0  0  0  0  0  0  0  0  0
  -16.9037   10.7456  -18.8045 C   0  0  0  0  0  0  0  0  0  0  0  0
  -18.0885   11.4121  -19.0207 C   0  0  0  0  0  0  0  0  0  0  0  0
  -18.2641   11.9373  -20.2975 C   0  0  0  0  0  0  0  0  0  0  0  0
  -17.4429   14.5874  -21.6425 O   0  0  0  0  0  0  0  0  0  0  0  0
  -17.6077   13.8839  -22.7079 C   0  0  0  0  0  0  0  0  0  0  0  0
  -17.6005   12.4717  -22.5900 N   0  0  0  0  0  0  0  0  0  0  0  0
  -17.7552   11.8995  -23.4335 H   0  0  0  0  0  0  0  0  0  0  0  0
  -17.7909   14.5738  -23.9882 C   0  0  0  0  0  0  0  0  0  0  0  0
  -16.5128   14.8269  -24.6571 C   0  0  0  0  0  0  0  0  0  0  0  0
  -15.3559   14.5433  -23.8992 C   0  0  0  0  0  0  0  0  0  0  0  0
  -14.1082   14.7234  -24.3938 C   0  0  0  0  0  0  0  0  0  0  0  0
  -13.9522   15.1986  -25.6804 C   0  0  0  0  0  0  0  0  0  0  0  0
  -15.0622   15.4905  -26.4621 C   0  0  0  0  0  0  0  0  0  0  0  0
  -16.3328   15.2974  -25.9274 C   0  0  0  0  0  0  0  0  0  0  0  0
  -19.2617   14.1078  -17.7746 C   0  0  0  0  0  0  0  0  0  0  0  0
  -18.4457   14.9157  -17.0440 C   0  0  0  0  0  0  0  0  0  0  0  0
  -18.2237   16.1990  -17.5632 C   0  0  0  0  0  0  0  0  0  0  0  0
  -18.7948   16.5889  -18.7202 N   0  0  0  0  0  0  0  0  0  0  0  0
  -19.5930   15.8006  -19.4353 C   0  0  0  0  0  0  0  0  0  0  0  0
  -19.8007   14.5507  -18.9157 N   0  0  0  0  0  0  0  0  0  0  0  0
  -20.2142   16.1429  -20.6506 N   0  0  0  0  0  0  0  0  0  0  0  0
  -19.7469   15.8292  -21.5680 H   0  0  0  0  0  0  0  0  0  0  0  0
  -21.4099   16.8554  -20.7900 C   0  0  0  0  0  0  0  0  0  0  0  0
  -22.4049   16.9932  -19.8621 C   0  0  0  0  0  0  0  0  0  0  0  0
  -23.5633   17.7289  -20.0555 C   0  0  0  0  0  0  0  0  0  0  0  0
  -23.7710   18.3821  -21.2457 C   0  0  0  0  0  0  0  0  0  0  0  0
  -22.7672   18.2509  -22.1978 C   0  0  0  0  0  0  0  0  0  0  0  0
  -21.6262   17.5264  -22.0067 C   0  0  0  0  0  0  0  0  0  0  0  0
  -22.9855   18.9188  -23.4510 N   0  0  0  0  0  0  0  0  0  0  0  0
  -23.2233   20.3276  -23.5856 C   0  0  0  0  0  0  0  0  0  0  0  0
  -22.7764   20.7546  -24.9582 C   0  0  0  0  0  0  0  0  0  0  0  0
  -23.4308   20.0925  -25.9653 O   0  0  0  0  0  0  0  0  0  0  0  0
  -23.8109   18.8019  -25.6929 C   0  0  0  0  0  0  0  0  0  0  0  0
  -22.9377   18.1094  -24.6707 C   0  0  0  0  0  0  0  0  0  0  0  0
 15 16  2  0  0  0
 16 19  1  0  0  0
 19 20  1  0  0  0
 20 21  2  0  0  0
 21 22  1  0  0  0
 22 23  2  0  0  0
 23 24  1  0  0  0
 24 25  2  0  0  0
 16 17  1  0  0  0
 17  9  1  0  0  0
  9 10  2  0  0  0
 10 11  1  0  0  0
 11 12  2  0  0  0
 12 13  1  0  0  0
 13 14  2  0  0  0
 13  1  1  0  0  0
  1  2  1  0  0  0
  2  3  2  0  0  0
  3  4  1  0  0  0
  4  5  1  0  0  0
  5  6  2  0  0  0
  6  7  1  0  0  0
  7  8  1  0  0  0
  8 26  1  0  0  0
 26 27  2  0  0  0
 27 28  1  0  0  0
 28 29  2  0  0  0
 29 30  1  0  0  0
 30 32  1  0  0  0
 32 34  1  0  0  0
 34 35  2  0  0  0
 35 36  1  0  0  0
 36 37  2  0  0  0
 37 38  1  0  0  0
 38 39  2  0  0  0
 38 40  1  0  0  0
 40 41  1  0  0  0
 41 42  1  0  0  0
 42 43  1  0  0  0
 43 44  1  0  0  0
 44 45  1  0  0  0
 30 31  2  0  0  0
 25 20  1  0  0  0
 14  9  1  0  0  0
  8  1  2  0  0  0
 31 26  1  0  0  0
  7  3  1  0  0  0
 39 34  1  0  0  0
 45 40  1  0  0  0
 17 18  1  0  0  0
 32 33  1  0  0  0
M  END
> <minimizedAffinity>
-10.65652

> <CNNscore>
0.1416152567

> <CNNaffinity>
7.1992349625

> <CNN_VS>
1.0195214748

> <CNNaffinity_variance>
0.7424594760

$$$$
[H]c1nc(N([H])c2c([H])c([H])c([H])c(N3C([H])([H])C([H])([H])OC([H])([H])C3([H])[H])c2[H])nc(-c2c(-c3c([H])c([H])c([H])c(N([H])C(=O)C([H])([H])c4c([H])c([H])c([H])c([H])c4[H])c3[H])nc3sc([H])c([H])n23)c1[H]


 45 51  0  0  0  0  0  0  0  0999 V2000
  -18.0669   11.1076  -19.0667 C   0  0  0  0  0  0  0  0  0  0  0  0
  -18.1178    9.9621  -18.3160 N   0  0  0  0  0  0  0  0  0  0  0  0
  -19.0143   10.1752  -17.3187 C   0  0  0  0  0  0  0  0  0  0  0  0
  -19.7805    9.4927  -15.9640 S   0  0  0  0  0  0  0  0  0  0  0  0
  -20.7648   10.8170  -15.5268 C   0  0  0  0  0  0  0  0  0  0  0  0
  -20.4337   11.7423  -16.4863 C   0  0  0  0  0  0  0  0  0  0  0  0
  -19.5409   11.3915  -17.3867 N   0  0  0  0  0  0  0  0  0  0  0  0
  -18.9404   11.9688  -18.4887 C   0  0  0  0  0  0  0  0  0  0  0  0
  -16.4943   12.3388  -22.2525 C   0  0  0  0  0  0  0  0  0  0  0  0
  -15.4173   11.4484  -22.3732 C   0  0  0  0  0  0  0  0  0  0  0  0
  -15.2251   10.4531  -21.4459 C   0  0  0  0  0  0  0  0  0  0  0  0
  -16.1001   10.3096  -20.3636 C   0  0  0  0  0  0  0  0  0  0  0  0
  -17.1694   11.1618  -20.2053 C   0  0  0  0  0  0  0  0  0  0  0  0
  -17.3090   12.1463  -21.1791 C   0  0  0  0  0  0  0  0  0  0  0  0
  -17.3065   11.9363  -24.8506 O   0  0  0  0  0  0  0  0  0  0  0  0
  -17.0966   13.1561  -24.4967 C   0  0  0  0  0  0  0  0  0  0  0  0
  -16.6604   13.4072  -23.1719 N   0  0  0  0  0  0  0  0  0  0  0  0
  -16.4667   14.3784  -22.8856 H   0  0  0  0  0  0  0  0  0  0  0  0
  -17.3207   14.2238  -25.4755 C   0  0  0  0  0  0  0  0  0  0  0  0
  -17.4911   15.5269  -24.8291 C   0  0  0  0  0  0  0  0  0  0  0  0
  -18.7072   15.7152  -24.1372 C   0  0  0  0  0  0  0  0  0  0  0  0
  -18.9959   16.8679  -23.4877 C   0  0  0  0  0  0  0  0  0  0  0  0
  -18.0771   17.8980  -23.4962 C   0  0  0  0  0  0  0  0  0  0  0  0
  -16.8677   17.7566  -24.1638 C   0  0  0  0  0  0  0  0  0  0  0  0
  -16.5981   16.5614  -24.8242 C   0  0  0  0  0  0  0  0  0  0  0  0
  -19.2069   13.3218  -19.0310 C   0  0  0  0  0  0  0  0  0  0  0  0
  -19.9079   13.5532  -20.1744 C   0  0  0  0  0  0  0  0  0  0  0  0
  -20.0599   14.8973  -20.5426 C   0  0  0  0  0  0  0  0  0  0  0  0
  -19.5346   15.8869  -19.7931 N   0  0  0  0  0  0  0  0  0  0  0  0
  -18.8488   15.6623  -18.6754 C   0  0  0  0  0  0  0  0  0  0  0  0
  -18.7083   14.3450  -18.3288 N   0  0  0  0  0  0  0  0  0  0  0  0
  -18.2811   16.6473  -17.8461 N   0  0  0  0  0  0  0  0  0  0  0  0
  -17.2095   16.6780  -17.7513 H   0  0  0  0  0  0  0  0  0  0  0  0
  -18.9833   17.6192  -17.1257 C   0  0  0  0  0  0  0  0  0  0  0  0
  -19.2770   17.6092  -15.7902 C   0  0  0  0  0  0  0  0  0  0  0  0
  -19.9652   18.6143  -15.1294 C   0  0  0  0  0  0  0  0  0  0  0  0
  -20.4029   19.7165  -15.8221 C   0  0  0  0  0  0  0  0  0  0  0  0
  -20.1108   19.7400  -17.1805 C   0  0  0  0  0  0  0  0  0  0  0  0
  -19.4326   18.7499  -17.8309 C   0  0  0  0  0  0  0  0  0  0  0  0
  -20.5798   20.8828  -17.9142 N   0  0  0  0  0  0  0  0  0  0  0  0
  -21.7132   21.6772  -17.5353 C   0  0  0  0  0  0  0  0  0  0  0  0
  -21.5296   23.0623  -18.0954 C   0  0  0  0  0  0  0  0  0  0  0  0
  -21.4101   23.0768  -19.4616 O   0  0  0  0  0  0  0  0  0  0  0  0
  -20.8126   21.9782  -20.0277 C   0  0  0  0  0  0  0  0  0  0  0  0
  -19.8355   21.2737  -19.1135 C   0  0  0  0  0  0  0  0  0  0  0  0
 15 16  2  0  0  0
 16 19  1  0  0  0
 19 20  1  0  0  0
 20 21  2  0  0  0
 21 22  1  0  0  0
 22 23  2  0  0  0
 23 24  1  0  0  0
 24 25  2  0  0  0
 16 17  1  0  0  0
 17  9  1  0  0  0
  9 10  2  0  0  0
 10 11  1  0  0  0
 11 12  2  0  0  0
 12 13  1  0  0  0
 13 14  2  0  0  0
 13  1  1  0  0  0
  1  2  1  0  0  0
  2  3  2  0  0  0
  3  4  1  0  0  0
  4  5  1  0  0  0
  5  6  2  0  0  0
  6  7  1  0  0  0
  7  8  1  0  0  0
  8 26  1  0  0  0
 26 27  2  0  0  0
 27 28  1  0  0  0
 28 29  2  0  0  0
 29 30  1  0  0  0
 30 32  1  0  0  0
 32 34  1  0  0  0
 34 35  2  0  0  0
 35 36  1  0  0  0
 36 37  2  0  0  0
 37 38  1  0  0  0
 38 39  2  0  0  0
 38 40  1  0  0  0
 40 41  1  0  0  0
 41 42  1  0  0  0
 42 43  1  0  0  0
 43 44  1  0  0  0
 44 45  1  0  0  0
 30 31  2  0  0  0
 25 20  1  0  0  0
 14  9  1  0  0  0
  8  1  2  0  0  0
 31 26  1  0  0  0
  7  3  1  0  0  0
 39 34  1  0  0  0
 45 40  1  0  0  0
 17 18  1  0  0  0
 32 33  1  0  0  0
M  END
> <minimizedAffinity>
-9.78790

> <CNNscore>
0.1327987164

> <CNNaffinity>
7.2552108765

> <CNN_VS>
0.9634826779

> <CNNaffinity_variance>
0.6224804521

$$$$
[H]c1nc(N([H])c2c([H])c([H])c([H])c(N3C([H])([H])C([H])([H])OC([H])([H])C3([H])[H])c2[H])nc(-c2c(-c3c([H])c([H])c([H])c(N([H])C(=O)C([H])([H])c4c([H])c([H])c([H])c([H])c4[H])c3[H])nc3sc([H])c([H])n23)c1[H]


 45 51  0  0  0  0  0  0  0  0999 V2000
  -18.8256   11.3624  -18.1871 C   0  0  0  0  0  0  0  0  0  0  0  0
  -18.9608   10.3182  -17.3098 N   0  0  0  0  0  0  0  0  0  0  0  0
  -19.8805   10.6896  -16.3824 C   0  0  0  0  0  0  0  0  0  0  0  0
  -20.7278   10.2093  -14.9897 S   0  0  0  0  0  0  0  0  0  0  0  0
  -21.6591   11.6200  -14.7521 C   0  0  0  0  0  0  0  0  0  0  0  0
  -21.2479   12.4081  -15.7991 C   0  0  0  0  0  0  0  0  0  0  0  0
  -20.3423   11.9119  -16.6145 N   0  0  0  0  0  0  0  0  0  0  0  0
  -19.6747   12.3255  -17.7508 C   0  0  0  0  0  0  0  0  0  0  0  0
  -17.2323   11.9666  -21.5388 C   0  0  0  0  0  0  0  0  0  0  0  0
  -16.0726   11.1865  -21.4212 C   0  0  0  0  0  0  0  0  0  0  0  0
  -15.8306   10.4605  -20.2802 C   0  0  0  0  0  0  0  0  0  0  0  0
  -16.7364   10.4864  -19.2141 C   0  0  0  0  0  0  0  0  0  0  0  0
  -17.8865   11.2392  -19.2861 C   0  0  0  0  0  0  0  0  0  0  0  0
  -18.0731   11.9492  -20.4685 C   0  0  0  0  0  0  0  0  0  0  0  0
  -17.3760   14.7120  -21.4191 O   0  0  0  0  0  0  0  0  0  0  0  0
  -17.5060   14.1801  -22.5842 C   0  0  0  0  0  0  0  0  0  0  0  0
  -17.4555   12.7677  -22.6889 N   0  0  0  0  0  0  0  0  0  0  0  0
  -17.5822   12.3308  -23.6140 H   0  0  0  0  0  0  0  0  0  0  0  0
  -17.6962   15.0568  -23.7433 C   0  0  0  0  0  0  0  0  0  0  0  0
  -16.4856   15.1447  -24.5629 C   0  0  0  0  0  0  0  0  0  0  0  0
  -15.2681   14.9103  -23.8876 C   0  0  0  0  0  0  0  0  0  0  0  0
  -14.0724   14.9522  -24.5220 C   0  0  0  0  0  0  0  0  0  0  0  0
  -14.0325   15.2317  -25.8732 C   0  0  0  0  0  0  0  0  0  0  0  0
  -15.2055   15.4684  -26.5777 C   0  0  0  0  0  0  0  0  0  0  0  0
  -16.4203   15.4205  -25.8998 C   0  0  0  0  0  0  0  0  0  0  0  0
  -19.8532   13.6149  -18.4588 C   0  0  0  0  0  0  0  0  0  0  0  0
  -20.5658   13.7526  -19.6101 C   0  0  0  0  0  0  0  0  0  0  0  0
  -20.6261   15.0466  -20.1464 C   0  0  0  0  0  0  0  0  0  0  0  0
  -20.0074   16.0795  -19.5404 N   0  0  0  0  0  0  0  0  0  0  0  0
  -19.3101   15.9465  -18.4152 C   0  0  0  0  0  0  0  0  0  0  0  0
  -19.2599   14.6772  -17.9036 N   0  0  0  0  0  0  0  0  0  0  0  0
  -18.6474   16.9817  -17.7303 N   0  0  0  0  0  0  0  0  0  0  0  0
  -17.6153   16.8362  -17.4619 H   0  0  0  0  0  0  0  0  0  0  0  0
  -19.2029   18.2124  -17.3651 C   0  0  0  0  0  0  0  0  0  0  0  0
  -19.3271   19.3291  -18.1447 C   0  0  0  0  0  0  0  0  0  0  0  0
  -19.9039   20.5182  -17.7278 C   0  0  0  0  0  0  0  0  0  0  0  0
  -20.3990   20.6308  -16.4517 C   0  0  0  0  0  0  0  0  0  0  0  0
  -20.2798   19.5030  -15.6486 C   0  0  0  0  0  0  0  0  0  0  0  0
  -19.7119   18.3318  -16.0596 C   0  0  0  0  0  0  0  0  0  0  0  0
  -20.7815   19.6192  -14.3072 N   0  0  0  0  0  0  0  0  0  0  0  0
  -21.2505   18.5141  -13.5210 C   0  0  0  0  0  0  0  0  0  0  0  0
  -21.0829   18.8626  -12.0662 C   0  0  0  0  0  0  0  0  0  0  0  0
  -21.7696   19.9929  -11.7031 O   0  0  0  0  0  0  0  0  0  0  0  0
  -21.9020   20.9569  -12.6715 C   0  0  0  0  0  0  0  0  0  0  0  0
  -20.7911   20.9507  -13.6973 C   0  0  0  0  0  0  0  0  0  0  0  0
 15 16  2  0  0  0
 16 19  1  0  0  0
 19 20  1  0  0  0
 20 21  2  0  0  0
 21 22  1  0  0  0
 22 23  2  0  0  0
 23 24  1  0  0  0
 24 25  2  0  0  0
 16 17  1  0  0  0
 17  9  1  0  0  0
  9 10  2  0  0  0
 10 11  1  0  0  0
 11 12  2  0  0  0
 12 13  1  0  0  0
 13 14  2  0  0  0
 13  1  1  0  0  0
  1  2  1  0  0  0
  2  3  2  0  0  0
  3  4  1  0  0  0
  4  5  1  0  0  0
  5  6  2  0  0  0
  6  7  1  0  0  0
  7  8  1  0  0  0
  8 26  1  0  0  0
 26 27  2  0  0  0
 27 28  1  0  0  0
 28 29  2  0  0  0
 29 30  1  0  0  0
 30 32  1  0  0  0
 32 34  1  0  0  0
 34 35  2  0  0  0
 35 36  1  0  0  0
 36 37  2  0  0  0
 37 38  1  0  0  0
 38 39  2  0  0  0
 38 40  1  0  0  0
 40 41  1  0  0  0
 41 42  1  0  0  0
 42 43  1  0  0  0
 43 44  1  0  0  0
 44 45  1  0  0  0
 30 31  2  0  0  0
 25 20  1  0  0  0
 14  9  1  0  0  0
  8  1  2  0  0  0
 31 26  1  0  0  0
  7  3  1  0  0  0
 39 34  1  0  0  0
 45 40  1  0  0  0
 17 18  1  0  0  0
 32 33  1  0  0  0
M  END
> <minimizedAffinity>
-10.05556

> <CNNscore>
0.1079281345

> <CNNaffinity>
7.0969152451

> <CNN_VS>
0.7659568191

> <CNNaffinity_variance>
0.5101045966

$$$$
[H]c1nc(N([H])c2c([H])c([H])c([H])c(N3C([H])([H])C([H])([H])OC([H])([H])C3([H])[H])c2[H])nc(-c2c(-c3c([H])c([H])c([H])c(N([H])C(=O)C([H])([H])c4c([H])c([H])c([H])c([H])c4[H])c3[H])nc3sc([H])c([H])n23)c1[H]


 45 51  0  0  0  0  0  0  0  0999 V2000
  -16.5871   13.2206  -23.1706 C   0  0  0  0  0  0  0  0  0  0  0  0
  -16.2326   12.7802  -24.4191 N   0  0  0  0  0  0  0  0  0  0  0  0
  -16.3135   13.8447  -25.2582 C   0  0  0  0  0  0  0  0  0  0  0  0
  -16.1062   14.3764  -26.8590 S   0  0  0  0  0  0  0  0  0  0  0  0
  -16.5313   16.0158  -26.6459 C   0  0  0  0  0  0  0  0  0  0  0  0
  -16.8182   16.0597  -25.3035 C   0  0  0  0  0  0  0  0  0  0  0  0
  -16.6996   14.9420  -24.6196 N   0  0  0  0  0  0  0  0  0  0  0  0
  -16.8677   14.5400  -23.3087 C   0  0  0  0  0  0  0  0  0  0  0  0
  -17.7927   11.3973  -20.1112 C   0  0  0  0  0  0  0  0  0  0  0  0
  -16.8000   10.4145  -19.9848 C   0  0  0  0  0  0  0  0  0  0  0  0
  -15.7478   10.3655  -20.8666 C   0  0  0  0  0  0  0  0  0  0  0  0
  -15.6471   11.2950  -21.9076 C   0  0  0  0  0  0  0  0  0  0  0  0
  -16.5993   12.2756  -22.0698 C   0  0  0  0  0  0  0  0  0  0  0  0
  -17.6374   12.2716  -21.1429 C   0  0  0  0  0  0  0  0  0  0  0  0
  -17.8481   12.8922  -17.8016 O   0  0  0  0  0  0  0  0  0  0  0  0
  -18.9066   12.2107  -18.0705 C   0  0  0  0  0  0  0  0  0  0  0  0
  -18.9144   11.4131  -19.2418 N   0  0  0  0  0  0  0  0  0  0  0  0
  -19.7483   10.8452  -19.4537 H   0  0  0  0  0  0  0  0  0  0  0  0
  -20.0506   12.2938  -17.1578 C   0  0  0  0  0  0  0  0  0  0  0  0
  -20.8054   13.5351  -17.3439 C   0  0  0  0  0  0  0  0  0  0  0  0
  -21.3909   14.0786  -16.1799 C   0  0  0  0  0  0  0  0  0  0  0  0
  -22.1104   15.2255  -16.2032 C   0  0  0  0  0  0  0  0  0  0  0  0
  -22.2820   15.8927  -17.3993 C   0  0  0  0  0  0  0  0  0  0  0  0
  -21.7236   15.3947  -18.5692 C   0  0  0  0  0  0  0  0  0  0  0  0
  -20.9902   14.2129  -18.5161 C   0  0  0  0  0  0  0  0  0  0  0  0
  -17.2589   15.3984  -22.1660 C   0  0  0  0  0  0  0  0  0  0  0  0
  -16.3928   15.8150  -21.2024 C   0  0  0  0  0  0  0  0  0  0  0  0
  -16.9368   16.6190  -20.1908 C   0  0  0  0  0  0  0  0  0  0  0  0
  -18.2439   16.9483  -20.1922 N   0  0  0  0  0  0  0  0  0  0  0  0
  -19.0919   16.5415  -21.1332 C   0  0  0  0  0  0  0  0  0  0  0  0
  -18.5463   15.7569  -22.1141 N   0  0  0  0  0  0  0  0  0  0  0  0
  -20.4625   16.8535  -21.1966 N   0  0  0  0  0  0  0  0  0  0  0  0
  -21.1521   16.2339  -20.6497 H   0  0  0  0  0  0  0  0  0  0  0  0
  -21.0311   17.9175  -21.9045 C   0  0  0  0  0  0  0  0  0  0  0  0
  -20.7296   18.3218  -23.1756 C   0  0  0  0  0  0  0  0  0  0  0  0
  -21.3424   19.3783  -23.8304 C   0  0  0  0  0  0  0  0  0  0  0  0
  -22.3261   20.0994  -23.1990 C   0  0  0  0  0  0  0  0  0  0  0  0
  -22.6430   19.6989  -21.9066 C   0  0  0  0  0  0  0  0  0  0  0  0
  -22.0394   18.6580  -21.2622 C   0  0  0  0  0  0  0  0  0  0  0  0
  -23.6603   20.4591  -21.2346 N   0  0  0  0  0  0  0  0  0  0  0  0
  -24.5818   19.9108  -20.2809 C   0  0  0  0  0  0  0  0  0  0  0  0
  -25.0220   21.0155  -19.3580 C   0  0  0  0  0  0  0  0  0  0  0  0
  -25.6264   22.0556  -20.0167 O   0  0  0  0  0  0  0  0  0  0  0  0
  -25.1785   22.3065  -21.2898 C   0  0  0  0  0  0  0  0  0  0  0  0
  -23.7437   21.8918  -21.5268 C   0  0  0  0  0  0  0  0  0  0  0  0
 15 16  2  0  0  0
 16 19  1  0  0  0
 19 20  1  0  0  0
 20 21  2  0  0  0
 21 22  1  0  0  0
 22 23  2  0  0  0
 23 24  1  0  0  0
 24 25  2  0  0  0
 16 17  1  0  0  0
 17  9  1  0  0  0
  9 10  2  0  0  0
 10 11  1  0  0  0
 11 12  2  0  0  0
 12 13  1  0  0  0
 13 14  2  0  0  0
 13  1  1  0  0  0
  1  2  1  0  0  0
  2  3  2  0  0  0
  3  4  1  0  0  0
  4  5  1  0  0  0
  5  6  2  0  0  0
  6  7  1  0  0  0
  7  8  1  0  0  0
  8 26  1  0  0  0
 26 27  2  0  0  0
 27 28  1  0  0  0
 28 29  2  0  0  0
 29 30  1  0  0  0
 30 32  1  0  0  0
 32 34  1  0  0  0
 34 35  2  0  0  0
 35 36  1  0  0  0
 36 37  2  0  0  0
 37 38  1  0  0  0
 38 39  2  0  0  0
 38 40  1  0  0  0
 40 41  1  0  0  0
 41 42  1  0  0  0
 42 43  1  0  0  0
 43 44  1  0  0  0
 44 45  1  0  0  0
 30 31  2  0  0  0
 25 20  1  0  0  0
 14  9  1  0  0  0
  8  1  2  0  0  0
 31 26  1  0  0  0
  7  3  1  0  0  0
 39 34  1  0  0  0
 45 40  1  0  0  0
 17 18  1  0  0  0
 32 33  1  0  0  0
M  END
> <minimizedAffinity>
-8.75754

> <CNNscore>
0.1078791097

> <CNNaffinity>
7.3009290695

> <CNN_VS>
0.7876177430

> <CNNaffinity_variance>
0.2536705136

$$$$
[H]OC([H])([H])C([H])([H])N1C([H])([H])C([H])([H])N(c2nc(C([H])([H])[H])nc(N([H])c3nc([H])c(C(=O)N([H])c4c(Cl)c([H])c([H])c([H])c4C([H])([H])[H])s3)c2[H])C([H])([H])C1([H])[H]


 36 39  0  0  0  0  0  0  0  0999 V2000
  -17.2447    9.7412  -18.6941 N   0  0  0  0  0  0  0  0  0  0  0  0
  -16.7602    8.8766  -18.4307 H   0  0  0  0  0  0  0  0  0  0  0  0
  -20.8552    9.0439  -15.5901 C   0  0  0  0  0  0  0  0  0  0  0  0
  -20.0392    9.9974  -16.3996 C   0  0  0  0  0  0  0  0  0  0  0  0
  -19.0539    9.4802  -17.1354 N   0  0  0  0  0  0  0  0  0  0  0  0
  -18.2763   10.2661  -17.8934 C   0  0  0  0  0  0  0  0  0  0  0  0
  -18.5157   11.6181  -17.8964 C   0  0  0  0  0  0  0  0  0  0  0  0
  -19.5271   12.1973  -17.1490 C   0  0  0  0  0  0  0  0  0  0  0  0
  -20.2620   11.3069  -16.4104 N   0  0  0  0  0  0  0  0  0  0  0  0
  -19.8220   13.5718  -17.1397 N   0  0  0  0  0  0  0  0  0  0  0  0
  -21.2020   14.0034  -17.1802 C   0  0  0  0  0  0  0  0  0  0  0  0
  -21.4091   15.0433  -18.2671 C   0  0  0  0  0  0  0  0  0  0  0  0
  -20.2393   15.7354  -18.6356 N   0  0  0  0  0  0  0  0  0  0  0  0
  -19.1921   15.8588  -17.6852 C   0  0  0  0  0  0  0  0  0  0  0  0
  -18.7282   14.5265  -17.1150 C   0  0  0  0  0  0  0  0  0  0  0  0
  -19.8898   15.7959  -20.0059 C   0  0  0  0  0  0  0  0  0  0  0  0
  -19.5538   17.2043  -20.4180 C   0  0  0  0  0  0  0  0  0  0  0  0
  -20.5794   18.1128  -20.1965 O   0  0  0  0  0  0  0  0  0  0  0  0
  -21.1710   18.0345  -21.0114 H   0  0  0  0  0  0  0  0  0  0  0  0
  -16.8952   10.4502  -19.8866 C   0  0  0  0  0  0  0  0  0  0  0  0
  -15.8804   10.2616  -20.7125 N   0  0  0  0  0  0  0  0  0  0  0  0
  -15.7277   11.0260  -21.7456 C   0  0  0  0  0  0  0  0  0  0  0  0
  -16.6564   12.0239  -21.9371 C   0  0  0  0  0  0  0  0  0  0  0  0
  -17.6928   11.7892  -20.6051 S   0  0  0  0  0  0  0  0  0  0  0  0
  -16.7051   13.0200  -23.0221 C   0  0  0  0  0  0  0  0  0  0  0  0
  -17.4845   13.9718  -22.8917 O   0  0  0  0  0  0  0  0  0  0  0  0
  -15.8557   12.8282  -24.1462 N   0  0  0  0  0  0  0  0  0  0  0  0
  -15.2239   12.0068  -24.1938 H   0  0  0  0  0  0  0  0  0  0  0  0
  -15.8392   13.7458  -25.2347 C   0  0  0  0  0  0  0  0  0  0  0  0
  -14.9190   14.7393  -25.2766 C   0  0  0  0  0  0  0  0  0  0  0  0
  -13.9085   14.9242  -24.2191 C   0  0  0  0  0  0  0  0  0  0  0  0
  -14.9158   15.6255  -26.3471 C   0  0  0  0  0  0  0  0  0  0  0  0
  -15.8525   15.4717  -27.3446 C   0  0  0  0  0  0  0  0  0  0  0  0
  -16.7804   14.4439  -27.2711 C   0  0  0  0  0  0  0  0  0  0  0  0
  -16.8016   13.5554  -26.2205 C   0  0  0  0  0  0  0  0  0  0  0  0
  -17.9661   12.2395  -26.0968 Cl  0  0  0  0  0  0  0  0  0  0  0  0
  3  4  1  0  0  0
  4  5  2  0  0  0
  5  6  1  0  0  0
  6  1  1  0  0  0
  1 20  1  0  0  0
 20 21  2  0  0  0
 21 22  1  0  0  0
 22 23  2  0  0  0
 23 24  1  0  0  0
 23 25  1  0  0  0
 25 26  2  0  0  0
 25 27  1  0  0  0
 27 29  1  0  0  0
 29 30  2  0  0  0
 30 31  1  0  0  0
 30 32  1  0  0  0
 32 33  2  0  0  0
 33 34  1  0  0  0
 34 35  2  0  0  0
 35 36  1  0  0  0
  6  7  2  0  0  0
  7  8  1  0  0  0
  8  9  2  0  0  0
  8 10  1  0  0  0
 10 11  1  0  0  0
 11 12  1  0  0  0
 12 13  1  0  0  0
 13 16  1  0  0  0
 16 17  1  0  0  0
 17 18  1  0  0  0
 13 14  1  0  0  0
 14 15  1  0  0  0
  9  4  1  0  0  0
 15 10  1  0  0  0
 24 20  1  0  0  0
 35 29  1  0  0  0
  1  2  1  0  0  0
 27 28  1  0  0  0
 18 19  1  0  0  0
M  END
> <minimizedAffinity>
-9.29040

> <CNNscore>
0.9605715275

> <CNNaffinity>
7.9582529068

> <CNN_VS>
7.6444711685

> <CNNaffinity_variance>
0.0401330963

$$$$
[H]OC([H])([H])C([H])([H])N1C([H])([H])C([H])([H])N(c2nc(C([H])([H])[H])nc(N([H])c3nc([H])c(C(=O)N([H])c4c(Cl)c([H])c([H])c([H])c4C([H])([H])[H])s3)c2[H])C([H])([H])C1([H])[H]


 36 39  0  0  0  0  0  0  0  0999 V2000
  -17.1487    9.7995  -18.3136 N   0  0  0  0  0  0  0  0  0  0  0  0
  -16.4809    9.1311  -17.9149 H   0  0  0  0  0  0  0  0  0  0  0  0
  -20.6731   12.9471  -17.4042 C   0  0  0  0  0  0  0  0  0  0  0  0
  -20.0620   11.6101  -17.1415 C   0  0  0  0  0  0  0  0  0  0  0  0
  -18.9491   11.3089  -17.8125 N   0  0  0  0  0  0  0  0  0  0  0  0
  -18.3352   10.1309  -17.6330 C   0  0  0  0  0  0  0  0  0  0  0  0
  -18.8776    9.2382  -16.7419 C   0  0  0  0  0  0  0  0  0  0  0  0
  -20.0301    9.5091  -16.0240 C   0  0  0  0  0  0  0  0  0  0  0  0
  -20.5779   10.7389  -16.2816 N   0  0  0  0  0  0  0  0  0  0  0  0
  -20.6069    8.6353  -15.0859 N   0  0  0  0  0  0  0  0  0  0  0  0
  -21.1146    7.3542  -15.5255 C   0  0  0  0  0  0  0  0  0  0  0  0
  -22.5303    7.1348  -15.0224 C   0  0  0  0  0  0  0  0  0  0  0  0
  -22.8617    7.8896  -13.8805 N   0  0  0  0  0  0  0  0  0  0  0  0
  -21.8205    8.2927  -13.0039 C   0  0  0  0  0  0  0  0  0  0  0  0
  -20.7011    9.0541  -13.6987 C   0  0  0  0  0  0  0  0  0  0  0  0
  -24.0378    8.6769  -13.9053 C   0  0  0  0  0  0  0  0  0  0  0  0
  -24.2651    9.2688  -15.2707 C   0  0  0  0  0  0  0  0  0  0  0  0
  -25.3131    8.6839  -15.9678 O   0  0  0  0  0  0  0  0  0  0  0  0
  -24.9057    7.8710  -16.4076 H   0  0  0  0  0  0  0  0  0  0  0  0
  -16.9050   10.4225  -19.5782 C   0  0  0  0  0  0  0  0  0  0  0  0
  -16.1211   10.0372  -20.5705 N   0  0  0  0  0  0  0  0  0  0  0  0
  -16.0260   10.7533  -21.6442 C   0  0  0  0  0  0  0  0  0  0  0  0
  -16.7673   11.9119  -21.6997 C   0  0  0  0  0  0  0  0  0  0  0  0
  -17.5558   11.8881  -20.1893 S   0  0  0  0  0  0  0  0  0  0  0  0
  -16.8321   12.8944  -22.7963 C   0  0  0  0  0  0  0  0  0  0  0  0
  -17.6066   13.8499  -22.6646 O   0  0  0  0  0  0  0  0  0  0  0  0
  -16.0026   12.6859  -23.9322 N   0  0  0  0  0  0  0  0  0  0  0  0
  -15.3738   11.8622  -23.9801 H   0  0  0  0  0  0  0  0  0  0  0  0
  -16.0023   13.5896  -25.0324 C   0  0  0  0  0  0  0  0  0  0  0  0
  -16.8783   13.4240  -26.0526 C   0  0  0  0  0  0  0  0  0  0  0  0
  -17.8562   12.3211  -26.0820 C   0  0  0  0  0  0  0  0  0  0  0  0
  -16.8657   14.3163  -27.1181 C   0  0  0  0  0  0  0  0  0  0  0  0
  -15.9588   15.3524  -27.1112 C   0  0  0  0  0  0  0  0  0  0  0  0
  -15.0760   15.4933  -26.0512 C   0  0  0  0  0  0  0  0  0  0  0  0
  -15.0712   14.6217  -24.9865 C   0  0  0  0  0  0  0  0  0  0  0  0
  -13.9637   14.7723  -23.6249 Cl  0  0  0  0  0  0  0  0  0  0  0  0
  3  4  1  0  0  0
  4  5  2  0  0  0
  5  6  1  0  0  0
  6  1  1  0  0  0
  1 20  1  0  0  0
 20 21  2  0  0  0
 21 22  1  0  0  0
 22 23  2  0  0  0
 23 24  1  0  0  0
 23 25  1  0  0  0
 25 26  2  0  0  0
 25 27  1  0  0  0
 27 29  1  0  0  0
 29 30  2  0  0  0
 30 31  1  0  0  0
 30 32  1  0  0  0
 32 33  2  0  0  0
 33 34  1  0  0  0
 34 35  2  0  0  0
 35 36  1  0  0  0
  6  7  2  0  0  0
  7  8  1  0  0  0
  8  9  2  0  0  0
  8 10  1  0  0  0
 10 11  1  0  0  0
 11 12  1  0  0  0
 12 13  1  0  0  0
 13 16  1  0  0  0
 16 17  1  0  0  0
 17 18  1  0  0  0
 13 14  1  0  0  0
 14 15  1  0  0  0
  9  4  1  0  0  0
 15 10  1  0  0  0
 24 20  1  0  0  0
 35 29  1  0  0  0
  1  2  1  0  0  0
 27 28  1  0  0  0
 18 19  1  0  0  0
M  END
> <minimizedAffinity>
-9.22618

> <CNNscore>
0.9472226501

> <CNNaffinity>
7.4789457321

> <CNN_VS>
7.0842266083

> <CNNaffinity_variance>
0.0450602099

$$$$
[H]OC([H])([H])C([H])([H])N1C([H])([H])C([H])([H])N(c2nc(C([H])([H])[H])nc(N([H])c3nc([H])c(C(=O)N([H])c4c(Cl)c([H])c([H])c([H])c4C([H])([H])[H])s3)c2[H])C([H])([H])C1([H])[H]


 36 39  0  0  0  0  0  0  0  0999 V2000
  -17.4786    9.9255  -18.2452 N   0  0  0  0  0  0  0  0  0  0  0  0
  -16.8785    9.2031  -17.8334 H   0  0  0  0  0  0  0  0  0  0  0  0
  -21.1180    8.9784  -15.2428 C   0  0  0  0  0  0  0  0  0  0  0  0
  -20.4519    9.9393  -16.1718 C   0  0  0  0  0  0  0  0  0  0  0  0
  -19.3210    9.5364  -16.7535 N   0  0  0  0  0  0  0  0  0  0  0  0
  -18.6619   10.3364  -17.6034 C   0  0  0  0  0  0  0  0  0  0  0  0
  -19.1764   11.5827  -17.8632 C   0  0  0  0  0  0  0  0  0  0  0  0
  -20.3467   12.0414  -17.2828 C   0  0  0  0  0  0  0  0  0  0  0  0
  -20.9407   11.1470  -16.4308 N   0  0  0  0  0  0  0  0  0  0  0  0
  -20.9211   13.2990  -17.5371 N   0  0  0  0  0  0  0  0  0  0  0  0
  -20.9443   13.8097  -18.8903 C   0  0  0  0  0  0  0  0  0  0  0  0
  -20.3986   15.2258  -18.9406 C   0  0  0  0  0  0  0  0  0  0  0  0
  -20.4740   15.9183  -17.7166 N   0  0  0  0  0  0  0  0  0  0  0  0
  -21.4762   15.5457  -16.7829 C   0  0  0  0  0  0  0  0  0  0  0  0
  -21.4556   14.0666  -16.4265 C   0  0  0  0  0  0  0  0  0  0  0  0
  -19.3023   16.5299  -17.2098 C   0  0  0  0  0  0  0  0  0  0  0  0
  -18.1040   15.6362  -17.3879 C   0  0  0  0  0  0  0  0  0  0  0  0
  -18.0545   14.5793  -16.4896 O   0  0  0  0  0  0  0  0  0  0  0  0
  -17.6210   14.9660  -15.6633 H   0  0  0  0  0  0  0  0  0  0  0  0
  -17.1411   10.5455  -19.4896 C   0  0  0  0  0  0  0  0  0  0  0  0
  -16.2207   10.2089  -20.3767 N   0  0  0  0  0  0  0  0  0  0  0  0
  -16.0595   10.9128  -21.4506 C   0  0  0  0  0  0  0  0  0  0  0  0
  -16.8782   12.0066  -21.6190 C   0  0  0  0  0  0  0  0  0  0  0  0
  -17.8305   11.9436  -20.2074 S   0  0  0  0  0  0  0  0  0  0  0  0
  -16.8936   12.9626  -22.7404 C   0  0  0  0  0  0  0  0  0  0  0  0
  -17.6248   13.9551  -22.6374 O   0  0  0  0  0  0  0  0  0  0  0  0
  -16.0693   12.6881  -23.8660 N   0  0  0  0  0  0  0  0  0  0  0  0
  -15.4781   11.8360  -23.8895 H   0  0  0  0  0  0  0  0  0  0  0  0
  -16.0233   13.5626  -24.9887 C   0  0  0  0  0  0  0  0  0  0  0  0
  -16.9006   13.4099  -26.0097 C   0  0  0  0  0  0  0  0  0  0  0  0
  -17.9264   12.3510  -26.0173 C   0  0  0  0  0  0  0  0  0  0  0  0
  -16.8429   14.2732  -27.0974 C   0  0  0  0  0  0  0  0  0  0  0  0
  -15.8909   15.2679  -27.1112 C   0  0  0  0  0  0  0  0  0  0  0  0
  -15.0081   15.3966  -26.0496 C   0  0  0  0  0  0  0  0  0  0  0  0
  -15.0474   14.5531  -24.9631 C   0  0  0  0  0  0  0  0  0  0  0  0
  -13.9412   14.6893  -23.5990 Cl  0  0  0  0  0  0  0  0  0  0  0  0
  3  4  1  0  0  0
  4  5  2  0  0  0
  5  6  1  0  0  0
  6  1  1  0  0  0
  1 20  1  0  0  0
 20 21  2  0  0  0
 21 22  1  0  0  0
 22 23  2  0  0  0
 23 24  1  0  0  0
 23 25  1  0  0  0
 25 26  2  0  0  0
 25 27  1  0  0  0
 27 29  1  0  0  0
 29 30  2  0  0  0
 30 31  1  0  0  0
 30 32  1  0  0  0
 32 33  2  0  0  0
 33 34  1  0  0  0
 34 35  2  0  0  0
 35 36  1  0  0  0
  6  7  2  0  0  0
  7  8  1  0  0  0
  8  9  2  0  0  0
  8 10  1  0  0  0
 10 11  1  0  0  0
 11 12  1  0  0  0
 12 13  1  0  0  0
 13 16  1  0  0  0
 16 17  1  0  0  0
 17 18  1  0  0  0
 13 14  1  0  0  0
 14 15  1  0  0  0
  9  4  1  0  0  0
 15 10  1  0  0  0
 24 20  1  0  0  0
 35 29  1  0  0  0
  1  2  1  0  0  0
 27 28  1  0  0  0
 18 19  1  0  0  0
M  END
> <minimizedAffinity>
-9.47698

> <CNNscore>
0.9423198104

> <CNNaffinity>
7.7206764221

> <CNN_VS>
7.2753462791

> <CNNaffinity_variance>
0.0498082414

$$$$
[H]OC([H])([H])C([H])([H])N1C([H])([H])C([H])([H])N(c2nc(C([H])([H])[H])nc(N([H])c3nc([H])c(C(=O)N([H])c4c(Cl)c([H])c([H])c([H])c4C([H])([H])[H])s3)c2[H])C([H])([H])C1([H])[H]


 36 39  0  0  0  0  0  0  0  0999 V2000
  -17.5111    9.7982  -18.6959 N   0  0  0  0  0  0  0  0  0  0  0  0
  -17.3783    8.8275  -18.3931 H   0  0  0  0  0  0  0  0  0  0  0  0
  -18.6712   14.2760  -17.3691 C   0  0  0  0  0  0  0  0  0  0  0  0
  -18.9528   12.8116  -17.2886 C   0  0  0  0  0  0  0  0  0  0  0  0
  -18.1625   12.0017  -17.9952 N   0  0  0  0  0  0  0  0  0  0  0  0
  -18.3450   10.6739  -17.9758 C   0  0  0  0  0  0  0  0  0  0  0  0
  -19.3652   10.1635  -17.2116 C   0  0  0  0  0  0  0  0  0  0  0  0
  -20.2086   10.9665  -16.4626 C   0  0  0  0  0  0  0  0  0  0  0  0
  -19.9366   12.3068  -16.5525 N   0  0  0  0  0  0  0  0  0  0  0  0
  -21.2497   10.4860  -15.6493 N   0  0  0  0  0  0  0  0  0  0  0  0
  -22.2101   11.4174  -15.0992 C   0  0  0  0  0  0  0  0  0  0  0  0
  -22.3669   11.2083  -13.6034 C   0  0  0  0  0  0  0  0  0  0  0  0
  -22.0047    9.9221  -13.1583 N   0  0  0  0  0  0  0  0  0  0  0  0
  -22.0896    8.8364  -14.0688 C   0  0  0  0  0  0  0  0  0  0  0  0
  -21.3192    9.0646  -15.3609 C   0  0  0  0  0  0  0  0  0  0  0  0
  -21.0849    9.8085  -12.0884 C   0  0  0  0  0  0  0  0  0  0  0  0
  -20.0065   10.8543  -12.1872 C   0  0  0  0  0  0  0  0  0  0  0  0
  -18.9840   10.5238  -13.0656 O   0  0  0  0  0  0  0  0  0  0  0  0
  -18.3543    9.9515  -12.5214 H   0  0  0  0  0  0  0  0  0  0  0  0
  -16.8567   10.3042  -19.8632 C   0  0  0  0  0  0  0  0  0  0  0  0
  -15.7818    9.8552  -20.4883 N   0  0  0  0  0  0  0  0  0  0  0  0
  -15.3323   10.4665  -21.5366 C   0  0  0  0  0  0  0  0  0  0  0  0
  -16.0159   11.5840  -21.9592 C   0  0  0  0  0  0  0  0  0  0  0  0
  -17.2686   11.6765  -20.8079 S   0  0  0  0  0  0  0  0  0  0  0  0
  -15.7102   12.4516  -23.1107 C   0  0  0  0  0  0  0  0  0  0  0  0
  -14.5706   12.3901  -23.5879 O   0  0  0  0  0  0  0  0  0  0  0  0
  -16.7398   13.3007  -23.6016 N   0  0  0  0  0  0  0  0  0  0  0  0
  -17.6761   13.3041  -23.1551 H   0  0  0  0  0  0  0  0  0  0  0  0
  -16.5276   14.1661  -24.7120 C   0  0  0  0  0  0  0  0  0  0  0  0
  -15.9842   15.3934  -24.5274 C   0  0  0  0  0  0  0  0  0  0  0  0
  -15.5948   15.8919  -23.1957 C   0  0  0  0  0  0  0  0  0  0  0  0
  -15.7825   16.2251  -25.6225 C   0  0  0  0  0  0  0  0  0  0  0  0
  -16.1413   15.7795  -26.8750 C   0  0  0  0  0  0  0  0  0  0  0  0
  -16.6949   14.5176  -27.0290 C   0  0  0  0  0  0  0  0  0  0  0  0
  -16.9035   13.6780  -25.9589 C   0  0  0  0  0  0  0  0  0  0  0  0
  -17.6042   12.0699  -26.1201 Cl  0  0  0  0  0  0  0  0  0  0  0  0
  3  4  1  0  0  0
  4  5  2  0  0  0
  5  6  1  0  0  0
  6  1  1  0  0  0
  1 20  1  0  0  0
 20 21  2  0  0  0
 21 22  1  0  0  0
 22 23  2  0  0  0
 23 24  1  0  0  0
 23 25  1  0  0  0
 25 26  2  0  0  0
 25 27  1  0  0  0
 27 29  1  0  0  0
 29 30  2  0  0  0
 30 31  1  0  0  0
 30 32  1  0  0  0
 32 33  2  0  0  0
 33 34  1  0  0  0
 34 35  2  0  0  0
 35 36  1  0  0  0
  6  7  2  0  0  0
  7  8  1  0  0  0
  8  9  2  0  0  0
  8 10  1  0  0  0
 10 11  1  0  0  0
 11 12  1  0  0  0
 12 13  1  0  0  0
 13 16  1  0  0  0
 16 17  1  0  0  0
 17 18  1  0  0  0
 13 14  1  0  0  0
 14 15  1  0  0  0
  9  4  1  0  0  0
 15 10  1  0  0  0
 24 20  1  0  0  0
 35 29  1  0  0  0
  1  2  1  0  0  0
 27 28  1  0  0  0
 18 19  1  0  0  0
M  END
> <minimizedAffinity>
-8.92107

> <CNNscore>
0.9301274419

> <CNNaffinity>
7.6309914589

> <CNN_VS>
7.0977945328

> <CNNaffinity_variance>
0.1486883909

$$$$
[H]OC([H])([H])C([H])([H])N1C([H])([H])C([H])([H])N(c2nc(C([H])([H])[H])nc(N([H])c3nc([H])c(C(=O)N([H])c4c(Cl)c([H])c([H])c([H])c4C([H])([H])[H])s3)c2[H])C([H])([H])C1([H])[H]


 36 39  0  0  0  0  0  0  0  0999 V2000
  -17.2986    9.7564  -18.6068 N   0  0  0  0  0  0  0  0  0  0  0  0
  -16.6064    9.0108  -18.4786 H   0  0  0  0  0  0  0  0  0  0  0  0
  -20.8062   12.4618  -16.7268 C   0  0  0  0  0  0  0  0  0  0  0  0
  -20.0973   11.1482  -16.7710 C   0  0  0  0  0  0  0  0  0  0  0  0
  -19.0801   11.0358  -17.6268 N   0  0  0  0  0  0  0  0  0  0  0  0
  -18.3886    9.8919  -17.7268 C   0  0  0  0  0  0  0  0  0  0  0  0
  -18.7503    8.8353  -16.9279 C   0  0  0  0  0  0  0  0  0  0  0  0
  -19.7981    8.9078  -16.0259 C   0  0  0  0  0  0  0  0  0  0  0  0
  -20.4383   10.1196  -16.0028 N   0  0  0  0  0  0  0  0  0  0  0  0
  -20.1879    7.8602  -15.1733 N   0  0  0  0  0  0  0  0  0  0  0  0
  -21.0029    6.7848  -15.6946 C   0  0  0  0  0  0  0  0  0  0  0  0
  -22.2100    6.5446  -14.8054 C   0  0  0  0  0  0  0  0  0  0  0  0
  -22.0485    6.9887  -13.4787 N   0  0  0  0  0  0  0  0  0  0  0  0
  -20.7374    7.0640  -12.9397 C   0  0  0  0  0  0  0  0  0  0  0  0
  -19.7815    7.8982  -13.7798 C   0  0  0  0  0  0  0  0  0  0  0  0
  -23.0343    7.8390  -12.9230 C   0  0  0  0  0  0  0  0  0  0  0  0
  -23.4528    8.8990  -13.9067 C   0  0  0  0  0  0  0  0  0  0  0  0
  -22.6109   10.0020  -13.9342 O   0  0  0  0  0  0  0  0  0  0  0  0
  -22.9395   10.5934  -13.1843 H   0  0  0  0  0  0  0  0  0  0  0  0
  -17.1881   10.6897  -19.6855 C   0  0  0  0  0  0  0  0  0  0  0  0
  -17.8866   11.7859  -19.9265 N   0  0  0  0  0  0  0  0  0  0  0  0
  -17.6390   12.5011  -20.9763 C   0  0  0  0  0  0  0  0  0  0  0  0
  -16.6324   12.0718  -21.8113 C   0  0  0  0  0  0  0  0  0  0  0  0
  -16.1086   10.6570  -21.0192 S   0  0  0  0  0  0  0  0  0  0  0  0
  -16.1620   12.6981  -23.0597 C   0  0  0  0  0  0  0  0  0  0  0  0
  -15.0538   12.3562  -23.4902 O   0  0  0  0  0  0  0  0  0  0  0  0
  -17.0077   13.6510  -23.6911 N   0  0  0  0  0  0  0  0  0  0  0  0
  -17.9275   13.8936  -23.2772 H   0  0  0  0  0  0  0  0  0  0  0  0
  -16.6297   14.2986  -24.9014 C   0  0  0  0  0  0  0  0  0  0  0  0
  -15.9449   15.4671  -24.8657 C   0  0  0  0  0  0  0  0  0  0  0  0
  -15.5650   16.1209  -23.6001 C   0  0  0  0  0  0  0  0  0  0  0  0
  -15.5823   16.0852  -26.0565 C   0  0  0  0  0  0  0  0  0  0  0  0
  -15.9292   15.4922  -27.2498 C   0  0  0  0  0  0  0  0  0  0  0  0
  -16.6301   14.2957  -27.2508 C   0  0  0  0  0  0  0  0  0  0  0  0
  -16.9992   13.6667  -26.0840 C   0  0  0  0  0  0  0  0  0  0  0  0
  -17.8895   12.1471  -26.0503 Cl  0  0  0  0  0  0  0  0  0  0  0  0
  3  4  1  0  0  0
  4  5  2  0  0  0
  5  6  1  0  0  0
  6  1  1  0  0  0
  1 20  1  0  0  0
 20 21  2  0  0  0
 21 22  1  0  0  0
 22 23  2  0  0  0
 23 24  1  0  0  0
 23 25  1  0  0  0
 25 26  2  0  0  0
 25 27  1  0  0  0
 27 29  1  0  0  0
 29 30  2  0  0  0
 30 31  1  0  0  0
 30 32  1  0  0  0
 32 33  2  0  0  0
 33 34  1  0  0  0
 34 35  2  0  0  0
 35 36  1  0  0  0
  6  7  2  0  0  0
  7  8  1  0  0  0
  8  9  2  0  0  0
  8 10  1  0  0  0
 10 11  1  0  0  0
 11 12  1  0  0  0
 12 13  1  0  0  0
 13 16  1  0  0  0
 16 17  1  0  0  0
 17 18  1  0  0  0
 13 14  1  0  0  0
 14 15  1  0  0  0
  9  4  1  0  0  0
 15 10  1  0  0  0
 24 20  1  0  0  0
 35 29  1  0  0  0
  1  2  1  0  0  0
 27 28  1  0  0  0
 18 19  1  0  0  0
M  END
> <minimizedAffinity>
-8.94233

> <CNNscore>
0.9261428714

> <CNNaffinity>
7.4131479263

> <CNN_VS>
6.8656339645

> <CNNaffinity_variance>
0.0706259310

$$$$
[H]OC([H])([H])C([H])([H])N1C([H])([H])C([H])([H])N(c2nc(C([H])([H])[H])nc(N([H])c3nc([H])c(C(=O)N([H])c4c(Cl)c([H])c([H])c([H])c4C([H])([H])[H])s3)c2[H])C([H])([H])C1([H])[H]


 36 39  0  0  0  0  0  0  0  0999 V2000
  -17.5520    9.8928  -18.6391 N   0  0  0  0  0  0  0  0  0  0  0  0
  -17.3283    8.9740  -18.2424 H   0  0  0  0  0  0  0  0  0  0  0  0
  -21.4972   10.3935  -15.9295 C   0  0  0  0  0  0  0  0  0  0  0  0
  -20.4256   11.0355  -16.7478 C   0  0  0  0  0  0  0  0  0  0  0  0
  -19.5103   10.2299  -17.2891 N   0  0  0  0  0  0  0  0  0  0  0  0
  -18.5166   10.7247  -18.0403 C   0  0  0  0  0  0  0  0  0  0  0  0
  -18.4601   12.0819  -18.2413 C   0  0  0  0  0  0  0  0  0  0  0  0
  -19.3885   12.9545  -17.6996 C   0  0  0  0  0  0  0  0  0  0  0  0
  -20.3614   12.3469  -16.9491 N   0  0  0  0  0  0  0  0  0  0  0  0
  -19.3825   14.3462  -17.8979 N   0  0  0  0  0  0  0  0  0  0  0  0
  -18.6430   15.1913  -16.9862 C   0  0  0  0  0  0  0  0  0  0  0  0
  -19.5120   16.3304  -16.4832 C   0  0  0  0  0  0  0  0  0  0  0  0
  -20.5942   16.6480  -17.3266 N   0  0  0  0  0  0  0  0  0  0  0  0
  -20.4876   16.3565  -18.7117 C   0  0  0  0  0  0  0  0  0  0  0  0
  -20.1427   14.9033  -19.0026 C   0  0  0  0  0  0  0  0  0  0  0  0
  -21.8938   16.7095  -16.7689 C   0  0  0  0  0  0  0  0  0  0  0  0
  -22.1195   15.5840  -15.7950 C   0  0  0  0  0  0  0  0  0  0  0  0
  -22.5039   14.3927  -16.3945 O   0  0  0  0  0  0  0  0  0  0  0  0
  -23.5046   14.4734  -16.5056 H   0  0  0  0  0  0  0  0  0  0  0  0
  -16.8957   10.3684  -19.8180 C   0  0  0  0  0  0  0  0  0  0  0  0
  -15.8277    9.8955  -20.4370 N   0  0  0  0  0  0  0  0  0  0  0  0
  -15.3747   10.4809  -21.4985 C   0  0  0  0  0  0  0  0  0  0  0  0
  -16.0475   11.5973  -21.9413 C   0  0  0  0  0  0  0  0  0  0  0  0
  -17.2956   11.7261  -20.7885 S   0  0  0  0  0  0  0  0  0  0  0  0
  -15.7359   12.4385  -23.1105 C   0  0  0  0  0  0  0  0  0  0  0  0
  -14.6102   12.3291  -23.6116 O   0  0  0  0  0  0  0  0  0  0  0  0
  -16.7443   13.3188  -23.5902 N   0  0  0  0  0  0  0  0  0  0  0  0
  -17.6697   13.3624  -23.1235 H   0  0  0  0  0  0  0  0  0  0  0  0
  -16.5253   14.1619  -24.7164 C   0  0  0  0  0  0  0  0  0  0  0  0
  -15.9557   15.3808  -24.5567 C   0  0  0  0  0  0  0  0  0  0  0  0
  -15.5438   15.8926  -23.2368 C   0  0  0  0  0  0  0  0  0  0  0  0
  -15.7476   16.1906  -25.6669 C   0  0  0  0  0  0  0  0  0  0  0  0
  -16.1271   15.7323  -26.9086 C   0  0  0  0  0  0  0  0  0  0  0  0
  -16.7073   14.4795  -27.0372 C   0  0  0  0  0  0  0  0  0  0  0  0
  -16.9226   13.6616  -25.9517 C   0  0  0  0  0  0  0  0  0  0  0  0
  -17.6569   12.0656  -26.0804 Cl  0  0  0  0  0  0  0  0  0  0  0  0
  3  4  1  0  0  0
  4  5  2  0  0  0
  5  6  1  0  0  0
  6  1  1  0  0  0
  1 20  1  0  0  0
 20 21  2  0  0  0
 21 22  1  0  0  0
 22 23  2  0  0  0
 23 24  1  0  0  0
 23 25  1  0  0  0
 25 26  2  0  0  0
 25 27  1  0  0  0
 27 29  1  0  0  0
 29 30  2  0  0  0
 30 31  1  0  0  0
 30 32  1  0  0  0
 32 33  2  0  0  0
 33 34  1  0  0  0
 34 35  2  0  0  0
 35 36  1  0  0  0
  6  7  2  0  0  0
  7  8  1  0  0  0
  8  9  2  0  0  0
  8 10  1  0  0  0
 10 11  1  0  0  0
 11 12  1  0  0  0
 12 13  1  0  0  0
 13 16  1  0  0  0
 16 17  1  0  0  0
 17 18  1  0  0  0
 13 14  1  0  0  0
 14 15  1  0  0  0
  9  4  1  0  0  0
 15 10  1  0  0  0
 24 20  1  0  0  0
 35 29  1  0  0  0
  1  2  1  0  0  0
 27 28  1  0  0  0
 18 19  1  0  0  0
M  END
> <minimizedAffinity>
-9.17558

> <CNNscore>
0.9113922715

> <CNNaffinity>
7.6688590050

> <CNN_VS>
6.9893388748

> <CNNaffinity_variance>
0.0145179033

$$$$
[H]OC([H])([H])C([H])([H])N1C([H])([H])C([H])([H])N(c2nc(C([H])([H])[H])nc(N([H])c3nc([H])c(C(=O)N([H])c4c(Cl)c([H])c([H])c([H])c4C([H])([H])[H])s3)c2[H])C([H])([H])C1([H])[H]


 36 39  0  0  0  0  0  0  0  0999 V2000
  -17.5224    9.8117  -18.6504 N   0  0  0  0  0  0  0  0  0  0  0  0
  -17.2797    8.8929  -18.2651 H   0  0  0  0  0  0  0  0  0  0  0  0
  -21.3656   10.2089  -15.7819 C   0  0  0  0  0  0  0  0  0  0  0  0
  -20.3737   10.8725  -16.6796 C   0  0  0  0  0  0  0  0  0  0  0  0
  -19.4354   10.0973  -17.2257 N   0  0  0  0  0  0  0  0  0  0  0  0
  -18.5090   10.6130  -18.0459 C   0  0  0  0  0  0  0  0  0  0  0  0
  -18.5460   11.9594  -18.3126 C   0  0  0  0  0  0  0  0  0  0  0  0
  -19.5017   12.8006  -17.7686 C   0  0  0  0  0  0  0  0  0  0  0  0
  -20.4002   12.1739  -16.9449 N   0  0  0  0  0  0  0  0  0  0  0  0
  -19.5910   14.1787  -18.0319 N   0  0  0  0  0  0  0  0  0  0  0  0
  -18.4493   15.0279  -17.7721 C   0  0  0  0  0  0  0  0  0  0  0  0
  -18.8531   16.2342  -16.9431 C   0  0  0  0  0  0  0  0  0  0  0  0
  -20.2189   16.5661  -17.0323 N   0  0  0  0  0  0  0  0  0  0  0  0
  -20.9342   16.2014  -18.2029 C   0  0  0  0  0  0  0  0  0  0  0  0
  -20.8408   14.7196  -18.5359 C   0  0  0  0  0  0  0  0  0  0  0  0
  -20.9585   16.7229  -15.8357 C   0  0  0  0  0  0  0  0  0  0  0  0
  -20.2403   17.6261  -14.8689 C   0  0  0  0  0  0  0  0  0  0  0  0
  -20.8146   17.6649  -13.6059 O   0  0  0  0  0  0  0  0  0  0  0  0
  -21.5475   18.3560  -13.6792 H   0  0  0  0  0  0  0  0  0  0  0  0
  -16.8709   10.3183  -19.8190 C   0  0  0  0  0  0  0  0  0  0  0  0
  -15.7548    9.9169  -20.4027 N   0  0  0  0  0  0  0  0  0  0  0  0
  -15.3171   10.5198  -21.4609 C   0  0  0  0  0  0  0  0  0  0  0  0
  -16.0575   11.5776  -21.9382 C   0  0  0  0  0  0  0  0  0  0  0  0
  -17.3425   11.6299  -20.8204 S   0  0  0  0  0  0  0  0  0  0  0  0
  -15.7766   12.4237  -23.1117 C   0  0  0  0  0  0  0  0  0  0  0  0
  -14.6305   12.3970  -23.5764 O   0  0  0  0  0  0  0  0  0  0  0  0
  -16.8359   13.2136  -23.6369 N   0  0  0  0  0  0  0  0  0  0  0  0
  -17.7762   13.1901  -23.1994 H   0  0  0  0  0  0  0  0  0  0  0  0
  -16.6489   14.0548  -24.7703 C   0  0  0  0  0  0  0  0  0  0  0  0
  -16.9599   13.6083  -26.0110 C   0  0  0  0  0  0  0  0  0  0  0  0
  -17.4936   12.2553  -26.2522 C   0  0  0  0  0  0  0  0  0  0  0  0
  -16.7727   14.4429  -27.1064 C   0  0  0  0  0  0  0  0  0  0  0  0
  -16.2733   15.7100  -26.9034 C   0  0  0  0  0  0  0  0  0  0  0  0
  -15.9653   16.1357  -25.6201 C   0  0  0  0  0  0  0  0  0  0  0  0
  -16.1427   15.3261  -24.5218 C   0  0  0  0  0  0  0  0  0  0  0  0
  -15.7617   15.8359  -22.8792 Cl  0  0  0  0  0  0  0  0  0  0  0  0
  3  4  1  0  0  0
  4  5  2  0  0  0
  5  6  1  0  0  0
  6  1  1  0  0  0
  1 20  1  0  0  0
 20 21  2  0  0  0
 21 22  1  0  0  0
 22 23  2  0  0  0
 23 24  1  0  0  0
 23 25  1  0  0  0
 25 26  2  0  0  0
 25 27  1  0  0  0
 27 29  1  0  0  0
 29 30  2  0  0  0
 30 31  1  0  0  0
 30 32  1  0  0  0
 32 33  2  0  0  0
 33 34  1  0  0  0
 34 35  2  0  0  0
 35 36  1  0  0  0
  6  7  2  0  0  0
  7  8  1  0  0  0
  8  9  2  0  0  0
  8 10  1  0  0  0
 10 11  1  0  0  0
 11 12  1  0  0  0
 12 13  1  0  0  0
 13 16  1  0  0  0
 16 17  1  0  0  0
 17 18  1  0  0  0
 13 14  1  0  0  0
 14 15  1  0  0  0
  9  4  1  0  0  0
 15 10  1  0  0  0
 24 20  1  0  0  0
 35 29  1  0  0  0
  1  2  1  0  0  0
 27 28  1  0  0  0
 18 19  1  0  0  0
M  END
> <minimizedAffinity>
-9.47623

> <CNNscore>
0.8838357925

> <CNNaffinity>
7.7113213539

> <CNN_VS>
6.8155417442

> <CNNaffinity_variance>
0.0588053651

$$$$
[H]OC([H])([H])C([H])([H])N1C([H])([H])C([H])([H])N(c2nc(C([H])([H])[H])nc(N([H])c3nc([H])c(C(=O)N([H])c4c(Cl)c([H])c([H])c([H])c4C([H])([H])[H])s3)c2[H])C([H])([H])C1([H])[H]


 36 39  0  0  0  0  0  0  0  0999 V2000
  -17.3538    9.5002  -18.3369 N   0  0  0  0  0  0  0  0  0  0  0  0
  -16.7510    8.7242  -18.0436 H   0  0  0  0  0  0  0  0  0  0  0  0
  -20.6519   12.7825  -17.1100 C   0  0  0  0  0  0  0  0  0  0  0  0
  -20.1056   11.4030  -16.9415 C   0  0  0  0  0  0  0  0  0  0  0  0
  -19.0425   11.0769  -17.6785 N   0  0  0  0  0  0  0  0  0  0  0  0
  -18.4882    9.8600  -17.5854 C   0  0  0  0  0  0  0  0  0  0  0  0
  -19.0393    8.9536  -16.7135 C   0  0  0  0  0  0  0  0  0  0  0  0
  -20.1414    9.2493  -15.9294 C   0  0  0  0  0  0  0  0  0  0  0  0
  -20.6303   10.5182  -16.1010 N   0  0  0  0  0  0  0  0  0  0  0  0
  -20.7235    8.3613  -15.0081 N   0  0  0  0  0  0  0  0  0  0  0  0
  -22.0499    8.6331  -14.4991 C   0  0  0  0  0  0  0  0  0  0  0  0
  -22.0715    8.5534  -12.9829 C   0  0  0  0  0  0  0  0  0  0  0  0
  -21.0390    7.7709  -12.4303 N   0  0  0  0  0  0  0  0  0  0  0  0
  -20.4752    6.7323  -13.2166 C   0  0  0  0  0  0  0  0  0  0  0  0
  -19.9648    7.2032  -14.5705 C   0  0  0  0  0  0  0  0  0  0  0  0
  -20.2314    8.3338  -11.4132 C   0  0  0  0  0  0  0  0  0  0  0  0
  -18.8856    8.7398  -11.9521 C   0  0  0  0  0  0  0  0  0  0  0  0
  -17.9666    9.0775  -10.9683 O   0  0  0  0  0  0  0  0  0  0  0  0
  -18.1571   10.0479  -10.7626 H   0  0  0  0  0  0  0  0  0  0  0  0
  -17.0698   10.2493  -19.5222 C   0  0  0  0  0  0  0  0  0  0  0  0
  -16.2008   10.0024  -20.4873 N   0  0  0  0  0  0  0  0  0  0  0  0
  -16.0831   10.8180  -21.4851 C   0  0  0  0  0  0  0  0  0  0  0  0
  -16.8919   11.9319  -21.4907 C   0  0  0  0  0  0  0  0  0  0  0  0
  -17.7726   11.7244  -20.0468 S   0  0  0  0  0  0  0  0  0  0  0  0
  -16.9489   13.0051  -22.4992 C   0  0  0  0  0  0  0  0  0  0  0  0
  -17.3973   12.7188  -23.6160 O   0  0  0  0  0  0  0  0  0  0  0  0
  -16.4893   14.2984  -22.1277 N   0  0  0  0  0  0  0  0  0  0  0  0
  -16.1243   14.4724  -21.1724 H   0  0  0  0  0  0  0  0  0  0  0  0
  -16.5140   15.3903  -23.0410 C   0  0  0  0  0  0  0  0  0  0  0  0
  -15.4833   15.5875  -23.8979 C   0  0  0  0  0  0  0  0  0  0  0  0
  -14.3029   14.7048  -23.9290 C   0  0  0  0  0  0  0  0  0  0  0  0
  -15.5241   16.6574  -24.7840 C   0  0  0  0  0  0  0  0  0  0  0  0
  -16.6167   17.4953  -24.7699 C   0  0  0  0  0  0  0  0  0  0  0  0
  -17.6549   17.2650  -23.8801 C   0  0  0  0  0  0  0  0  0  0  0  0
  -17.6351   16.2121  -22.9943 C   0  0  0  0  0  0  0  0  0  0  0  0
  -18.9368   15.8916  -21.8516 Cl  0  0  0  0  0  0  0  0  0  0  0  0
  3  4  1  0  0  0
  4  5  2  0  0  0
  5  6  1  0  0  0
  6  1  1  0  0  0
  1 20  1  0  0  0
 20 21  2  0  0  0
 21 22  1  0  0  0
 22 23  2  0  0  0
 23 24  1  0  0  0
 23 25  1  0  0  0
 25 26  2  0  0  0
 25 27  1  0  0  0
 27 29  1  0  0  0
 29 30  2  0  0  0
 30 31  1  0  0  0
 30 32  1  0  0  0
 32 33  2  0  0  0
 33 34  1  0  0  0
 34 35  2  0  0  0
 35 36  1  0  0  0
  6  7  2  0  0  0
  7  8  1  0  0  0
  8  9  2  0  0  0
  8 10  1  0  0  0
 10 11  1  0  0  0
 11 12  1  0  0  0
 12 13  1  0  0  0
 13 16  1  0  0  0
 16 17  1  0  0  0
 17 18  1  0  0  0
 13 14  1  0  0  0
 14 15  1  0  0  0
  9  4  1  0  0  0
 15 10  1  0  0  0
 24 20  1  0  0  0
 35 29  1  0  0  0
  1  2  1  0  0  0
 27 28  1  0  0  0
 18 19  1  0  0  0
M  END
> <minimizedAffinity>
-8.45199

> <CNNscore>
0.8725576401

> <CNNaffinity>
7.3191275597

> <CNN_VS>
6.3863606453

> <CNNaffinity_variance>
0.0872229710

$$$$
[H]OC([H])([H])C([H])([H])N1C([H])([H])C([H])([H])N(c2nc(C([H])([H])[H])nc(N([H])c3nc([H])c(C(=O)N([H])c4c(Cl)c([H])c([H])c([H])c4C([H])([H])[H])s3)c2[H])C([H])([H])C1([H])[H]


 36 39  0  0  0  0  0  0  0  0999 V2000
  -17.7493    9.9251  -18.7173 N   0  0  0  0  0  0  0  0  0  0  0  0
  -17.7513    8.9278  -18.4782 H   0  0  0  0  0  0  0  0  0  0  0  0
  -18.4969   14.4898  -17.3903 C   0  0  0  0  0  0  0  0  0  0  0  0
  -18.8394   13.0452  -17.2288 C   0  0  0  0  0  0  0  0  0  0  0  0
  -18.1907   12.1769  -18.0065 N   0  0  0  0  0  0  0  0  0  0  0  0
  -18.4361   10.8618  -17.9226 C   0  0  0  0  0  0  0  0  0  0  0  0
  -19.3720   10.4260  -17.0172 C   0  0  0  0  0  0  0  0  0  0  0  0
  -20.0681   11.2913  -16.1904 C   0  0  0  0  0  0  0  0  0  0  0  0
  -19.7426   12.6124  -16.3562 N   0  0  0  0  0  0  0  0  0  0  0  0
  -21.0167   10.8878  -15.2346 N   0  0  0  0  0  0  0  0  0  0  0  0
  -21.1830   11.6646  -14.0257 C   0  0  0  0  0  0  0  0  0  0  0  0
  -21.1277   10.7707  -12.7996 C   0  0  0  0  0  0  0  0  0  0  0  0
  -21.4443    9.4219  -13.0525 N   0  0  0  0  0  0  0  0  0  0  0  0
  -22.2855    9.1139  -14.1537 C   0  0  0  0  0  0  0  0  0  0  0  0
  -21.7899    9.6826  -15.4752 C   0  0  0  0  0  0  0  0  0  0  0  0
  -20.5442    8.4203  -12.6165 C   0  0  0  0  0  0  0  0  0  0  0  0
  -19.1156    8.8500  -12.8189 C   0  0  0  0  0  0  0  0  0  0  0  0
  -18.6228    8.5774  -14.0875 O   0  0  0  0  0  0  0  0  0  0  0  0
  -18.3089    7.6187  -14.0394 H   0  0  0  0  0  0  0  0  0  0  0  0
  -17.0505   10.4074  -19.8688 C   0  0  0  0  0  0  0  0  0  0  0  0
  -15.9117    9.9942  -20.3980 N   0  0  0  0  0  0  0  0  0  0  0  0
  -15.4310   10.5750  -21.4499 C   0  0  0  0  0  0  0  0  0  0  0  0
  -16.1508   11.6223  -21.9789 C   0  0  0  0  0  0  0  0  0  0  0  0
  -17.4803   11.6975  -20.9157 S   0  0  0  0  0  0  0  0  0  0  0  0
  -15.8220   12.4438  -23.1575 C   0  0  0  0  0  0  0  0  0  0  0  0
  -14.6680   12.3777  -23.5982 O   0  0  0  0  0  0  0  0  0  0  0  0
  -16.8471   13.2566  -23.7145 N   0  0  0  0  0  0  0  0  0  0  0  0
  -17.7963   13.2663  -23.2961 H   0  0  0  0  0  0  0  0  0  0  0  0
  -16.6130   14.0764  -24.8548 C   0  0  0  0  0  0  0  0  0  0  0  0
  -16.9140   13.6230  -26.0955 C   0  0  0  0  0  0  0  0  0  0  0  0
  -17.4842   12.2837  -26.3295 C   0  0  0  0  0  0  0  0  0  0  0  0
  -16.6806   14.4368  -27.1977 C   0  0  0  0  0  0  0  0  0  0  0  0
  -16.1465   15.6906  -27.0013 C   0  0  0  0  0  0  0  0  0  0  0  0
  -15.8500   16.1241  -25.7179 C   0  0  0  0  0  0  0  0  0  0  0  0
  -16.0729   15.3350  -24.6129 C   0  0  0  0  0  0  0  0  0  0  0  0
  -15.7076   15.8551  -22.9700 Cl  0  0  0  0  0  0  0  0  0  0  0  0
  3  4  1  0  0  0
  4  5  2  0  0  0
  5  6  1  0  0  0
  6  1  1  0  0  0
  1 20  1  0  0  0
 20 21  2  0  0  0
 21 22  1  0  0  0
 22 23  2  0  0  0
 23 24  1  0  0  0
 23 25  1  0  0  0
 25 26  2  0  0  0
 25 27  1  0  0  0
 27 29  1  0  0  0
 29 30  2  0  0  0
 30 31  1  0  0  0
 30 32  1  0  0  0
 32 33  2  0  0  0
 33 34  1  0  0  0
 34 35  2  0  0  0
 35 36  1  0  0  0
  6  7  2  0  0  0
  7  8  1  0  0  0
  8  9  2  0  0  0
  8 10  1  0  0  0
 10 11  1  0  0  0
 11 12  1  0  0  0
 12 13  1  0  0  0
 13 16  1  0  0  0
 16 17  1  0  0  0
 17 18  1  0  0  0
 13 14  1  0  0  0
 14 15  1  0  0  0
  9  4  1  0  0  0
 15 10  1  0  0  0
 24 20  1  0  0  0
 35 29  1  0  0  0
  1  2  1  0  0  0
 27 28  1  0  0  0
 18 19  1  0  0  0
M  END
> <minimizedAffinity>
-9.29991

> <CNNscore>
0.8706497550

> <CNNaffinity>
7.5211610794

> <CNN_VS>
6.5482969284

> <CNNaffinity_variance>
0.1892751753

$$$$
[H]c1nc(N([H])[H])c2c(-c3c([H])c([H])c(Oc4c([H])c([H])c([H])c([H])c4[H])c([H])c3[H])c([H])n(C3([H])C([H])([H])C([H])([H])C([H])(N4C([H])([H])C([H])([H])N(C([H])([H])[H])C([H])([H])C4([H])[H])C([H])([H])C3([H])[H])c2n1


 38 43  0  0  0  0  0  0  0  0999 V2000
  -19.6791   13.3182  -19.1472 N   0  0  0  0  0  0  0  0  0  0  0  0
  -20.1967   12.9934  -17.9680 C   0  0  0  0  0  0  0  0  0  0  0  0
  -19.6088   11.8073  -17.4998 C   0  0  0  0  0  0  0  0  0  0  0  0
  -18.7134   11.4409  -18.4650 C   0  0  0  0  0  0  0  0  0  0  0  0
  -17.8484   10.3537  -18.5675 C   0  0  0  0  0  0  0  0  0  0  0  0
  -17.7943    9.3632  -17.5577 N   0  0  0  0  0  0  0  0  0  0  0  0
  -17.0801   10.2681  -19.6755 N   0  0  0  0  0  0  0  0  0  0  0  0
  -17.1565   11.2054  -20.6403 C   0  0  0  0  0  0  0  0  0  0  0  0
  -17.9806   12.2507  -20.5573 N   0  0  0  0  0  0  0  0  0  0  0  0
  -18.7769   12.3889  -19.4666 C   0  0  0  0  0  0  0  0  0  0  0  0
  -18.6075    8.7226  -17.3595 H   0  0  0  0  0  0  0  0  0  0  0  0
  -16.8874    9.2979  -17.0069 H   0  0  0  0  0  0  0  0  0  0  0  0
  -20.7011   17.1624  -20.6058 C   0  0  0  0  0  0  0  0  0  0  0  0
  -21.7780   16.1253  -20.4323 C   0  0  0  0  0  0  0  0  0  0  0  0
  -21.2743   15.1735  -19.3357 C   0  0  0  0  0  0  0  0  0  0  0  0
  -20.0576   14.4864  -19.9144 C   0  0  0  0  0  0  0  0  0  0  0  0
  -18.9397   15.5215  -19.9328 C   0  0  0  0  0  0  0  0  0  0  0  0
  -19.3748   16.5569  -20.9773 C   0  0  0  0  0  0  0  0  0  0  0  0
  -22.0607   20.2007  -24.6752 C   0  0  0  0  0  0  0  0  0  0  0  0
  -22.4798   19.2183  -23.7232 N   0  0  0  0  0  0  0  0  0  0  0  0
  -22.5064   19.8321  -22.3988 C   0  0  0  0  0  0  0  0  0  0  0  0
  -22.3574   18.7370  -21.3415 C   0  0  0  0  0  0  0  0  0  0  0  0
  -20.9974   18.2513  -21.4437 N   0  0  0  0  0  0  0  0  0  0  0  0
  -20.5089   18.2533  -22.7706 C   0  0  0  0  0  0  0  0  0  0  0  0
  -21.6718   18.0174  -23.7270 C   0  0  0  0  0  0  0  0  0  0  0  0
  -19.8964   11.1719  -16.2231 C   0  0  0  0  0  0  0  0  0  0  0  0
  -19.4359   11.8355  -15.0855 C   0  0  0  0  0  0  0  0  0  0  0  0
  -19.6403   11.2660  -13.8542 C   0  0  0  0  0  0  0  0  0  0  0  0
  -20.2836   10.0583  -13.6740 C   0  0  0  0  0  0  0  0  0  0  0  0
  -20.7291    9.4245  -14.8292 C   0  0  0  0  0  0  0  0  0  0  0  0
  -20.5393    9.9694  -16.0760 C   0  0  0  0  0  0  0  0  0  0  0  0
  -20.4839    9.4924  -12.4157 O   0  0  0  0  0  0  0  0  0  0  0  0
  -19.4648    9.4249  -11.4702 C   0  0  0  0  0  0  0  0  0  0  0  0
  -19.2837   10.4190  -10.5363 C   0  0  0  0  0  0  0  0  0  0  0  0
  -18.2612   10.3306   -9.6033 C   0  0  0  0  0  0  0  0  0  0  0  0
  -17.3941    9.2693   -9.5632 C   0  0  0  0  0  0  0  0  0  0  0  0
  -17.5693    8.2675  -10.4972 C   0  0  0  0  0  0  0  0  0  0  0  0
  -18.5921    8.3522  -11.4330 C   0  0  0  0  0  0  0  0  0  0  0  0
 19 20  1  0  0  0
 20 21  1  0  0  0
 21 22  1  0  0  0
 22 23  1  0  0  0
 23 24  1  0  0  0
 24 25  1  0  0  0
 23 13  1  0  0  0
 13 14  1  0  0  0
 14 15  1  0  0  0
 15 16  1  0  0  0
 16 17  1  0  0  0
 17 18  1  0  0  0
 16  1  1  0  0  0
  1  2  1  0  0  0
  2  3  2  0  0  0
  3 26  1  0  0  0
 26 27  2  0  0  0
 27 28  1  0  0  0
 28 29  2  0  0  0
 29 32  1  0  0  0
 32 33  1  0  0  0
 33 34  2  0  0  0
 34 35  1  0  0  0
 35 36  2  0  0  0
 36 37  1  0  0  0
 37 38  2  0  0  0
 29 30  1  0  0  0
 30 31  2  0  0  0
  3  4  1  0  0  0
  4  5  2  0  0  0
  5  6  1  0  0  0
  5  7  1  0  0  0
  7  8  2  0  0  0
  8  9  1  0  0  0
  9 10  2  0  0  0
 25 20  1  0  0  0
 18 13  1  0  0  0
 10  1  1  0  0  0
 31 26  1  0  0  0
 10  4  1  0  0  0
 38 33  1  0  0  0
  6 11  1  0  0  0
  6 12  1  0  0  0
M  END
> <minimizedAffinity>
-8.69412

> <CNNscore>
0.5845271945

> <CNNaffinity>
7.0113868713

> <CNN_VS>
4.0983462334

> <CNNaffinity_variance>
0.0931907296

$$$$
[H]c1nc(N([H])[H])c2c(-c3c([H])c([H])c(Oc4c([H])c([H])c([H])c([H])c4[H])c([H])c3[H])c([H])n(C3([H])C([H])([H])C([H])([H])C([H])(N4C([H])([H])C([H])([H])N(C([H])([H])[H])C([H])([H])C4([H])[H])C([H])([H])C3([H])[H])c2n1


 38 43  0  0  0  0  0  0  0  0999 V2000
  -17.8306   12.2609  -19.6283 N   0  0  0  0  0  0  0  0  0  0  0  0
  -18.2241   13.4722  -20.0047 C   0  0  0  0  0  0  0  0  0  0  0  0
  -17.6083   13.8177  -21.2185 C   0  0  0  0  0  0  0  0  0  0  0  0
  -16.8242   12.7471  -21.5448 C   0  0  0  0  0  0  0  0  0  0  0  0
  -15.9736   12.5106  -22.6224 C   0  0  0  0  0  0  0  0  0  0  0  0
  -15.7869   13.4821  -23.6349 N   0  0  0  0  0  0  0  0  0  0  0  0
  -15.3174   11.3301  -22.6539 N   0  0  0  0  0  0  0  0  0  0  0  0
  -15.4862   10.4223  -21.6728 C   0  0  0  0  0  0  0  0  0  0  0  0
  -16.2954   10.6348  -20.6343 N   0  0  0  0  0  0  0  0  0  0  0  0
  -16.9808   11.8034  -20.5494 C   0  0  0  0  0  0  0  0  0  0  0  0
  -15.3182   14.4064  -23.4426 H   0  0  0  0  0  0  0  0  0  0  0  0
  -16.1451   13.2309  -24.6038 H   0  0  0  0  0  0  0  0  0  0  0  0
  -19.8465   10.0973  -16.5944 C   0  0  0  0  0  0  0  0  0  0  0  0
  -19.7863   11.5993  -16.5180 C   0  0  0  0  0  0  0  0  0  0  0  0
  -19.6277   12.0892  -17.9661 C   0  0  0  0  0  0  0  0  0  0  0  0
  -18.2737   11.5934  -18.4222 C   0  0  0  0  0  0  0  0  0  0  0  0
  -18.4100   10.0916  -18.6399 C   0  0  0  0  0  0  0  0  0  0  0  0
  -18.6226    9.5051  -17.2387 C   0  0  0  0  0  0  0  0  0  0  0  0
  -21.4648    6.5532  -13.0645 C   0  0  0  0  0  0  0  0  0  0  0  0
  -20.5405    6.8624  -14.1119 N   0  0  0  0  0  0  0  0  0  0  0  0
  -19.6292    7.9007  -13.6399 C   0  0  0  0  0  0  0  0  0  0  0  0
  -19.0624    8.6495  -14.8471 C   0  0  0  0  0  0  0  0  0  0  0  0
  -20.1577    9.4131  -15.4067 N   0  0  0  0  0  0  0  0  0  0  0  0
  -21.4032    8.7528  -15.2974 C   0  0  0  0  0  0  0  0  0  0  0  0
  -21.1728    7.2474  -15.3557 C   0  0  0  0  0  0  0  0  0  0  0  0
  -17.8326   15.0520  -21.9551 C   0  0  0  0  0  0  0  0  0  0  0  0
  -17.2236   16.1972  -21.4411 C   0  0  0  0  0  0  0  0  0  0  0  0
  -17.4309   17.3998  -22.0679 C   0  0  0  0  0  0  0  0  0  0  0  0
  -18.2178   17.5436  -23.1926 C   0  0  0  0  0  0  0  0  0  0  0  0
  -18.8094   16.3819  -23.6776 C   0  0  0  0  0  0  0  0  0  0  0  0
  -18.6209   15.1633  -23.0718 C   0  0  0  0  0  0  0  0  0  0  0  0
  -18.4188   18.7729  -23.8187 O   0  0  0  0  0  0  0  0  0  0  0  0
  -19.3990   19.6634  -23.3907 C   0  0  0  0  0  0  0  0  0  0  0  0
  -19.0970   20.7236  -22.5672 C   0  0  0  0  0  0  0  0  0  0  0  0
  -20.0904   21.5986  -22.1531 C   0  0  0  0  0  0  0  0  0  0  0  0
  -21.3996   21.4561  -22.5347 C   0  0  0  0  0  0  0  0  0  0  0  0
  -21.7106   20.3947  -23.3612 C   0  0  0  0  0  0  0  0  0  0  0  0
  -20.7188   19.5164  -23.7781 C   0  0  0  0  0  0  0  0  0  0  0  0
 19 20  1  0  0  0
 20 21  1  0  0  0
 21 22  1  0  0  0
 22 23  1  0  0  0
 23 24  1  0  0  0
 24 25  1  0  0  0
 23 13  1  0  0  0
 13 14  1  0  0  0
 14 15  1  0  0  0
 15 16  1  0  0  0
 16 17  1  0  0  0
 17 18  1  0  0  0
 16  1  1  0  0  0
  1  2  1  0  0  0
  2  3  2  0  0  0
  3 26  1  0  0  0
 26 27  2  0  0  0
 27 28  1  0  0  0
 28 29  2  0  0  0
 29 32  1  0  0  0
 32 33  1  0  0  0
 33 34  2  0  0  0
 34 35  1  0  0  0
 35 36  2  0  0  0
 36 37  1  0  0  0
 37 38  2  0  0  0
 29 30  1  0  0  0
 30 31  2  0  0  0
  3  4  1  0  0  0
  4  5  2  0  0  0
  5  6  1  0  0  0
  5  7  1  0  0  0
  7  8  2  0  0  0
  8  9  1  0  0  0
  9 10  2  0  0  0
 25 20  1  0  0  0
 18 13  1  0  0  0
 10  1  1  0  0  0
 31 26  1  0  0  0
 10  4  1  0  0  0
 38 33  1  0  0  0
  6 11  1  0  0  0
  6 12  1  0  0  0
M  END
> <minimizedAffinity>
-8.92904

> <CNNscore>
0.4470842779

> <CNNaffinity>
7.3343811035

> <CNN_VS>
3.2790865898

> <CNNaffinity_variance>
0.2469760478

$$$$
[H]c1nc(N([H])[H])c2c(-c3c([H])c([H])c(Oc4c([H])c([H])c([H])c([H])c4[H])c([H])c3[H])c([H])n(C3([H])C([H])([H])C([H])([H])C([H])(N4C([H])([H])C([H])([H])N(C([H])([H])[H])C([H])([H])C4([H])[H])C([H])([H])C3([H])[H])c2n1


 38 43  0  0  0  0  0  0  0  0999 V2000
  -18.9059   11.9877  -18.3145 N   0  0  0  0  0  0  0  0  0  0  0  0
  -19.6139   13.1112  -18.2936 C   0  0  0  0  0  0  0  0  0  0  0  0
  -19.3815   13.8431  -19.4693 C   0  0  0  0  0  0  0  0  0  0  0  0
  -18.4947   13.0957  -20.1922 C   0  0  0  0  0  0  0  0  0  0  0  0
  -17.8893   13.3085  -21.4287 C   0  0  0  0  0  0  0  0  0  0  0  0
  -18.1452   14.4825  -22.1770 N   0  0  0  0  0  0  0  0  0  0  0  0
  -17.0330   12.3643  -21.8765 N   0  0  0  0  0  0  0  0  0  0  0  0
  -16.7804   11.2615  -21.1450 C   0  0  0  0  0  0  0  0  0  0  0  0
  -17.3507   11.0446  -19.9592 N   0  0  0  0  0  0  0  0  0  0  0  0
  -18.2199   11.9591  -19.4584 C   0  0  0  0  0  0  0  0  0  0  0  0
  -17.8422   15.4351  -21.8428 H   0  0  0  0  0  0  0  0  0  0  0  0
  -18.6609   14.3540  -23.0977 H   0  0  0  0  0  0  0  0  0  0  0  0
  -19.6592    8.7902  -15.6391 C   0  0  0  0  0  0  0  0  0  0  0  0
  -19.9349   10.2035  -15.2010 C   0  0  0  0  0  0  0  0  0  0  0  0
  -20.2113   10.9976  -16.4876 C   0  0  0  0  0  0  0  0  0  0  0  0
  -18.9104   10.9966  -17.2590 C   0  0  0  0  0  0  0  0  0  0  0  0
  -18.7373    9.5907  -17.8202 C   0  0  0  0  0  0  0  0  0  0  0  0
  -18.4999    8.7004  -16.5940 C   0  0  0  0  0  0  0  0  0  0  0  0
  -20.1785    5.9926  -11.2184 C   0  0  0  0  0  0  0  0  0  0  0  0
  -20.8021    6.4610  -12.4178 N   0  0  0  0  0  0  0  0  0  0  0  0
  -20.1845    5.7909  -13.5583 C   0  0  0  0  0  0  0  0  0  0  0  0
  -20.3758    6.6560  -14.8051 C   0  0  0  0  0  0  0  0  0  0  0  0
  -19.5386    7.8235  -14.6260 N   0  0  0  0  0  0  0  0  0  0  0  0
  -19.4584    8.2435  -13.2782 C   0  0  0  0  0  0  0  0  0  0  0  0
  -20.7653    7.8995  -12.5735 C   0  0  0  0  0  0  0  0  0  0  0  0
  -20.0172   15.1051  -19.8150 C   0  0  0  0  0  0  0  0  0  0  0  0
  -21.3793   15.0495  -20.1116 C   0  0  0  0  0  0  0  0  0  0  0  0
  -22.0269   16.1999  -20.4848 C   0  0  0  0  0  0  0  0  0  0  0  0
  -21.3998   17.4253  -20.5851 C   0  0  0  0  0  0  0  0  0  0  0  0
  -20.0423   17.4440  -20.2824 C   0  0  0  0  0  0  0  0  0  0  0  0
  -19.3663   16.3088  -19.9060 C   0  0  0  0  0  0  0  0  0  0  0  0
  -22.0718   18.5860  -20.9656 O   0  0  0  0  0  0  0  0  0  0  0  0
  -22.3452   18.8723  -22.2998 C   0  0  0  0  0  0  0  0  0  0  0  0
  -23.5091   18.4519  -22.9014 C   0  0  0  0  0  0  0  0  0  0  0  0
  -23.7605   18.7488  -24.2327 C   0  0  0  0  0  0  0  0  0  0  0  0
  -22.8802   19.4627  -25.0043 C   0  0  0  0  0  0  0  0  0  0  0  0
  -21.7099   19.8882  -24.4078 C   0  0  0  0  0  0  0  0  0  0  0  0
  -21.4544   19.5930  -23.0750 C   0  0  0  0  0  0  0  0  0  0  0  0
 19 20  1  0  0  0
 20 21  1  0  0  0
 21 22  1  0  0  0
 22 23  1  0  0  0
 23 24  1  0  0  0
 24 25  1  0  0  0
 23 13  1  0  0  0
 13 14  1  0  0  0
 14 15  1  0  0  0
 15 16  1  0  0  0
 16 17  1  0  0  0
 17 18  1  0  0  0
 16  1  1  0  0  0
  1  2  1  0  0  0
  2  3  2  0  0  0
  3 26  1  0  0  0
 26 27  2  0  0  0
 27 28  1  0  0  0
 28 29  2  0  0  0
 29 32  1  0  0  0
 32 33  1  0  0  0
 33 34  2  0  0  0
 34 35  1  0  0  0
 35 36  2  0  0  0
 36 37  1  0  0  0
 37 38  2  0  0  0
 29 30  1  0  0  0
 30 31  2  0  0  0
  3  4  1  0  0  0
  4  5  2  0  0  0
  5  6  1  0  0  0
  5  7  1  0  0  0
  7  8  2  0  0  0
  8  9  1  0  0  0
  9 10  2  0  0  0
 25 20  1  0  0  0
 18 13  1  0  0  0
 10  1  1  0  0  0
 31 26  1  0  0  0
 10  4  1  0  0  0
 38 33  1  0  0  0
  6 11  1  0  0  0
  6 12  1  0  0  0
M  END
> <minimizedAffinity>
-8.52545

> <CNNscore>
0.4416160285

> <CNNaffinity>
7.0667891502

> <CNN_VS>
3.1208074093

> <CNNaffinity_variance>
0.2026727945

$$$$
[H]c1nc(N([H])[H])c2c(-c3c([H])c([H])c(Oc4c([H])c([H])c([H])c([H])c4[H])c([H])c3[H])c([H])n(C3([H])C([H])([H])C([H])([H])C([H])(N4C([H])([H])C([H])([H])N(C([H])([H])[H])C([H])([H])C4([H])[H])C([H])([H])C3([H])[H])c2n1


 38 43  0  0  0  0  0  0  0  0999 V2000
  -18.1626   12.1024  -20.0803 N   0  0  0  0  0  0  0  0  0  0  0  0
  -18.5516   13.3261  -20.4195 C   0  0  0  0  0  0  0  0  0  0  0  0
  -17.7802   13.7899  -21.4974 C   0  0  0  0  0  0  0  0  0  0  0  0
  -16.9083   12.7767  -21.7816 C   0  0  0  0  0  0  0  0  0  0  0  0
  -15.8984   12.6576  -22.7337 C   0  0  0  0  0  0  0  0  0  0  0  0
  -15.6094   13.7140  -23.6307 N   0  0  0  0  0  0  0  0  0  0  0  0
  -15.1912   11.5067  -22.7549 N   0  0  0  0  0  0  0  0  0  0  0  0
  -15.4609   10.5170  -21.8814 C   0  0  0  0  0  0  0  0  0  0  0  0
  -16.4231   10.6167  -20.9633 N   0  0  0  0  0  0  0  0  0  0  0  0
  -17.1664   11.7505  -20.8949 C   0  0  0  0  0  0  0  0  0  0  0  0
  -15.2170   14.6350  -23.3011 H   0  0  0  0  0  0  0  0  0  0  0  0
  -15.8090   13.5301  -24.6585 H   0  0  0  0  0  0  0  0  0  0  0  0
  -19.2221   10.1958  -16.4482 C   0  0  0  0  0  0  0  0  0  0  0  0
  -18.5532    9.3988  -17.5358 C   0  0  0  0  0  0  0  0  0  0  0  0
  -17.7355   10.4086  -18.3567 C   0  0  0  0  0  0  0  0  0  0  0  0
  -18.7474   11.3245  -19.0083 C   0  0  0  0  0  0  0  0  0  0  0  0
  -19.2939   12.2243  -17.9069 C   0  0  0  0  0  0  0  0  0  0  0  0
  -20.0982   11.2905  -16.9939 C   0  0  0  0  0  0  0  0  0  0  0  0
  -20.8109    8.1035  -11.8944 C   0  0  0  0  0  0  0  0  0  0  0  0
  -20.6578    9.2921  -12.6759 N   0  0  0  0  0  0  0  0  0  0  0  0
  -21.5967    9.2414  -13.7928 C   0  0  0  0  0  0  0  0  0  0  0  0
  -21.0736   10.1315  -14.9213 C   0  0  0  0  0  0  0  0  0  0  0  0
  -19.9022    9.4694  -15.4555 N   0  0  0  0  0  0  0  0  0  0  0  0
  -19.1559    8.7861  -14.4679 C   0  0  0  0  0  0  0  0  0  0  0  0
  -19.3053    9.5179  -13.1394 C   0  0  0  0  0  0  0  0  0  0  0  0
  -17.9499   15.0715  -22.1644 C   0  0  0  0  0  0  0  0  0  0  0  0
  -17.4809   16.1918  -21.4778 C   0  0  0  0  0  0  0  0  0  0  0  0
  -17.6489   17.4335  -22.0365 C   0  0  0  0  0  0  0  0  0  0  0  0
  -18.2634   17.6407  -23.2548 C   0  0  0  0  0  0  0  0  0  0  0  0
  -18.7188   16.5021  -23.9114 C   0  0  0  0  0  0  0  0  0  0  0  0
  -18.5654   15.2455  -23.3775 C   0  0  0  0  0  0  0  0  0  0  0  0
  -18.4265   18.9092  -23.8097 O   0  0  0  0  0  0  0  0  0  0  0  0
  -19.4252   19.7769  -23.3776 C   0  0  0  0  0  0  0  0  0  0  0  0
  -19.1440   20.8445  -22.5563 C   0  0  0  0  0  0  0  0  0  0  0  0
  -20.1554   21.6964  -22.1379 C   0  0  0  0  0  0  0  0  0  0  0  0
  -21.4628   21.5232  -22.5130 C   0  0  0  0  0  0  0  0  0  0  0  0
  -21.7531   20.4541  -23.3371 C   0  0  0  0  0  0  0  0  0  0  0  0
  -20.7431   19.5988  -23.7584 C   0  0  0  0  0  0  0  0  0  0  0  0
 19 20  1  0  0  0
 20 21  1  0  0  0
 21 22  1  0  0  0
 22 23  1  0  0  0
 23 24  1  0  0  0
 24 25  1  0  0  0
 23 13  1  0  0  0
 13 14  1  0  0  0
 14 15  1  0  0  0
 15 16  1  0  0  0
 16 17  1  0  0  0
 17 18  1  0  0  0
 16  1  1  0  0  0
  1  2  1  0  0  0
  2  3  2  0  0  0
  3 26  1  0  0  0
 26 27  2  0  0  0
 27 28  1  0  0  0
 28 29  2  0  0  0
 29 32  1  0  0  0
 32 33  1  0  0  0
 33 34  2  0  0  0
 34 35  1  0  0  0
 35 36  2  0  0  0
 36 37  1  0  0  0
 37 38  2  0  0  0
 29 30  1  0  0  0
 30 31  2  0  0  0
  3  4  1  0  0  0
  4  5  2  0  0  0
  5  6  1  0  0  0
  5  7  1  0  0  0
  7  8  2  0  0  0
  8  9  1  0  0  0
  9 10  2  0  0  0
 25 20  1  0  0  0
 18 13  1  0  0  0
 10  1  1  0  0  0
 31 26  1  0  0  0
 10  4  1  0  0  0
 38 33  1  0  0  0
  6 11  1  0  0  0
  6 12  1  0  0  0
M  END
> <minimizedAffinity>
-9.13638

> <CNNscore>
0.4220042825

> <CNNaffinity>
7.3329977989

> <CNN_VS>
3.0945565701

> <CNNaffinity_variance>
0.2071352899

$$$$
[H]c1nc(N([H])[H])c2c(-c3c([H])c([H])c(Oc4c([H])c([H])c([H])c([H])c4[H])c([H])c3[H])c([H])n(C3([H])C([H])([H])C([H])([H])C([H])(N4C([H])([H])C([H])([H])N(C([H])([H])[H])C([H])([H])C4([H])[H])C([H])([H])C3([H])[H])c2n1


 38 43  0  0  0  0  0  0  0  0999 V2000
  -19.5959   11.3165  -17.0923 N   0  0  0  0  0  0  0  0  0  0  0  0
  -20.2024   12.4819  -17.2869 C   0  0  0  0  0  0  0  0  0  0  0  0
  -19.6741   13.1099  -18.4263 C   0  0  0  0  0  0  0  0  0  0  0  0
  -18.7177   12.2563  -18.9000 C   0  0  0  0  0  0  0  0  0  0  0  0
  -17.8538   12.3392  -19.9897 C   0  0  0  0  0  0  0  0  0  0  0  0
  -17.8556   13.4699  -20.8415 N   0  0  0  0  0  0  0  0  0  0  0  0
  -16.9997   11.3117  -20.1903 N   0  0  0  0  0  0  0  0  0  0  0  0
  -16.9920   10.2509  -19.3597 C   0  0  0  0  0  0  0  0  0  0  0  0
  -17.8116   10.1580  -18.3118 N   0  0  0  0  0  0  0  0  0  0  0  0
  -18.6914   11.1607  -18.0606 C   0  0  0  0  0  0  0  0  0  0  0  0
  -17.5550   14.4226  -20.5057 H   0  0  0  0  0  0  0  0  0  0  0  0
  -18.1771   13.3083  -21.8418 H   0  0  0  0  0  0  0  0  0  0  0  0
  -21.0179    9.3174  -13.6381 C   0  0  0  0  0  0  0  0  0  0  0  0
  -19.6163    9.8659  -13.6526 C   0  0  0  0  0  0  0  0  0  0  0  0
  -19.6294   11.0306  -14.6553 C   0  0  0  0  0  0  0  0  0  0  0  0
  -19.8974   10.4070  -16.0068 C   0  0  0  0  0  0  0  0  0  0  0  0
  -21.3663   10.0023  -16.0167 C   0  0  0  0  0  0  0  0  0  0  0  0
  -21.4700    8.8601  -14.9983 C   0  0  0  0  0  0  0  0  0  0  0  0
  -21.0544    4.9778  -10.6708 C   0  0  0  0  0  0  0  0  0  0  0  0
  -20.3275    6.1392  -11.0826 N   0  0  0  0  0  0  0  0  0  0  0  0
  -20.9875    7.3217  -10.5370 C   0  0  0  0  0  0  0  0  0  0  0  0
  -20.6324    8.5317  -11.4025 C   0  0  0  0  0  0  0  0  0  0  0  0
  -21.3080    8.3418  -12.6689 N   0  0  0  0  0  0  0  0  0  0  0  0
  -21.3809    6.9842  -13.0573 C   0  0  0  0  0  0  0  0  0  0  0  0
  -20.1611    6.2479  -12.5163 C   0  0  0  0  0  0  0  0  0  0  0  0
  -20.1231   14.3818  -18.9712 C   0  0  0  0  0  0  0  0  0  0  0  0
  -19.4484   15.5180  -18.5234 C   0  0  0  0  0  0  0  0  0  0  0  0
  -19.8522   16.7509  -18.9694 C   0  0  0  0  0  0  0  0  0  0  0  0
  -20.9015   16.9343  -19.8470 C   0  0  0  0  0  0  0  0  0  0  0  0
  -21.5514   15.7805  -20.2726 C   0  0  0  0  0  0  0  0  0  0  0  0
  -21.1705   14.5321  -19.8437 C   0  0  0  0  0  0  0  0  0  0  0  0
  -21.2999   18.1942  -20.2914 O   0  0  0  0  0  0  0  0  0  0  0  0
  -21.7985   18.3964  -21.5749 C   0  0  0  0  0  0  0  0  0  0  0  0
  -23.1510   18.4645  -21.8183 C   0  0  0  0  0  0  0  0  0  0  0  0
  -23.6254   18.6666  -23.1059 C   0  0  0  0  0  0  0  0  0  0  0  0
  -22.7883   18.8065  -24.1828 C   0  0  0  0  0  0  0  0  0  0  0  0
  -21.4295   18.7395  -23.9467 C   0  0  0  0  0  0  0  0  0  0  0  0
  -20.9505   18.5372  -22.6588 C   0  0  0  0  0  0  0  0  0  0  0  0
 19 20  1  0  0  0
 20 21  1  0  0  0
 21 22  1  0  0  0
 22 23  1  0  0  0
 23 24  1  0  0  0
 24 25  1  0  0  0
 23 13  1  0  0  0
 13 14  1  0  0  0
 14 15  1  0  0  0
 15 16  1  0  0  0
 16 17  1  0  0  0
 17 18  1  0  0  0
 16  1  1  0  0  0
  1  2  1  0  0  0
  2  3  2  0  0  0
  3 26  1  0  0  0
 26 27  2  0  0  0
 27 28  1  0  0  0
 28 29  2  0  0  0
 29 32  1  0  0  0
 32 33  1  0  0  0
 33 34  2  0  0  0
 34 35  1  0  0  0
 35 36  2  0  0  0
 36 37  1  0  0  0
 37 38  2  0  0  0
 29 30  1  0  0  0
 30 31  2  0  0  0
  3  4  1  0  0  0
  4  5  2  0  0  0
  5  6  1  0  0  0
  5  7  1  0  0  0
  7  8  2  0  0  0
  8  9  1  0  0  0
  9 10  2  0  0  0
 25 20  1  0  0  0
 18 13  1  0  0  0
 10  1  1  0  0  0
 31 26  1  0  0  0
 10  4  1  0  0  0
 38 33  1  0  0  0
  6 11  1  0  0  0
  6 12  1  0  0  0
M  END
> <minimizedAffinity>
-7.56521

> <CNNscore>
0.4104136825

> <CNNaffinity>
6.8028154373

> <CNN_VS>
2.7919685841

> <CNNaffinity_variance>
0.1055264324

$$$$
[H]c1nc(N([H])[H])c2c(-c3c([H])c([H])c(Oc4c([H])c([H])c([H])c([H])c4[H])c([H])c3[H])c([H])n(C3([H])C([H])([H])C([H])([H])C([H])(N4C([H])([H])C([H])([H])N(C([H])([H])[H])C([H])([H])C4([H])[H])C([H])([H])C3([H])[H])c2n1


 38 43  0  0  0  0  0  0  0  0999 V2000
  -18.9557   13.7939  -18.8245 N   0  0  0  0  0  0  0  0  0  0  0  0
  -19.6740   13.5339  -17.7381 C   0  0  0  0  0  0  0  0  0  0  0  0
  -19.4678   12.2040  -17.3373 C   0  0  0  0  0  0  0  0  0  0  0  0
  -18.5886   11.6840  -18.2452 C   0  0  0  0  0  0  0  0  0  0  0  0
  -18.0242   10.4168  -18.3736 C   0  0  0  0  0  0  0  0  0  0  0  0
  -18.3440    9.3774  -17.4674 N   0  0  0  0  0  0  0  0  0  0  0  0
  -17.1785   10.2106  -19.4069 N   0  0  0  0  0  0  0  0  0  0  0  0
  -16.8991   11.2015  -20.2759 C   0  0  0  0  0  0  0  0  0  0  0  0
  -17.4326   12.4189  -20.1671 N   0  0  0  0  0  0  0  0  0  0  0  0
  -18.2897   12.6843  -19.1484 C   0  0  0  0  0  0  0  0  0  0  0  0
  -19.3113    8.9624  -17.4122 H   0  0  0  0  0  0  0  0  0  0  0  0
  -17.5551    9.0349  -16.8425 H   0  0  0  0  0  0  0  0  0  0  0  0
  -18.1588   17.1952  -21.2216 C   0  0  0  0  0  0  0  0  0  0  0  0
  -17.8512   17.2380  -19.7488 C   0  0  0  0  0  0  0  0  0  0  0  0
  -17.6057   15.7807  -19.3266 C   0  0  0  0  0  0  0  0  0  0  0  0
  -18.9303   15.0726  -19.5033 C   0  0  0  0  0  0  0  0  0  0  0  0
  -19.1391   14.9063  -21.0034 C   0  0  0  0  0  0  0  0  0  0  0  0
  -19.3488   16.3296  -21.5351 C   0  0  0  0  0  0  0  0  0  0  0  0
  -19.7470   21.2463  -24.1721 C   0  0  0  0  0  0  0  0  0  0  0  0
  -19.9995   20.4315  -23.0235 N   0  0  0  0  0  0  0  0  0  0  0  0
  -18.9712   20.7021  -22.0230 C   0  0  0  0  0  0  0  0  0  0  0  0
  -18.8494   19.4911  -21.0967 C   0  0  0  0  0  0  0  0  0  0  0  0
  -18.2594   18.4300  -21.8854 N   0  0  0  0  0  0  0  0  0  0  0  0
  -18.6701   18.4542  -23.2382 C   0  0  0  0  0  0  0  0  0  0  0  0
  -20.0844   19.0166  -23.3167 C   0  0  0  0  0  0  0  0  0  0  0  0
  -20.0561   11.5774  -16.1636 C   0  0  0  0  0  0  0  0  0  0  0  0
  -21.3023   10.9765  -16.3438 C   0  0  0  0  0  0  0  0  0  0  0  0
  -21.9277   10.4043  -15.2650 C   0  0  0  0  0  0  0  0  0  0  0  0
  -21.3876   10.3889  -13.9950 C   0  0  0  0  0  0  0  0  0  0  0  0
  -20.1447   10.9969  -13.8517 C   0  0  0  0  0  0  0  0  0  0  0  0
  -19.4939   11.5783  -14.9128 C   0  0  0  0  0  0  0  0  0  0  0  0
  -22.0355    9.8031  -12.9085 O   0  0  0  0  0  0  0  0  0  0  0  0
  -21.7415   10.1633  -11.5967 C   0  0  0  0  0  0  0  0  0  0  0  0
  -21.0151    9.3374  -10.7700 C   0  0  0  0  0  0  0  0  0  0  0  0
  -20.7340    9.7171   -9.4659 C   0  0  0  0  0  0  0  0  0  0  0  0
  -21.1567   10.9116   -8.9421 C   0  0  0  0  0  0  0  0  0  0  0  0
  -21.8861   11.7461   -9.7656 C   0  0  0  0  0  0  0  0  0  0  0  0
  -22.1697   11.3696  -11.0720 C   0  0  0  0  0  0  0  0  0  0  0  0
 19 20  1  0  0  0
 20 21  1  0  0  0
 21 22  1  0  0  0
 22 23  1  0  0  0
 23 24  1  0  0  0
 24 25  1  0  0  0
 23 13  1  0  0  0
 13 14  1  0  0  0
 14 15  1  0  0  0
 15 16  1  0  0  0
 16 17  1  0  0  0
 17 18  1  0  0  0
 16  1  1  0  0  0
  1  2  1  0  0  0
  2  3  2  0  0  0
  3 26  1  0  0  0
 26 27  2  0  0  0
 27 28  1  0  0  0
 28 29  2  0  0  0
 29 32  1  0  0  0
 32 33  1  0  0  0
 33 34  2  0  0  0
 34 35  1  0  0  0
 35 36  2  0  0  0
 36 37  1  0  0  0
 37 38  2  0  0  0
 29 30  1  0  0  0
 30 31  2  0  0  0
  3  4  1  0  0  0
  4  5  2  0  0  0
  5  6  1  0  0  0
  5  7  1  0  0  0
  7  8  2  0  0  0
  8  9  1  0  0  0
  9 10  2  0  0  0
 25 20  1  0  0  0
 18 13  1  0  0  0
 10  1  1  0  0  0
 31 26  1  0  0  0
 10  4  1  0  0  0
 38 33  1  0  0  0
  6 11  1  0  0  0
  6 12  1  0  0  0
M  END
> <minimizedAffinity>
-7.66455

> <CNNscore>
0.4075949192

> <CNNaffinity>
6.8833475113

> <CNN_VS>
2.8056175709

> <CNNaffinity_variance>
0.1158607006

$$$$
[H]c1nc(N([H])[H])c2c(-c3c([H])c([H])c(Oc4c([H])c([H])c([H])c([H])c4[H])c([H])c3[H])c([H])n(C3([H])C([H])([H])C([H])([H])C([H])(N4C([H])([H])C([H])([H])N(C([H])([H])[H])C([H])([H])C4([H])[H])C([H])([H])C3([H])[H])c2n1


 38 43  0  0  0  0  0  0  0  0999 V2000
  -18.6570   11.5170  -18.0791 N   0  0  0  0  0  0  0  0  0  0  0  0
  -19.1011   12.7655  -18.1680 C   0  0  0  0  0  0  0  0  0  0  0  0
  -18.6114   13.3633  -19.3404 C   0  0  0  0  0  0  0  0  0  0  0  0
  -17.8491   12.4038  -19.9454 C   0  0  0  0  0  0  0  0  0  0  0  0
  -17.1051   12.4121  -21.1231 C   0  0  0  0  0  0  0  0  0  0  0  0
  -17.0308   13.5697  -21.9343 N   0  0  0  0  0  0  0  0  0  0  0  0
  -16.4397   11.2827  -21.4505 N   0  0  0  0  0  0  0  0  0  0  0  0
  -16.5001   10.1942  -20.6588 C   0  0  0  0  0  0  0  0  0  0  0  0
  -17.2066   10.1715  -19.5279 N   0  0  0  0  0  0  0  0  0  0  0  0
  -17.8955   11.2778  -19.1480 C   0  0  0  0  0  0  0  0  0  0  0  0
  -16.5576   14.4525  -21.6061 H   0  0  0  0  0  0  0  0  0  0  0  0
  -17.4787   13.5032  -22.8962 H   0  0  0  0  0  0  0  0  0  0  0  0
  -20.2133    8.5680  -15.4654 C   0  0  0  0  0  0  0  0  0  0  0  0
  -20.5021   10.0210  -15.1992 C   0  0  0  0  0  0  0  0  0  0  0  0
  -20.4164   10.7248  -16.5628 C   0  0  0  0  0  0  0  0  0  0  0  0
  -18.9714   10.6108  -16.9945 C   0  0  0  0  0  0  0  0  0  0  0  0
  -18.7522    9.1600  -17.4052 C   0  0  0  0  0  0  0  0  0  0  0  0
  -18.8670    8.3573  -16.1033 C   0  0  0  0  0  0  0  0  0  0  0  0
  -22.2250    5.7151  -11.5343 C   0  0  0  0  0  0  0  0  0  0  0  0
  -22.2201    5.9782  -12.9406 N   0  0  0  0  0  0  0  0  0  0  0  0
  -20.9431    5.5376  -13.4943 C   0  0  0  0  0  0  0  0  0  0  0  0
  -20.6686    6.3111  -14.7849 C   0  0  0  0  0  0  0  0  0  0  0  0
  -20.3949    7.6777  -14.3931 N   0  0  0  0  0  0  0  0  0  0  0  0
  -21.1515    8.0926  -13.2729 C   0  0  0  0  0  0  0  0  0  0  0  0
  -22.4878    7.3599  -13.2786 C   0  0  0  0  0  0  0  0  0  0  0  0
  -18.9226   14.7108  -19.7918 C   0  0  0  0  0  0  0  0  0  0  0  0
  -18.0195   15.7089  -19.4249 C   0  0  0  0  0  0  0  0  0  0  0  0
  -18.2790   17.0068  -19.7857 C   0  0  0  0  0  0  0  0  0  0  0  0
  -19.3970   17.3868  -20.5002 C   0  0  0  0  0  0  0  0  0  0  0  0
  -20.2757   16.3665  -20.8490 C   0  0  0  0  0  0  0  0  0  0  0  0
  -20.0434   15.0576  -20.5021 C   0  0  0  0  0  0  0  0  0  0  0  0
  -19.6468   18.7104  -20.8596 O   0  0  0  0  0  0  0  0  0  0  0  0
  -20.1172   19.6445  -19.9414 C   0  0  0  0  0  0  0  0  0  0  0  0
  -21.4626   19.7977  -19.6968 C   0  0  0  0  0  0  0  0  0  0  0  0
  -21.9086   20.7353  -18.7771 C   0  0  0  0  0  0  0  0  0  0  0  0
  -21.0497   21.5430  -18.0772 C   0  0  0  0  0  0  0  0  0  0  0  0
  -19.6980   21.3952  -18.3170 C   0  0  0  0  0  0  0  0  0  0  0  0
  -19.2473   20.4575  -19.2371 C   0  0  0  0  0  0  0  0  0  0  0  0
 19 20  1  0  0  0
 20 21  1  0  0  0
 21 22  1  0  0  0
 22 23  1  0  0  0
 23 24  1  0  0  0
 24 25  1  0  0  0
 23 13  1  0  0  0
 13 14  1  0  0  0
 14 15  1  0  0  0
 15 16  1  0  0  0
 16 17  1  0  0  0
 17 18  1  0  0  0
 16  1  1  0  0  0
  1  2  1  0  0  0
  2  3  2  0  0  0
  3 26  1  0  0  0
 26 27  2  0  0  0
 27 28  1  0  0  0
 28 29  2  0  0  0
 29 32  1  0  0  0
 32 33  1  0  0  0
 33 34  2  0  0  0
 34 35  1  0  0  0
 35 36  2  0  0  0
 36 37  1  0  0  0
 37 38  2  0  0  0
 29 30  1  0  0  0
 30 31  2  0  0  0
  3  4  1  0  0  0
  4  5  2  0  0  0
  5  6  1  0  0  0
  5  7  1  0  0  0
  7  8  2  0  0  0
  8  9  1  0  0  0
  9 10  2  0  0  0
 25 20  1  0  0  0
 18 13  1  0  0  0
 10  1  1  0  0  0
 31 26  1  0  0  0
 10  4  1  0  0  0
 38 33  1  0  0  0
  6 11  1  0  0  0
  6 12  1  0  0  0
M  END
> <minimizedAffinity>
-7.93052

> <CNNscore>
0.3895332217

> <CNNaffinity>
7.0107660294

> <CNN_VS>
2.7309262753

> <CNNaffinity_variance>
0.1398616582

$$$$
[H]c1nc(N([H])[H])c2c(-c3c([H])c([H])c(Oc4c([H])c([H])c([H])c([H])c4[H])c([H])c3[H])c([H])n(C3([H])C([H])([H])C([H])([H])C([H])(N4C([H])([H])C([H])([H])N(C([H])([H])[H])C([H])([H])C4([H])[H])C([H])([H])C3([H])[H])c2n1


 38 43  0  0  0  0  0  0  0  0999 V2000
  -19.4345   13.3553  -18.8879 N   0  0  0  0  0  0  0  0  0  0  0  0
  -20.1137   13.0426  -17.7902 C   0  0  0  0  0  0  0  0  0  0  0  0
  -19.6944   11.7912  -17.3106 C   0  0  0  0  0  0  0  0  0  0  0  0
  -18.7292   11.3733  -18.1832 C   0  0  0  0  0  0  0  0  0  0  0  0
  -17.9604   10.2128  -18.2344 C   0  0  0  0  0  0  0  0  0  0  0  0
  -18.1147    9.1889  -17.2691 N   0  0  0  0  0  0  0  0  0  0  0  0
  -17.0787   10.0910  -19.2509 N   0  0  0  0  0  0  0  0  0  0  0  0
  -16.9566   11.0625  -20.1763 C   0  0  0  0  0  0  0  0  0  0  0  0
  -17.6866   12.1781  -20.1416 N   0  0  0  0  0  0  0  0  0  0  0  0
  -18.5891   12.3554  -19.1432 C   0  0  0  0  0  0  0  0  0  0  0  0
  -19.0001    8.6224  -17.1925 H   0  0  0  0  0  0  0  0  0  0  0  0
  -17.2881    9.0196  -16.6225 H   0  0  0  0  0  0  0  0  0  0  0  0
  -20.1344   17.2925  -20.2874 C   0  0  0  0  0  0  0  0  0  0  0  0
  -21.1657   16.2243  -20.5337 C   0  0  0  0  0  0  0  0  0  0  0  0
  -20.9776   15.1899  -19.4125 C   0  0  0  0  0  0  0  0  0  0  0  0
  -19.6132   14.5788  -19.6413 C   0  0  0  0  0  0  0  0  0  0  0  0
  -18.5901   15.6323  -19.2354 C   0  0  0  0  0  0  0  0  0  0  0  0
  -18.7323   16.7467  -20.2796 C   0  0  0  0  0  0  0  0  0  0  0  0
  -19.4244   20.9168  -24.0290 C   0  0  0  0  0  0  0  0  0  0  0  0
  -19.8690   19.5939  -23.7140 N   0  0  0  0  0  0  0  0  0  0  0  0
  -21.0924   19.6877  -22.9230 C   0  0  0  0  0  0  0  0  0  0  0  0
  -21.2483   18.4099  -22.0970 C   0  0  0  0  0  0  0  0  0  0  0  0
  -20.2099   18.4448  -21.0887 N   0  0  0  0  0  0  0  0  0  0  0  0
  -19.0148   19.0449  -21.5479 C   0  0  0  0  0  0  0  0  0  0  0  0
  -18.8730   18.7858  -23.0430 C   0  0  0  0  0  0  0  0  0  0  0  0
  -20.1857   11.1444  -16.1037 C   0  0  0  0  0  0  0  0  0  0  0  0
  -21.2513   10.2589  -16.2677 C   0  0  0  0  0  0  0  0  0  0  0  0
  -21.7859    9.6485  -15.1615 C   0  0  0  0  0  0  0  0  0  0  0  0
  -21.3240    9.8629  -13.8788 C   0  0  0  0  0  0  0  0  0  0  0  0
  -20.2612   10.7514  -13.7522 C   0  0  0  0  0  0  0  0  0  0  0  0
  -19.7048   11.3782  -14.8408 C   0  0  0  0  0  0  0  0  0  0  0  0
  -21.8778    9.2347  -12.7643 O   0  0  0  0  0  0  0  0  0  0  0  0
  -23.2312    9.3417  -12.4578 C   0  0  0  0  0  0  0  0  0  0  0  0
  -24.0516    8.2374  -12.4304 C   0  0  0  0  0  0  0  0  0  0  0  0
  -25.3976    8.3679  -12.1224 C   0  0  0  0  0  0  0  0  0  0  0  0
  -25.9705    9.5799  -11.8348 C   0  0  0  0  0  0  0  0  0  0  0  0
  -25.1538   10.6929  -11.8602 C   0  0  0  0  0  0  0  0  0  0  0  0
  -23.8053   10.5665  -12.1681 C   0  0  0  0  0  0  0  0  0  0  0  0
 19 20  1  0  0  0
 20 21  1  0  0  0
 21 22  1  0  0  0
 22 23  1  0  0  0
 23 24  1  0  0  0
 24 25  1  0  0  0
 23 13  1  0  0  0
 13 14  1  0  0  0
 14 15  1  0  0  0
 15 16  1  0  0  0
 16 17  1  0  0  0
 17 18  1  0  0  0
 16  1  1  0  0  0
  1  2  1  0  0  0
  2  3  2  0  0  0
  3 26  1  0  0  0
 26 27  2  0  0  0
 27 28  1  0  0  0
 28 29  2  0  0  0
 29 32  1  0  0  0
 32 33  1  0  0  0
 33 34  2  0  0  0
 34 35  1  0  0  0
 35 36  2  0  0  0
 36 37  1  0  0  0
 37 38  2  0  0  0
 29 30  1  0  0  0
 30 31  2  0  0  0
  3  4  1  0  0  0
  4  5  2  0  0  0
  5  6  1  0  0  0
  5  7  1  0  0  0
  7  8  2  0  0  0
  8  9  1  0  0  0
  9 10  2  0  0  0
 25 20  1  0  0  0
 18 13  1  0  0  0
 10  1  1  0  0  0
 31 26  1  0  0  0
 10  4  1  0  0  0
 38 33  1  0  0  0
  6 11  1  0  0  0
  6 12  1  0  0  0
M  END
> <minimizedAffinity>
-7.40499

> <CNNscore>
0.3877813816

> <CNNaffinity>
6.7605910301

> <CNN_VS>
2.6216313839

> <CNNaffinity_variance>
0.0801664144

$$$$
[H]c1nc(N([H])[H])c2c(-c3c([H])c([H])c(Oc4c([H])c([H])c([H])c([H])c4[H])c([H])c3[H])c([H])n(C3([H])C([H])([H])C([H])([H])C([H])(N4C([H])([H])C([H])([H])N(C([H])([H])[H])C([H])([H])C4([H])[H])C([H])([H])C3([H])[H])c2n1


 38 43  0  0  0  0  0  0  0  0999 V2000
  -19.3521   13.4316  -18.3600 N   0  0  0  0  0  0  0  0  0  0  0  0
  -20.0563   13.0042  -17.3181 C   0  0  0  0  0  0  0  0  0  0  0  0
  -19.7154   11.6736  -17.0260 C   0  0  0  0  0  0  0  0  0  0  0  0
  -18.7707   11.3298  -17.9517 C   0  0  0  0  0  0  0  0  0  0  0  0
  -18.0717   10.1451  -18.1722 C   0  0  0  0  0  0  0  0  0  0  0  0
  -18.2932    9.0032  -17.3655 N   0  0  0  0  0  0  0  0  0  0  0  0
  -17.1919   10.1195  -19.1971 N   0  0  0  0  0  0  0  0  0  0  0  0
  -17.0059   11.2060  -19.9719 C   0  0  0  0  0  0  0  0  0  0  0  0
  -17.6685   12.3463  -19.7744 N   0  0  0  0  0  0  0  0  0  0  0  0
  -18.5658   12.4306  -18.7593 C   0  0  0  0  0  0  0  0  0  0  0  0
  -19.2113    8.4854  -17.3704 H   0  0  0  0  0  0  0  0  0  0  0  0
  -17.4826    8.6928  -16.7518 H   0  0  0  0  0  0  0  0  0  0  0  0
  -20.4640   17.3115  -19.6485 C   0  0  0  0  0  0  0  0  0  0  0  0
  -20.4217   16.1837  -20.6444 C   0  0  0  0  0  0  0  0  0  0  0  0
  -20.6543   14.8977  -19.8355 C   0  0  0  0  0  0  0  0  0  0  0  0
  -19.4527   14.7598  -18.9274 C   0  0  0  0  0  0  0  0  0  0  0  0
  -19.6050   15.8156  -17.8395 C   0  0  0  0  0  0  0  0  0  0  0  0
  -19.4344   17.1577  -18.5622 C   0  0  0  0  0  0  0  0  0  0  0  0
  -19.0607   21.8251  -21.9500 C   0  0  0  0  0  0  0  0  0  0  0  0
  -19.3247   20.4289  -22.1168 N   0  0  0  0  0  0  0  0  0  0  0  0
  -20.7536   20.1973  -21.9265 C   0  0  0  0  0  0  0  0  0  0  0  0
  -20.9689   18.7415  -21.5096 C   0  0  0  0  0  0  0  0  0  0  0  0
  -20.4415   18.6176  -20.1671 N   0  0  0  0  0  0  0  0  0  0  0  0
  -19.3051   19.4287  -19.9437 C   0  0  0  0  0  0  0  0  0  0  0  0
  -18.5370   19.5767  -21.2517 C   0  0  0  0  0  0  0  0  0  0  0  0
  -20.2525   10.8891  -15.9249 C   0  0  0  0  0  0  0  0  0  0  0  0
  -19.5989   11.0172  -14.6990 C   0  0  0  0  0  0  0  0  0  0  0  0
  -20.0329   10.2718  -13.6322 C   0  0  0  0  0  0  0  0  0  0  0  0
  -21.0929    9.3908  -13.7030 C   0  0  0  0  0  0  0  0  0  0  0  0
  -21.7210    9.2881  -14.9399 C   0  0  0  0  0  0  0  0  0  0  0  0
  -21.3094   10.0211  -16.0266 C   0  0  0  0  0  0  0  0  0  0  0  0
  -21.5224    8.6402  -12.6096 O   0  0  0  0  0  0  0  0  0  0  0  0
  -21.5527    7.2491  -12.6401 C   0  0  0  0  0  0  0  0  0  0  0  0
  -22.7280    6.5520  -12.4785 C   0  0  0  0  0  0  0  0  0  0  0  0
  -22.7344    5.1654  -12.5125 C   0  0  0  0  0  0  0  0  0  0  0  0
  -21.5928    4.4308  -12.7050 C   0  0  0  0  0  0  0  0  0  0  0  0
  -20.4093    5.1231  -12.8680 C   0  0  0  0  0  0  0  0  0  0  0  0
  -20.3987    6.5116  -12.8347 C   0  0  0  0  0  0  0  0  0  0  0  0
 19 20  1  0  0  0
 20 21  1  0  0  0
 21 22  1  0  0  0
 22 23  1  0  0  0
 23 24  1  0  0  0
 24 25  1  0  0  0
 23 13  1  0  0  0
 13 14  1  0  0  0
 14 15  1  0  0  0
 15 16  1  0  0  0
 16 17  1  0  0  0
 17 18  1  0  0  0
 16  1  1  0  0  0
  1  2  1  0  0  0
  2  3  2  0  0  0
  3 26  1  0  0  0
 26 27  2  0  0  0
 27 28  1  0  0  0
 28 29  2  0  0  0
 29 32  1  0  0  0
 32 33  1  0  0  0
 33 34  2  0  0  0
 34 35  1  0  0  0
 35 36  2  0  0  0
 36 37  1  0  0  0
 37 38  2  0  0  0
 29 30  1  0  0  0
 30 31  2  0  0  0
  3  4  1  0  0  0
  4  5  2  0  0  0
  5  6  1  0  0  0
  5  7  1  0  0  0
  7  8  2  0  0  0
  8  9  1  0  0  0
  9 10  2  0  0  0
 25 20  1  0  0  0
 18 13  1  0  0  0
 10  1  1  0  0  0
 31 26  1  0  0  0
 10  4  1  0  0  0
 38 33  1  0  0  0
  6 11  1  0  0  0
  6 12  1  0  0  0
M  END
> <minimizedAffinity>
-7.19843

> <CNNscore>
0.3786585331

> <CNNaffinity>
6.8385553360

> <CNN_VS>
2.5894773006

> <CNNaffinity_variance>
0.1277638674

$$$$
[H]c1c([H])c([H])c2c(c([H])c([H])n2[H])c1N([H])c1nc(N([H])[C@]2([H])C([H])([H])C([H])([H])C([H])([H])C([H])([H])[C@]2([H])N([H])[H])c([H])c2nc([H])n([H])c(=O)c12


 35 39  0  0  0  0  0  0  0  0999 V2000
  -18.9332   14.2027  -20.4266 C   0  0  0  0  0  0  0  0  0  0  0  0
  -19.0899   13.3020  -19.3960 C   0  0  0  0  0  0  0  0  0  0  0  0
  -18.3617   12.1205  -19.3667 C   0  0  0  0  0  0  0  0  0  0  0  0
  -18.5277   11.2633  -18.3365 N   0  0  0  0  0  0  0  0  0  0  0  0
  -17.8040   10.1387  -18.3239 C   0  0  0  0  0  0  0  0  0  0  0  0
  -16.9322    9.8305  -19.2772 N   0  0  0  0  0  0  0  0  0  0  0  0
  -16.7661   10.6898  -20.3099 C   0  0  0  0  0  0  0  0  0  0  0  0
  -15.9397   10.3635  -21.1747 O   0  0  0  0  0  0  0  0  0  0  0  0
  -17.4617   11.8646  -20.4125 C   0  0  0  0  0  0  0  0  0  0  0  0
  -17.3096   12.7818  -21.4548 C   0  0  0  0  0  0  0  0  0  0  0  0
  -18.0567   13.8799  -21.3801 N   0  0  0  0  0  0  0  0  0  0  0  0
  -16.3612    8.9348  -19.2581 H   0  0  0  0  0  0  0  0  0  0  0  0
  -19.6966   15.3920  -20.4058 N   0  0  0  0  0  0  0  0  0  0  0  0
  -20.1938   15.6961  -21.2789 H   0  0  0  0  0  0  0  0  0  0  0  0
  -17.7815   17.4633  -19.2972 N   0  0  0  0  0  0  0  0  0  0  0  0
  -18.5630   16.4979  -18.5119 C   0  0  0  0  0  0  0  0  0  0  0  0
  -18.9178   17.2184  -17.2187 C   0  0  0  0  0  0  0  0  0  0  0  0
  -19.7023   18.4699  -17.4492 C   0  0  0  0  0  0  0  0  0  0  0  0
  -20.8467   18.3035  -18.4045 C   0  0  0  0  0  0  0  0  0  0  0  0
  -20.4292   17.5648  -19.6416 C   0  0  0  0  0  0  0  0  0  0  0  0
  -19.8395   16.2317  -19.2393 C   0  0  0  0  0  0  0  0  0  0  0  0
  -17.5058   17.0387  -20.2211 H   0  0  0  0  0  0  0  0  0  0  0  0
  -16.9052   17.7322  -18.7616 H   0  0  0  0  0  0  0  0  0  0  0  0
  -16.4638   12.4771  -22.5345 N   0  0  0  0  0  0  0  0  0  0  0  0
  -15.6507   11.8346  -22.4394 H   0  0  0  0  0  0  0  0  0  0  0  0
  -16.6037   12.9658  -23.8830 C   0  0  0  0  0  0  0  0  0  0  0  0
  -17.6530   12.6668  -24.6891 C   0  0  0  0  0  0  0  0  0  0  0  0
  -17.7597   13.2002  -25.9867 C   0  0  0  0  0  0  0  0  0  0  0  0
  -16.7763   14.0413  -26.4390 C   0  0  0  0  0  0  0  0  0  0  0  0
  -15.7085   14.3520  -25.6304 C   0  0  0  0  0  0  0  0  0  0  0  0
  -14.6337   15.1542  -25.8735 N   0  0  0  0  0  0  0  0  0  0  0  0
  -13.8718   15.1323  -24.7732 C   0  0  0  0  0  0  0  0  0  0  0  0
  -14.4501   14.3252  -23.8334 C   0  0  0  0  0  0  0  0  0  0  0  0
  -15.6180   13.8269  -24.3740 C   0  0  0  0  0  0  0  0  0  0  0  0
  -14.4456   15.6851  -26.7572 H   0  0  0  0  0  0  0  0  0  0  0  0
 15 16  1  0  0  0
 16 17  1  0  0  0
 17 18  1  0  0  0
 18 19  1  0  0  0
 19 20  1  0  0  0
 20 21  1  0  0  0
 21 13  1  0  0  0
 13  1  1  0  0  0
  1  2  2  0  0  0
  2  3  1  0  0  0
  3  4  1  0  0  0
  4  5  2  0  0  0
  5  6  1  0  0  0
  6  7  1  0  0  0
  7  8  2  0  0  0
  7  9  1  0  0  0
  9 10  1  0  0  0
 10 24  1  0  0  0
 24 26  1  0  0  0
 26 27  2  0  0  0
 27 28  1  0  0  0
 28 29  2  0  0  0
 29 30  1  0  0  0
 30 31  1  0  0  0
 31 32  1  0  0  0
 32 33  2  0  0  0
 33 34  1  0  0  0
 10 11  2  0  0  0
 21 16  1  0  0  0
 11  1  1  0  0  0
  9  3  2  0  0  0
 34 26  1  0  0  0
 34 30  2  0  0  0
 15 22  1  0  0  0
 15 23  1  0  0  0
 13 14  1  0  0  0
  6 12  1  0  0  0
 24 25  1  0  0  0
 31 35  1  0  0  0
M  END
> <minimizedAffinity>
-9.56375

> <CNNscore>
0.8831303716

> <CNNaffinity>
7.8973793983

> <CNN_VS>
6.9744157791

> <CNNaffinity_variance>
0.4306232929

$$$$
[H]c1c([H])c([H])c2c(c([H])c([H])n2[H])c1N([H])c1nc(N([H])[C@]2([H])C([H])([H])C([H])([H])C([H])([H])C([H])([H])[C@]2([H])N([H])[H])c([H])c2nc([H])n([H])c(=O)c12


 35 39  0  0  0  0  0  0  0  0999 V2000
  -18.9462   14.2338  -20.6027 C   0  0  0  0  0  0  0  0  0  0  0  0
  -19.0833   13.3806  -19.5298 C   0  0  0  0  0  0  0  0  0  0  0  0
  -18.3547   12.2011  -19.4612 C   0  0  0  0  0  0  0  0  0  0  0  0
  -18.5011   11.3912  -18.3905 N   0  0  0  0  0  0  0  0  0  0  0  0
  -17.7773   10.2677  -18.3410 C   0  0  0  0  0  0  0  0  0  0  0  0
  -16.9238    9.9161  -19.2958 N   0  0  0  0  0  0  0  0  0  0  0  0
  -16.7773   10.7279  -20.3691 C   0  0  0  0  0  0  0  0  0  0  0  0
  -15.9675   10.3624  -21.2338 O   0  0  0  0  0  0  0  0  0  0  0  0
  -17.4748   11.8975  -20.5112 C   0  0  0  0  0  0  0  0  0  0  0  0
  -17.3424   12.7668  -21.5965 C   0  0  0  0  0  0  0  0  0  0  0  0
  -18.0880   13.8678  -21.5572 N   0  0  0  0  0  0  0  0  0  0  0  0
  -16.3525    9.0217  -19.2473 H   0  0  0  0  0  0  0  0  0  0  0  0
  -19.7091   15.4236  -20.6210 N   0  0  0  0  0  0  0  0  0  0  0  0
  -20.6936   15.4056  -20.2571 H   0  0  0  0  0  0  0  0  0  0  0  0
  -20.7856   18.2176  -20.1506 N   0  0  0  0  0  0  0  0  0  0  0  0
  -20.2758   17.6886  -21.4232 C   0  0  0  0  0  0  0  0  0  0  0  0
  -19.6043   18.8675  -22.1136 C   0  0  0  0  0  0  0  0  0  0  0  0
  -18.4944   19.4574  -21.3043 C   0  0  0  0  0  0  0  0  0  0  0  0
  -17.5453   18.4416  -20.7412 C   0  0  0  0  0  0  0  0  0  0  0  0
  -18.2768   17.2995  -20.1002 C   0  0  0  0  0  0  0  0  0  0  0  0
  -19.2126   16.6859  -21.1173 C   0  0  0  0  0  0  0  0  0  0  0  0
  -21.2584   17.4510  -19.6040 H   0  0  0  0  0  0  0  0  0  0  0  0
  -21.4857   18.9926  -20.3416 H   0  0  0  0  0  0  0  0  0  0  0  0
  -16.5173   12.4131  -22.6772 N   0  0  0  0  0  0  0  0  0  0  0  0
  -15.7609   11.7037  -22.5900 H   0  0  0  0  0  0  0  0  0  0  0  0
  -16.6068   12.9366  -24.0169 C   0  0  0  0  0  0  0  0  0  0  0  0
  -17.6185   12.6486  -24.8737 C   0  0  0  0  0  0  0  0  0  0  0  0
  -17.6775   13.2158  -26.1600 C   0  0  0  0  0  0  0  0  0  0  0  0
  -16.6859   14.0790  -26.5483 C   0  0  0  0  0  0  0  0  0  0  0  0
  -15.6561   14.3787  -25.6880 C   0  0  0  0  0  0  0  0  0  0  0  0
  -14.5814   15.1983  -25.8647 N   0  0  0  0  0  0  0  0  0  0  0  0
  -13.8655   15.1544  -24.7346 C   0  0  0  0  0  0  0  0  0  0  0  0
  -14.4729   14.3163  -23.8416 C   0  0  0  0  0  0  0  0  0  0  0  0
  -15.6116   13.8207  -24.4433 C   0  0  0  0  0  0  0  0  0  0  0  0
  -14.3630   15.7547  -26.7254 H   0  0  0  0  0  0  0  0  0  0  0  0
 15 16  1  0  0  0
 16 17  1  0  0  0
 17 18  1  0  0  0
 18 19  1  0  0  0
 19 20  1  0  0  0
 20 21  1  0  0  0
 21 13  1  0  0  0
 13  1  1  0  0  0
  1  2  2  0  0  0
  2  3  1  0  0  0
  3  4  1  0  0  0
  4  5  2  0  0  0
  5  6  1  0  0  0
  6  7  1  0  0  0
  7  8  2  0  0  0
  7  9  1  0  0  0
  9 10  1  0  0  0
 10 24  1  0  0  0
 24 26  1  0  0  0
 26 27  2  0  0  0
 27 28  1  0  0  0
 28 29  2  0  0  0
 29 30  1  0  0  0
 30 31  1  0  0  0
 31 32  1  0  0  0
 32 33  2  0  0  0
 33 34  1  0  0  0
 10 11  2  0  0  0
 21 16  1  0  0  0
 11  1  1  0  0  0
  9  3  2  0  0  0
 34 26  1  0  0  0
 34 30  2  0  0  0
 15 22  1  0  0  0
 15 23  1  0  0  0
 13 14  1  0  0  0
  6 12  1  0  0  0
 24 25  1  0  0  0
 31 35  1  0  0  0
M  END
> <minimizedAffinity>
-9.56769

> <CNNscore>
0.8283504248

> <CNNaffinity>
7.8063936234

> <CNN_VS>
6.4664297104

> <CNNaffinity_variance>
0.2992148995

$$$$
[H]c1c([H])c([H])c2c(c([H])c([H])n2[H])c1N([H])c1nc(N([H])[C@]2([H])C([H])([H])C([H])([H])C([H])([H])C([H])([H])[C@]2([H])N([H])[H])c([H])c2nc([H])n([H])c(=O)c12


 35 39  0  0  0  0  0  0  0  0999 V2000
  -18.7799   14.2105  -20.6733 C   0  0  0  0  0  0  0  0  0  0  0  0
  -18.9477   13.3347  -19.6232 C   0  0  0  0  0  0  0  0  0  0  0  0
  -18.2164   12.1568  -19.5554 C   0  0  0  0  0  0  0  0  0  0  0  0
  -18.3935   11.3244  -18.5069 N   0  0  0  0  0  0  0  0  0  0  0  0
  -17.6667   10.2028  -18.4572 C   0  0  0  0  0  0  0  0  0  0  0  0
  -16.7813    9.8744  -19.3910 N   0  0  0  0  0  0  0  0  0  0  0  0
  -16.6040   10.7087  -20.4421 C   0  0  0  0  0  0  0  0  0  0  0  0
  -15.7652   10.3642  -21.2876 O   0  0  0  0  0  0  0  0  0  0  0  0
  -17.3017   11.8783  -20.5825 C   0  0  0  0  0  0  0  0  0  0  0  0
  -17.1384   12.7704  -21.6448 C   0  0  0  0  0  0  0  0  0  0  0  0
  -17.8898   13.8675  -21.6070 N   0  0  0  0  0  0  0  0  0  0  0  0
  -16.2079    8.9813  -19.3425 H   0  0  0  0  0  0  0  0  0  0  0  0
  -19.5471   15.3974  -20.6918 N   0  0  0  0  0  0  0  0  0  0  0  0
  -20.0122   15.6921  -21.5856 H   0  0  0  0  0  0  0  0  0  0  0  0
  -17.6300   17.3930  -19.4552 N   0  0  0  0  0  0  0  0  0  0  0  0
  -18.5031   16.4636  -18.7250 C   0  0  0  0  0  0  0  0  0  0  0  0
  -18.9170   17.2032  -17.4604 C   0  0  0  0  0  0  0  0  0  0  0  0
  -19.6315   18.4849  -17.7464 C   0  0  0  0  0  0  0  0  0  0  0  0
  -20.7127   18.3617  -18.7787 C   0  0  0  0  0  0  0  0  0  0  0  0
  -20.2410   17.6015  -19.9830 C   0  0  0  0  0  0  0  0  0  0  0  0
  -19.7360   16.2470  -19.5390 C   0  0  0  0  0  0  0  0  0  0  0  0
  -17.3085   16.9538  -20.3572 H   0  0  0  0  0  0  0  0  0  0  0  0
  -16.7827   17.6280  -18.8603 H   0  0  0  0  0  0  0  0  0  0  0  0
  -16.2773   12.4423  -22.7055 N   0  0  0  0  0  0  0  0  0  0  0  0
  -15.9851   11.4629  -22.9014 H   0  0  0  0  0  0  0  0  0  0  0  0
  -15.7149   13.3680  -23.6560 C   0  0  0  0  0  0  0  0  0  0  0  0
  -14.5997   14.1045  -23.4232 C   0  0  0  0  0  0  0  0  0  0  0  0
  -14.0706   14.9678  -24.4002 C   0  0  0  0  0  0  0  0  0  0  0  0
  -14.7025   15.0605  -25.6131 C   0  0  0  0  0  0  0  0  0  0  0  0
  -15.8331   14.3182  -25.8604 C   0  0  0  0  0  0  0  0  0  0  0  0
  -16.6098   14.2568  -26.9789 N   0  0  0  0  0  0  0  0  0  0  0  0
  -17.5957   13.3881  -26.7238 C   0  0  0  0  0  0  0  0  0  0  0  0
  -17.4545   12.8966  -25.4560 C   0  0  0  0  0  0  0  0  0  0  0  0
  -16.3353   13.4850  -24.9032 C   0  0  0  0  0  0  0  0  0  0  0  0
  -16.4580   14.7916  -27.8672 H   0  0  0  0  0  0  0  0  0  0  0  0
 15 16  1  0  0  0
 16 17  1  0  0  0
 17 18  1  0  0  0
 18 19  1  0  0  0
 19 20  1  0  0  0
 20 21  1  0  0  0
 21 13  1  0  0  0
 13  1  1  0  0  0
  1  2  2  0  0  0
  2  3  1  0  0  0
  3  4  1  0  0  0
  4  5  2  0  0  0
  5  6  1  0  0  0
  6  7  1  0  0  0
  7  8  2  0  0  0
  7  9  1  0  0  0
  9 10  1  0  0  0
 10 24  1  0  0  0
 24 26  1  0  0  0
 26 27  2  0  0  0
 27 28  1  0  0  0
 28 29  2  0  0  0
 29 30  1  0  0  0
 30 31  1  0  0  0
 31 32  1  0  0  0
 32 33  2  0  0  0
 33 34  1  0  0  0
 10 11  2  0  0  0
 21 16  1  0  0  0
 11  1  1  0  0  0
  9  3  2  0  0  0
 34 26  1  0  0  0
 34 30  2  0  0  0
 15 22  1  0  0  0
 15 23  1  0  0  0
 13 14  1  0  0  0
  6 12  1  0  0  0
 24 25  1  0  0  0
 31 35  1  0  0  0
M  END
> <minimizedAffinity>
-9.37907

> <CNNscore>
0.8099899888

> <CNNaffinity>
7.7853035927

> <CNN_VS>
6.3060178757

> <CNNaffinity_variance>
0.3615199924

$$$$
[H]c1c([H])c([H])c2c(c([H])c([H])n2[H])c1N([H])c1nc(N([H])[C@]2([H])C([H])([H])C([H])([H])C([H])([H])C([H])([H])[C@]2([H])N([H])[H])c([H])c2nc([H])n([H])c(=O)c12


 35 39  0  0  0  0  0  0  0  0999 V2000
  -18.8896   14.1361  -20.7740 C   0  0  0  0  0  0  0  0  0  0  0  0
  -19.0473   13.2773  -19.7084 C   0  0  0  0  0  0  0  0  0  0  0  0
  -18.2732   12.1302  -19.5985 C   0  0  0  0  0  0  0  0  0  0  0  0
  -18.4419   11.3144  -18.5357 N   0  0  0  0  0  0  0  0  0  0  0  0
  -17.6741   10.2232  -18.4452 C   0  0  0  0  0  0  0  0  0  0  0  0
  -16.7560    9.9092  -19.3521 N   0  0  0  0  0  0  0  0  0  0  0  0
  -16.5871   10.7270  -20.4175 C   0  0  0  0  0  0  0  0  0  0  0  0
  -15.7169   10.3972  -21.2367 O   0  0  0  0  0  0  0  0  0  0  0  0
  -17.3257   11.8654  -20.5991 C   0  0  0  0  0  0  0  0  0  0  0  0
  -17.1728   12.7401  -21.6773 C   0  0  0  0  0  0  0  0  0  0  0  0
  -17.9663   13.8078  -21.6803 N   0  0  0  0  0  0  0  0  0  0  0  0
  -16.1500    9.0403  -19.2712 H   0  0  0  0  0  0  0  0  0  0  0  0
  -19.7010   15.2918  -20.8356 N   0  0  0  0  0  0  0  0  0  0  0  0
  -20.7142   15.2202  -20.5702 H   0  0  0  0  0  0  0  0  0  0  0  0
  -21.0872   17.9830  -20.6858 N   0  0  0  0  0  0  0  0  0  0  0  0
  -20.2700   17.4905  -21.8033 C   0  0  0  0  0  0  0  0  0  0  0  0
  -19.5671   18.7185  -22.3650 C   0  0  0  0  0  0  0  0  0  0  0  0
  -18.7137   19.4116  -21.3519 C   0  0  0  0  0  0  0  0  0  0  0  0
  -17.8269   18.4889  -20.5696 C   0  0  0  0  0  0  0  0  0  0  0  0
  -18.5806   17.2918  -20.0701 C   0  0  0  0  0  0  0  0  0  0  0  0
  -19.2175   16.5889  -21.2478 C   0  0  0  0  0  0  0  0  0  0  0  0
  -21.6006   17.1822  -20.2330 H   0  0  0  0  0  0  0  0  0  0  0  0
  -21.7922   18.6911  -21.0445 H   0  0  0  0  0  0  0  0  0  0  0  0
  -16.2762   12.4228  -22.7115 N   0  0  0  0  0  0  0  0  0  0  0  0
  -15.9457   11.4509  -22.8818 H   0  0  0  0  0  0  0  0  0  0  0  0
  -15.7238   13.3499  -23.6665 C   0  0  0  0  0  0  0  0  0  0  0  0
  -14.6244   14.1095  -23.4323 C   0  0  0  0  0  0  0  0  0  0  0  0
  -14.1041   14.9734  -24.4134 C   0  0  0  0  0  0  0  0  0  0  0  0
  -14.7282   15.0428  -25.6319 C   0  0  0  0  0  0  0  0  0  0  0  0
  -15.8427   14.2770  -25.8807 C   0  0  0  0  0  0  0  0  0  0  0  0
  -16.6094   14.1906  -27.0043 N   0  0  0  0  0  0  0  0  0  0  0  0
  -17.5808   13.3059  -26.7485 C   0  0  0  0  0  0  0  0  0  0  0  0
  -17.4403   12.8291  -25.4750 C   0  0  0  0  0  0  0  0  0  0  0  0
  -16.3366   13.4436  -24.9194 C   0  0  0  0  0  0  0  0  0  0  0  0
  -16.4608   14.7197  -27.8966 H   0  0  0  0  0  0  0  0  0  0  0  0
 15 16  1  0  0  0
 16 17  1  0  0  0
 17 18  1  0  0  0
 18 19  1  0  0  0
 19 20  1  0  0  0
 20 21  1  0  0  0
 21 13  1  0  0  0
 13  1  1  0  0  0
  1  2  2  0  0  0
  2  3  1  0  0  0
  3  4  1  0  0  0
  4  5  2  0  0  0
  5  6  1  0  0  0
  6  7  1  0  0  0
  7  8  2  0  0  0
  7  9  1  0  0  0
  9 10  1  0  0  0
 10 24  1  0  0  0
 24 26  1  0  0  0
 26 27  2  0  0  0
 27 28  1  0  0  0
 28 29  2  0  0  0
 29 30  1  0  0  0
 30 31  1  0  0  0
 31 32  1  0  0  0
 32 33  2  0  0  0
 33 34  1  0  0  0
 10 11  2  0  0  0
 21 16  1  0  0  0
 11  1  1  0  0  0
  9  3  2  0  0  0
 34 26  1  0  0  0
 34 30  2  0  0  0
 15 22  1  0  0  0
 15 23  1  0  0  0
 13 14  1  0  0  0
  6 12  1  0  0  0
 24 25  1  0  0  0
 31 35  1  0  0  0
M  END
> <minimizedAffinity>
-9.34198

> <CNNscore>
0.7317202091

> <CNNaffinity>
7.7190637589

> <CNN_VS>
5.6481947899

> <CNNaffinity_variance>
0.3073319495

$$$$
[H]c1c([H])c([H])c2c(c([H])c([H])n2[H])c1N([H])c1nc(N([H])[C@]2([H])C([H])([H])C([H])([H])C([H])([H])C([H])([H])[C@]2([H])N([H])[H])c([H])c2nc([H])n([H])c(=O)c12


 35 39  0  0  0  0  0  0  0  0999 V2000
  -19.3206   13.4991  -20.1803 C   0  0  0  0  0  0  0  0  0  0  0  0
  -18.7475   12.4208  -19.5427 C   0  0  0  0  0  0  0  0  0  0  0  0
  -17.6840   11.7377  -20.1167 C   0  0  0  0  0  0  0  0  0  0  0  0
  -17.1347   10.6924  -19.4615 N   0  0  0  0  0  0  0  0  0  0  0  0
  -16.1020   10.0598  -20.0287 C   0  0  0  0  0  0  0  0  0  0  0  0
  -15.5953   10.4145  -21.2040 N   0  0  0  0  0  0  0  0  0  0  0  0
  -16.1461   11.4622  -21.8607 C   0  0  0  0  0  0  0  0  0  0  0  0
  -15.6391   11.7604  -22.9521 O   0  0  0  0  0  0  0  0  0  0  0  0
  -17.2063   12.1712  -21.3628 C   0  0  0  0  0  0  0  0  0  0  0  0
  -17.7937   13.2643  -22.0039 C   0  0  0  0  0  0  0  0  0  0  0  0
  -18.8047   13.8437  -21.3621 N   0  0  0  0  0  0  0  0  0  0  0  0
  -14.7740    9.9061  -21.6464 H   0  0  0  0  0  0  0  0  0  0  0  0
  -20.3986   14.1614  -19.5501 N   0  0  0  0  0  0  0  0  0  0  0  0
  -21.3123   14.2506  -20.0593 H   0  0  0  0  0  0  0  0  0  0  0  0
  -20.4733   17.0763  -18.7226 N   0  0  0  0  0  0  0  0  0  0  0  0
  -19.5989   16.0381  -18.1596 C   0  0  0  0  0  0  0  0  0  0  0  0
  -19.4391   16.3952  -16.6884 C   0  0  0  0  0  0  0  0  0  0  0  0
  -20.7428   16.4407  -15.9583 C   0  0  0  0  0  0  0  0  0  0  0  0
  -21.6287   15.2590  -16.2204 C   0  0  0  0  0  0  0  0  0  0  0  0
  -21.7186   14.9516  -17.6860 C   0  0  0  0  0  0  0  0  0  0  0  0
  -20.3230   14.7339  -18.2262 C   0  0  0  0  0  0  0  0  0  0  0  0
  -20.6426   16.8904  -19.7457 H   0  0  0  0  0  0  0  0  0  0  0  0
  -20.0144   18.0272  -18.6122 H   0  0  0  0  0  0  0  0  0  0  0  0
  -17.3571   13.6388  -23.2858 N   0  0  0  0  0  0  0  0  0  0  0  0
  -17.1592   12.9405  -24.0315 H   0  0  0  0  0  0  0  0  0  0  0  0
  -17.1519   14.9879  -23.7492 C   0  0  0  0  0  0  0  0  0  0  0  0
  -17.9835   16.0200  -23.4601 C   0  0  0  0  0  0  0  0  0  0  0  0
  -17.7175   17.3271  -23.9077 C   0  0  0  0  0  0  0  0  0  0  0  0
  -16.5893   17.5544  -24.6524 C   0  0  0  0  0  0  0  0  0  0  0  0
  -15.7389   16.5161  -24.9508 C   0  0  0  0  0  0  0  0  0  0  0  0
  -14.5787   16.5160  -25.6663 N   0  0  0  0  0  0  0  0  0  0  0  0
  -14.1236   15.2572  -25.6742 C   0  0  0  0  0  0  0  0  0  0  0  0
  -14.9812   14.4573  -24.9718 C   0  0  0  0  0  0  0  0  0  0  0  0
  -16.0097   15.2532  -24.5101 C   0  0  0  0  0  0  0  0  0  0  0  0
  -14.1329   17.3480  -26.1215 H   0  0  0  0  0  0  0  0  0  0  0  0
 15 16  1  0  0  0
 16 17  1  0  0  0
 17 18  1  0  0  0
 18 19  1  0  0  0
 19 20  1  0  0  0
 20 21  1  0  0  0
 21 13  1  0  0  0
 13  1  1  0  0  0
  1  2  2  0  0  0
  2  3  1  0  0  0
  3  4  1  0  0  0
  4  5  2  0  0  0
  5  6  1  0  0  0
  6  7  1  0  0  0
  7  8  2  0  0  0
  7  9  1  0  0  0
  9 10  1  0  0  0
 10 24  1  0  0  0
 24 26  1  0  0  0
 26 27  2  0  0  0
 27 28  1  0  0  0
 28 29  2  0  0  0
 29 30  1  0  0  0
 30 31  1  0  0  0
 31 32  1  0  0  0
 32 33  2  0  0  0
 33 34  1  0  0  0
 10 11  2  0  0  0
 21 16  1  0  0  0
 11  1  1  0  0  0
  9  3  2  0  0  0
 34 26  1  0  0  0
 34 30  2  0  0  0
 15 22  1  0  0  0
 15 23  1  0  0  0
 13 14  1  0  0  0
  6 12  1  0  0  0
 24 25  1  0  0  0
 31 35  1  0  0  0
M  END
> <minimizedAffinity>
-8.83175

> <CNNscore>
0.6874398589

> <CNNaffinity>
7.4738020897

> <CNN_VS>
5.1377892494

> <CNNaffinity_variance>
0.4412205219

$$$$
[H]c1c([H])c([H])c2c(c([H])c([H])n2[H])c1N([H])c1nc(N([H])[C@]2([H])C([H])([H])C([H])([H])C([H])([H])C([H])([H])[C@]2([H])N([H])[H])c([H])c2nc([H])n([H])c(=O)c12


 35 39  0  0  0  0  0  0  0  0999 V2000
  -18.6735   10.8292  -18.0537 C   0  0  0  0  0  0  0  0  0  0  0  0
  -17.6426   10.1258  -18.6372 C   0  0  0  0  0  0  0  0  0  0  0  0
  -17.0486   10.5749  -19.8087 C   0  0  0  0  0  0  0  0  0  0  0  0
  -16.0315    9.8705  -20.3500 N   0  0  0  0  0  0  0  0  0  0  0  0
  -15.4663   10.3315  -21.4710 C   0  0  0  0  0  0  0  0  0  0  0  0
  -15.8608   11.4483  -22.0719 N   0  0  0  0  0  0  0  0  0  0  0  0
  -16.8805   12.1541  -21.5293 C   0  0  0  0  0  0  0  0  0  0  0  0
  -17.2130   13.1914  -22.1214 O   0  0  0  0  0  0  0  0  0  0  0  0
  -17.5233   11.7627  -20.3856 C   0  0  0  0  0  0  0  0  0  0  0  0
  -18.5700   12.4694  -19.7890 C   0  0  0  0  0  0  0  0  0  0  0  0
  -19.0631   11.9478  -18.6689 N   0  0  0  0  0  0  0  0  0  0  0  0
  -15.4050   11.8071  -22.9620 H   0  0  0  0  0  0  0  0  0  0  0  0
  -19.2405   10.3296  -16.8592 N   0  0  0  0  0  0  0  0  0  0  0  0
  -18.7160    9.6070  -16.3071 H   0  0  0  0  0  0  0  0  0  0  0  0
  -20.6741    9.4368  -14.3423 N   0  0  0  0  0  0  0  0  0  0  0  0
  -21.2942    9.6823  -15.6517 C   0  0  0  0  0  0  0  0  0  0  0  0
  -22.6768   10.2423  -15.3481 C   0  0  0  0  0  0  0  0  0  0  0  0
  -22.6281   11.5007  -14.5425 C   0  0  0  0  0  0  0  0  0  0  0  0
  -21.6441   12.5116  -15.0518 C   0  0  0  0  0  0  0  0  0  0  0  0
  -20.3149   11.8843  -15.3525 C   0  0  0  0  0  0  0  0  0  0  0  0
  -20.5186   10.7569  -16.3395 C   0  0  0  0  0  0  0  0  0  0  0  0
  -19.7001    9.0557  -14.4694 H   0  0  0  0  0  0  0  0  0  0  0  0
  -21.2553    8.7343  -13.7986 H   0  0  0  0  0  0  0  0  0  0  0  0
  -19.0873   13.6140  -20.4185 N   0  0  0  0  0  0  0  0  0  0  0  0
  -19.5446   13.5757  -21.3525 H   0  0  0  0  0  0  0  0  0  0  0  0
  -19.0864   14.9500  -19.8785 C   0  0  0  0  0  0  0  0  0  0  0  0
  -18.1272   15.8714  -20.1454 C   0  0  0  0  0  0  0  0  0  0  0  0
  -18.1928   17.1753  -19.6208 C   0  0  0  0  0  0  0  0  0  0  0  0
  -19.2544   17.5146  -18.8228 C   0  0  0  0  0  0  0  0  0  0  0  0
  -20.2329   16.5891  -18.5461 C   0  0  0  0  0  0  0  0  0  0  0  0
  -21.3591   16.7096  -17.7877 N   0  0  0  0  0  0  0  0  0  0  0  0
  -21.9863   15.5277  -17.8276 C   0  0  0  0  0  0  0  0  0  0  0  0
  -21.2716   14.6575  -18.6027 C   0  0  0  0  0  0  0  0  0  0  0  0
  -20.1561   15.3278  -19.0616 C   0  0  0  0  0  0  0  0  0  0  0  0
  -21.6693   17.5683  -17.2733 H   0  0  0  0  0  0  0  0  0  0  0  0
 15 16  1  0  0  0
 16 17  1  0  0  0
 17 18  1  0  0  0
 18 19  1  0  0  0
 19 20  1  0  0  0
 20 21  1  0  0  0
 21 13  1  0  0  0
 13  1  1  0  0  0
  1  2  2  0  0  0
  2  3  1  0  0  0
  3  4  1  0  0  0
  4  5  2  0  0  0
  5  6  1  0  0  0
  6  7  1  0  0  0
  7  8  2  0  0  0
  7  9  1  0  0  0
  9 10  1  0  0  0
 10 24  1  0  0  0
 24 26  1  0  0  0
 26 27  2  0  0  0
 27 28  1  0  0  0
 28 29  2  0  0  0
 29 30  1  0  0  0
 30 31  1  0  0  0
 31 32  1  0  0  0
 32 33  2  0  0  0
 33 34  1  0  0  0
 10 11  2  0  0  0
 21 16  1  0  0  0
 11  1  1  0  0  0
  9  3  2  0  0  0
 34 26  1  0  0  0
 34 30  2  0  0  0
 15 22  1  0  0  0
 15 23  1  0  0  0
 13 14  1  0  0  0
  6 12  1  0  0  0
 24 25  1  0  0  0
 31 35  1  0  0  0
M  END
> <minimizedAffinity>
-7.82784

> <CNNscore>
0.6829347610

> <CNNaffinity>
7.0629472733

> <CNN_VS>
4.8235321045

> <CNNaffinity_variance>
0.2305223048

$$$$
[H]c1c([H])c([H])c2c(c([H])c([H])n2[H])c1N([H])c1nc(N([H])[C@]2([H])C([H])([H])C([H])([H])C([H])([H])C([H])([H])[C@]2([H])N([H])[H])c([H])c2nc([H])n([H])c(=O)c12


 35 39  0  0  0  0  0  0  0  0999 V2000
  -18.7517   12.8679  -19.7837 C   0  0  0  0  0  0  0  0  0  0  0  0
  -17.9271   11.7645  -19.7641 C   0  0  0  0  0  0  0  0  0  0  0  0
  -16.9821   11.5648  -20.7611 C   0  0  0  0  0  0  0  0  0  0  0  0
  -16.1794   10.4801  -20.7077 N   0  0  0  0  0  0  0  0  0  0  0  0
  -15.2672   10.3176  -21.6722 C   0  0  0  0  0  0  0  0  0  0  0  0
  -15.1175   11.1744  -22.6760 N   0  0  0  0  0  0  0  0  0  0  0  0
  -15.9224   12.2614  -22.7294 C   0  0  0  0  0  0  0  0  0  0  0  0
  -15.7451   13.0358  -23.6813 O   0  0  0  0  0  0  0  0  0  0  0  0
  -16.8864   12.5136  -21.7905 C   0  0  0  0  0  0  0  0  0  0  0  0
  -17.7270   13.6289  -21.8043 C   0  0  0  0  0  0  0  0  0  0  0  0
  -18.5938   13.7196  -20.7992 N   0  0  0  0  0  0  0  0  0  0  0  0
  -14.3893   11.0372  -23.4373 H   0  0  0  0  0  0  0  0  0  0  0  0
  -19.6942   13.0250  -18.7422 N   0  0  0  0  0  0  0  0  0  0  0  0
  -20.2021   12.1806  -18.3802 H   0  0  0  0  0  0  0  0  0  0  0  0
  -20.7520   13.5986  -15.9602 N   0  0  0  0  0  0  0  0  0  0  0  0
  -21.1769   14.2597  -17.2019 C   0  0  0  0  0  0  0  0  0  0  0  0
  -21.4912   15.6968  -16.8103 C   0  0  0  0  0  0  0  0  0  0  0  0
  -20.3185   16.4035  -16.2103 C   0  0  0  0  0  0  0  0  0  0  0  0
  -19.0443   16.2324  -16.9828 C   0  0  0  0  0  0  0  0  0  0  0  0
  -18.8136   14.7975  -17.3549 C   0  0  0  0  0  0  0  0  0  0  0  0
  -20.0097   14.2959  -18.1324 C   0  0  0  0  0  0  0  0  0  0  0  0
  -20.5033   12.5931  -16.1529 H   0  0  0  0  0  0  0  0  0  0  0  0
  -21.5405   13.6330  -15.2502 H   0  0  0  0  0  0  0  0  0  0  0  0
  -17.6740   14.5294  -22.8816 N   0  0  0  0  0  0  0  0  0  0  0  0
  -17.4042   14.2320  -23.8417 H   0  0  0  0  0  0  0  0  0  0  0  0
  -17.9965   15.9329  -22.8279 C   0  0  0  0  0  0  0  0  0  0  0  0
  -18.9360   16.5219  -23.6094 C   0  0  0  0  0  0  0  0  0  0  0  0
  -19.2383   17.8910  -23.4916 C   0  0  0  0  0  0  0  0  0  0  0  0
  -18.5635   18.6398  -22.5626 C   0  0  0  0  0  0  0  0  0  0  0  0
  -17.6098   18.0533  -21.7646 C   0  0  0  0  0  0  0  0  0  0  0  0
  -16.8294   18.6011  -20.7906 N   0  0  0  0  0  0  0  0  0  0  0  0
  -16.0595   17.6186  -20.3069 C   0  0  0  0  0  0  0  0  0  0  0  0
  -16.3417   16.4527  -20.9625 C   0  0  0  0  0  0  0  0  0  0  0  0
  -17.3267   16.7241  -21.8901 C   0  0  0  0  0  0  0  0  0  0  0  0
  -16.8360   19.6029  -20.4834 H   0  0  0  0  0  0  0  0  0  0  0  0
 15 16  1  0  0  0
 16 17  1  0  0  0
 17 18  1  0  0  0
 18 19  1  0  0  0
 19 20  1  0  0  0
 20 21  1  0  0  0
 21 13  1  0  0  0
 13  1  1  0  0  0
  1  2  2  0  0  0
  2  3  1  0  0  0
  3  4  1  0  0  0
  4  5  2  0  0  0
  5  6  1  0  0  0
  6  7  1  0  0  0
  7  8  2  0  0  0
  7  9  1  0  0  0
  9 10  1  0  0  0
 10 24  1  0  0  0
 24 26  1  0  0  0
 26 27  2  0  0  0
 27 28  1  0  0  0
 28 29  2  0  0  0
 29 30  1  0  0  0
 30 31  1  0  0  0
 31 32  1  0  0  0
 32 33  2  0  0  0
 33 34  1  0  0  0
 10 11  2  0  0  0
 21 16  1  0  0  0
 11  1  1  0  0  0
  9  3  2  0  0  0
 34 26  1  0  0  0
 34 30  2  0  0  0
 15 22  1  0  0  0
 15 23  1  0  0  0
 13 14  1  0  0  0
  6 12  1  0  0  0
 24 25  1  0  0  0
 31 35  1  0  0  0
M  END
> <minimizedAffinity>
-8.45032

> <CNNscore>
0.6484865546

> <CNNaffinity>
7.2311964035

> <CNN_VS>
4.6893334389

> <CNNaffinity_variance>
0.2888863683

$$$$
[H]c1c([H])c([H])c2c(c([H])c([H])n2[H])c1N([H])c1nc(N([H])[C@]2([H])C([H])([H])C([H])([H])C([H])([H])C([H])([H])[C@]2([H])N([H])[H])c([H])c2nc([H])n([H])c(=O)c12


 35 39  0  0  0  0  0  0  0  0999 V2000
  -17.6912   13.8946  -22.4917 C   0  0  0  0  0  0  0  0  0  0  0  0
  -16.8505   12.8042  -22.4468 C   0  0  0  0  0  0  0  0  0  0  0  0
  -16.8903   11.9188  -21.3784 C   0  0  0  0  0  0  0  0  0  0  0  0
  -16.0626   10.8518  -21.3688 N   0  0  0  0  0  0  0  0  0  0  0  0
  -16.1302   10.0055  -20.3355 C   0  0  0  0  0  0  0  0  0  0  0  0
  -16.9736   10.1687  -19.3226 N   0  0  0  0  0  0  0  0  0  0  0  0
  -17.8030   11.2384  -19.3323 C   0  0  0  0  0  0  0  0  0  0  0  0
  -18.5756   11.3491  -18.3689 O   0  0  0  0  0  0  0  0  0  0  0  0
  -17.8073   12.1607  -20.3442 C   0  0  0  0  0  0  0  0  0  0  0  0
  -18.6553   13.2693  -20.3961 C   0  0  0  0  0  0  0  0  0  0  0  0
  -18.5316   14.0496  -21.4664 N   0  0  0  0  0  0  0  0  0  0  0  0
  -17.0205    9.4905  -18.5062 H   0  0  0  0  0  0  0  0  0  0  0  0
  -17.6120   14.7628  -23.6043 N   0  0  0  0  0  0  0  0  0  0  0  0
  -18.3853   15.4530  -23.7707 H   0  0  0  0  0  0  0  0  0  0  0  0
  -16.6167   17.0082  -25.3804 N   0  0  0  0  0  0  0  0  0  0  0  0
  -16.7471   15.5951  -25.7617 C   0  0  0  0  0  0  0  0  0  0  0  0
  -15.5978   15.3257  -26.7229 C   0  0  0  0  0  0  0  0  0  0  0  0
  -14.2585   15.5866  -26.1122 C   0  0  0  0  0  0  0  0  0  0  0  0
  -14.0842   14.9869  -24.7485 C   0  0  0  0  0  0  0  0  0  0  0  0
  -15.2637   15.2714  -23.8663 C   0  0  0  0  0  0  0  0  0  0  0  0
  -16.5155   14.7618  -24.5445 C   0  0  0  0  0  0  0  0  0  0  0  0
  -17.3772   17.2707  -24.7001 H   0  0  0  0  0  0  0  0  0  0  0  0
  -16.6959   17.6195  -26.2448 H   0  0  0  0  0  0  0  0  0  0  0  0
  -19.5132   13.5428  -19.3175 N   0  0  0  0  0  0  0  0  0  0  0  0
  -20.3181   12.9282  -19.0780 H   0  0  0  0  0  0  0  0  0  0  0  0
  -19.3977   14.6518  -18.4046 C   0  0  0  0  0  0  0  0  0  0  0  0
  -18.5179   15.6721  -18.5639 C   0  0  0  0  0  0  0  0  0  0  0  0
  -18.4706   16.7508  -17.6618 C   0  0  0  0  0  0  0  0  0  0  0  0
  -19.3377   16.7636  -16.6002 C   0  0  0  0  0  0  0  0  0  0  0  0
  -20.2342   15.7353  -16.4291 C   0  0  0  0  0  0  0  0  0  0  0  0
  -21.1726   15.5476  -15.4585 N   0  0  0  0  0  0  0  0  0  0  0  0
  -21.7933   14.3936  -15.7319 C   0  0  0  0  0  0  0  0  0  0  0  0
  -21.2601   13.8457  -16.8652 C   0  0  0  0  0  0  0  0  0  0  0  0
  -20.2685   14.6951  -17.3120 C   0  0  0  0  0  0  0  0  0  0  0  0
  -21.3663   16.1896  -14.6532 H   0  0  0  0  0  0  0  0  0  0  0  0
 15 16  1  0  0  0
 16 17  1  0  0  0
 17 18  1  0  0  0
 18 19  1  0  0  0
 19 20  1  0  0  0
 20 21  1  0  0  0
 21 13  1  0  0  0
 13  1  1  0  0  0
  1  2  2  0  0  0
  2  3  1  0  0  0
  3  4  1  0  0  0
  4  5  2  0  0  0
  5  6  1  0  0  0
  6  7  1  0  0  0
  7  8  2  0  0  0
  7  9  1  0  0  0
  9 10  1  0  0  0
 10 24  1  0  0  0
 24 26  1  0  0  0
 26 27  2  0  0  0
 27 28  1  0  0  0
 28 29  2  0  0  0
 29 30  1  0  0  0
 30 31  1  0  0  0
 31 32  1  0  0  0
 32 33  2  0  0  0
 33 34  1  0  0  0
 10 11  2  0  0  0
 21 16  1  0  0  0
 11  1  1  0  0  0
  9  3  2  0  0  0
 34 26  1  0  0  0
 34 30  2  0  0  0
 15 22  1  0  0  0
 15 23  1  0  0  0
 13 14  1  0  0  0
  6 12  1  0  0  0
 24 25  1  0  0  0
 31 35  1  0  0  0
M  END
> <minimizedAffinity>
-9.31426

> <CNNscore>
0.6115038395

> <CNNaffinity>
7.5959715843

> <CNN_VS>
4.6449656487

> <CNNaffinity_variance>
0.4059171677

$$$$
[H]c1c([H])c([H])c2c(c([H])c([H])n2[H])c1N([H])c1nc(N([H])[C@]2([H])C([H])([H])C([H])([H])C([H])([H])C([H])([H])[C@]2([H])N([H])[H])c([H])c2nc([H])n([H])c(=O)c12


 35 39  0  0  0  0  0  0  0  0999 V2000
  -17.7358   13.9827  -22.3865 C   0  0  0  0  0  0  0  0  0  0  0  0
  -17.0116   12.8115  -22.3457 C   0  0  0  0  0  0  0  0  0  0  0  0
  -17.0617   11.9825  -21.2333 C   0  0  0  0  0  0  0  0  0  0  0  0
  -16.3507   10.8344  -21.2281 N   0  0  0  0  0  0  0  0  0  0  0  0
  -16.4269   10.0458  -20.1507 C   0  0  0  0  0  0  0  0  0  0  0  0
  -17.1695   10.3421  -19.0901 N   0  0  0  0  0  0  0  0  0  0  0  0
  -17.8819   11.4931  -19.0955 C   0  0  0  0  0  0  0  0  0  0  0  0
  -18.5634   11.7275  -18.0867 O   0  0  0  0  0  0  0  0  0  0  0  0
  -17.8675   12.3658  -20.1504 C   0  0  0  0  0  0  0  0  0  0  0  0
  -18.5974   13.5556  -20.1985 C   0  0  0  0  0  0  0  0  0  0  0  0
  -18.4752   14.2711  -21.3134 N   0  0  0  0  0  0  0  0  0  0  0  0
  -17.2242    9.7088  -18.2389 H   0  0  0  0  0  0  0  0  0  0  0  0
  -17.6518   14.7884  -23.5448 N   0  0  0  0  0  0  0  0  0  0  0  0
  -18.4340   15.4536  -23.7631 H   0  0  0  0  0  0  0  0  0  0  0  0
  -16.6266   16.9698  -25.3826 N   0  0  0  0  0  0  0  0  0  0  0  0
  -16.7489   15.5436  -25.7149 C   0  0  0  0  0  0  0  0  0  0  0  0
  -15.5824   15.2414  -26.6451 C   0  0  0  0  0  0  0  0  0  0  0  0
  -14.2544   15.5262  -26.0203 C   0  0  0  0  0  0  0  0  0  0  0  0
  -14.1041   14.9763  -24.6329 C   0  0  0  0  0  0  0  0  0  0  0  0
  -15.2996   15.2907  -23.7828 C   0  0  0  0  0  0  0  0  0  0  0  0
  -16.5386   14.7551  -24.4645 C   0  0  0  0  0  0  0  0  0  0  0  0
  -17.3994   17.2555  -24.7260 H   0  0  0  0  0  0  0  0  0  0  0  0
  -16.6907   17.5493  -26.2698 H   0  0  0  0  0  0  0  0  0  0  0  0
  -19.3379   13.9659  -19.0771 N   0  0  0  0  0  0  0  0  0  0  0  0
  -19.3098   13.4502  -18.1737 H   0  0  0  0  0  0  0  0  0  0  0  0
  -20.1897   15.1260  -19.0039 C   0  0  0  0  0  0  0  0  0  0  0  0
  -21.2720   15.3191  -19.7985 C   0  0  0  0  0  0  0  0  0  0  0  0
  -22.0928   16.4537  -19.6614 C   0  0  0  0  0  0  0  0  0  0  0  0
  -21.7848   17.3804  -18.6994 C   0  0  0  0  0  0  0  0  0  0  0  0
  -20.6906   17.1948  -17.8878 C   0  0  0  0  0  0  0  0  0  0  0  0
  -20.2069   17.9773  -16.8820 N   0  0  0  0  0  0  0  0  0  0  0  0
  -19.1198   17.3647  -16.3976 C   0  0  0  0  0  0  0  0  0  0  0  0
  -18.9070   16.2017  -17.0840 C   0  0  0  0  0  0  0  0  0  0  0  0
  -19.9032   16.0895  -18.0324 C   0  0  0  0  0  0  0  0  0  0  0  0
  -20.6141   18.8857  -16.5550 H   0  0  0  0  0  0  0  0  0  0  0  0
 15 16  1  0  0  0
 16 17  1  0  0  0
 17 18  1  0  0  0
 18 19  1  0  0  0
 19 20  1  0  0  0
 20 21  1  0  0  0
 21 13  1  0  0  0
 13  1  1  0  0  0
  1  2  2  0  0  0
  2  3  1  0  0  0
  3  4  1  0  0  0
  4  5  2  0  0  0
  5  6  1  0  0  0
  6  7  1  0  0  0
  7  8  2  0  0  0
  7  9  1  0  0  0
  9 10  1  0  0  0
 10 24  1  0  0  0
 24 26  1  0  0  0
 26 27  2  0  0  0
 27 28  1  0  0  0
 28 29  2  0  0  0
 29 30  1  0  0  0
 30 31  1  0  0  0
 31 32  1  0  0  0
 32 33  2  0  0  0
 33 34  1  0  0  0
 10 11  2  0  0  0
 21 16  1  0  0  0
 11  1  1  0  0  0
  9  3  2  0  0  0
 34 26  1  0  0  0
 34 30  2  0  0  0
 15 22  1  0  0  0
 15 23  1  0  0  0
 13 14  1  0  0  0
  6 12  1  0  0  0
 24 25  1  0  0  0
 31 35  1  0  0  0
M  END
> <minimizedAffinity>
-9.03306

> <CNNscore>
0.5813130736

> <CNNaffinity>
7.5812087059

> <CNN_VS>
4.4070558548

> <CNNaffinity_variance>
0.3946285248

$$$$
[H]Oc1c([H])c([H])c([H])c(N([H])c2c([H])c([H])nc3c([H])c(-c4c([H])c([H])c([H])c(C([H])([H])N5C([H])([H])C([H])([H])OC([H])([H])C5([H])[H])c4[H])sc23)c1[H]


 32 36  0  0  0  0  0  0  0  0999 V2000
  -16.7388   12.2381  -21.8824 C   0  0  0  0  0  0  0  0  0  0  0  0
  -15.6322   11.5754  -22.3528 C   0  0  0  0  0  0  0  0  0  0  0  0
  -15.1947   10.5261  -21.5712 C   0  0  0  0  0  0  0  0  0  0  0  0
  -15.7754   10.1527  -20.4393 N   0  0  0  0  0  0  0  0  0  0  0  0
  -16.8831   10.7893  -19.9372 C   0  0  0  0  0  0  0  0  0  0  0  0
  -17.5446   10.4910  -18.8045 C   0  0  0  0  0  0  0  0  0  0  0  0
  -18.6296   11.2569  -18.4869 C   0  0  0  0  0  0  0  0  0  0  0  0
  -18.6935   12.3706  -19.7797 S   0  0  0  0  0  0  0  0  0  0  0  0
  -17.3471   11.8322  -20.6794 C   0  0  0  0  0  0  0  0  0  0  0  0
  -19.5169   11.1371  -17.3114 C   0  0  0  0  0  0  0  0  0  0  0  0
  -20.2649   12.2185  -16.9133 C   0  0  0  0  0  0  0  0  0  0  0  0
  -21.1118   12.1867  -15.8325 C   0  0  0  0  0  0  0  0  0  0  0  0
  -21.1977   10.9888  -15.1240 C   0  0  0  0  0  0  0  0  0  0  0  0
  -20.4646    9.8798  -15.4897 C   0  0  0  0  0  0  0  0  0  0  0  0
  -19.6133    9.9654  -16.6027 C   0  0  0  0  0  0  0  0  0  0  0  0
  -20.5497    8.6020  -14.7432 C   0  0  0  0  0  0  0  0  0  0  0  0
  -20.3405    8.7970  -13.3478 N   0  0  0  0  0  0  0  0  0  0  0  0
  -21.3034    8.2137  -12.4774 C   0  0  0  0  0  0  0  0  0  0  0  0
  -21.1911    8.9404  -11.1375 C   0  0  0  0  0  0  0  0  0  0  0  0
  -19.9178    8.5848  -10.6391 O   0  0  0  0  0  0  0  0  0  0  0  0
  -18.9505    9.1589  -11.4562 C   0  0  0  0  0  0  0  0  0  0  0  0
  -19.0049    8.5908  -12.8807 C   0  0  0  0  0  0  0  0  0  0  0  0
  -17.3470   13.3071  -22.5634 N   0  0  0  0  0  0  0  0  0  0  0  0
  -18.0356   13.9411  -22.0370 H   0  0  0  0  0  0  0  0  0  0  0  0
  -17.5837   11.9836  -27.1625 O   0  0  0  0  0  0  0  0  0  0  0  0
  -17.2729   12.9522  -26.2340 C   0  0  0  0  0  0  0  0  0  0  0  0
  -16.7805   14.1578  -26.6715 C   0  0  0  0  0  0  0  0  0  0  0  0
  -16.4796   15.1037  -25.7329 C   0  0  0  0  0  0  0  0  0  0  0  0
  -16.6679   14.8502  -24.3679 C   0  0  0  0  0  0  0  0  0  0  0  0
  -17.1548   13.6596  -23.9092 C   0  0  0  0  0  0  0  0  0  0  0  0
  -17.4564   12.7055  -24.8946 C   0  0  0  0  0  0  0  0  0  0  0  0
  -17.9488   11.0748  -26.9248 H   0  0  0  0  0  0  0  0  0  0  0  0
 25 26  1  0  0  0
 26 27  2  0  0  0
 27 28  1  0  0  0
 28 29  2  0  0  0
 29 30  1  0  0  0
 30 23  1  0  0  0
 23  1  1  0  0  0
  1  2  2  0  0  0
  2  3  1  0  0  0
  3  4  2  0  0  0
  4  5  1  0  0  0
  5  6  1  0  0  0
  6  7  2  0  0  0
  7  8  1  0  0  0
  8  9  1  0  0  0
  7 10  1  0  0  0
 10 11  2  0  0  0
 11 12  1  0  0  0
 12 13  2  0  0  0
 13 14  1  0  0  0
 14 16  1  0  0  0
 16 17  1  0  0  0
 17 18  1  0  0  0
 18 19  1  0  0  0
 19 20  1  0  0  0
 20 21  1  0  0  0
 21 22  1  0  0  0
 14 15  2  0  0  0
 30 31  2  0  0  0
 31 26  1  0  0  0
  9  1  1  0  0  0
 15 10  1  0  0  0
  9  5  2  0  0  0
 22 17  1  0  0  0
 25 32  1  0  0  0
 23 24  1  0  0  0
M  END
> <minimizedAffinity>
-9.30489

> <CNNscore>
0.9390971661

> <CNNaffinity>
7.2789564133

> <CNN_VS>
6.8356471062

> <CNNaffinity_variance>
0.0705284178

$$$$
[H]Oc1c([H])c([H])c([H])c(N([H])c2c([H])c([H])nc3c([H])c(-c4c([H])c([H])c([H])c(C([H])([H])N5C([H])([H])C([H])([H])OC([H])([H])C5([H])[H])c4[H])sc23)c1[H]


 32 36  0  0  0  0  0  0  0  0999 V2000
  -16.8194   12.2237  -21.8150 C   0  0  0  0  0  0  0  0  0  0  0  0
  -15.7214   11.5360  -22.2693 C   0  0  0  0  0  0  0  0  0  0  0  0
  -15.2852   10.5127  -21.4531 C   0  0  0  0  0  0  0  0  0  0  0  0
  -15.8596   10.1853  -20.3040 N   0  0  0  0  0  0  0  0  0  0  0  0
  -16.9587   10.8480  -19.8170 C   0  0  0  0  0  0  0  0  0  0  0  0
  -17.6134   10.5962  -18.6692 C   0  0  0  0  0  0  0  0  0  0  0  0
  -18.6903   11.3812  -18.3716 C   0  0  0  0  0  0  0  0  0  0  0  0
  -18.7565   12.4474  -19.7038 S   0  0  0  0  0  0  0  0  0  0  0  0
  -17.4212   11.8665  -20.5934 C   0  0  0  0  0  0  0  0  0  0  0  0
  -19.5692   11.3111  -17.1858 C   0  0  0  0  0  0  0  0  0  0  0  0
  -19.8911   12.4636  -16.5110 C   0  0  0  0  0  0  0  0  0  0  0  0
  -20.7007   12.4813  -15.4017 C   0  0  0  0  0  0  0  0  0  0  0  0
  -21.2060   11.2587  -14.9610 C   0  0  0  0  0  0  0  0  0  0  0  0
  -20.9079   10.0787  -15.6089 C   0  0  0  0  0  0  0  0  0  0  0  0
  -20.0752   10.1159  -16.7385 C   0  0  0  0  0  0  0  0  0  0  0  0
  -21.4409    8.7744  -15.1483 C   0  0  0  0  0  0  0  0  0  0  0  0
  -22.7881    8.8892  -14.7003 N   0  0  0  0  0  0  0  0  0  0  0  0
  -23.7987    8.7152  -15.6870 C   0  0  0  0  0  0  0  0  0  0  0  0
  -25.0721    9.3589  -15.1392 C   0  0  0  0  0  0  0  0  0  0  0  0
  -25.4351    8.5578  -14.0335 O   0  0  0  0  0  0  0  0  0  0  0  0
  -24.4775    8.7220  -13.0391 C   0  0  0  0  0  0  0  0  0  0  0  0
  -23.1043    8.2031  -13.4863 C   0  0  0  0  0  0  0  0  0  0  0  0
  -17.4254   13.2716  -22.5301 N   0  0  0  0  0  0  0  0  0  0  0  0
  -18.1524   13.8907  -22.0388 H   0  0  0  0  0  0  0  0  0  0  0  0
  -17.5972   11.9718  -27.1388 O   0  0  0  0  0  0  0  0  0  0  0  0
  -17.2714   12.9244  -26.1989 C   0  0  0  0  0  0  0  0  0  0  0  0
  -16.7195   14.1102  -26.6190 C   0  0  0  0  0  0  0  0  0  0  0  0
  -16.4048   15.0405  -25.6693 C   0  0  0  0  0  0  0  0  0  0  0  0
  -16.6382   14.7910  -24.3106 C   0  0  0  0  0  0  0  0  0  0  0  0
  -17.1845   13.6198  -23.8691 C   0  0  0  0  0  0  0  0  0  0  0  0
  -17.4990   12.6815  -24.8656 C   0  0  0  0  0  0  0  0  0  0  0  0
  -18.0048   11.0780  -26.9141 H   0  0  0  0  0  0  0  0  0  0  0  0
 25 26  1  0  0  0
 26 27  2  0  0  0
 27 28  1  0  0  0
 28 29  2  0  0  0
 29 30  1  0  0  0
 30 23  1  0  0  0
 23  1  1  0  0  0
  1  2  2  0  0  0
  2  3  1  0  0  0
  3  4  2  0  0  0
  4  5  1  0  0  0
  5  6  1  0  0  0
  6  7  2  0  0  0
  7  8  1  0  0  0
  8  9  1  0  0  0
  7 10  1  0  0  0
 10 11  2  0  0  0
 11 12  1  0  0  0
 12 13  2  0  0  0
 13 14  1  0  0  0
 14 16  1  0  0  0
 16 17  1  0  0  0
 17 18  1  0  0  0
 18 19  1  0  0  0
 19 20  1  0  0  0
 20 21  1  0  0  0
 21 22  1  0  0  0
 14 15  2  0  0  0
 30 31  2  0  0  0
 31 26  1  0  0  0
  9  1  1  0  0  0
 15 10  1  0  0  0
  9  5  2  0  0  0
 22 17  1  0  0  0
 25 32  1  0  0  0
 23 24  1  0  0  0
M  END
> <minimizedAffinity>
-9.14078

> <CNNscore>
0.9070155025

> <CNNaffinity>
7.1526060104

> <CNN_VS>
6.4875245094

> <CNNaffinity_variance>
0.0541017428

$$$$
[H]Oc1c([H])c([H])c([H])c(N([H])c2c([H])c([H])nc3c([H])c(-c4c([H])c([H])c([H])c(C([H])([H])N5C([H])([H])C([H])([H])OC([H])([H])C5([H])[H])c4[H])sc23)c1[H]


 32 36  0  0  0  0  0  0  0  0999 V2000
  -16.4315   12.2484  -21.8821 C   0  0  0  0  0  0  0  0  0  0  0  0
  -15.4389   11.4005  -22.3075 C   0  0  0  0  0  0  0  0  0  0  0  0
  -15.2364   10.2854  -21.5208 C   0  0  0  0  0  0  0  0  0  0  0  0
  -15.9311   10.0160  -20.4242 N   0  0  0  0  0  0  0  0  0  0  0  0
  -16.9310   10.8381  -19.9676 C   0  0  0  0  0  0  0  0  0  0  0  0
  -17.6917   10.6571  -18.8730 C   0  0  0  0  0  0  0  0  0  0  0  0
  -18.6368   11.6034  -18.5976 C   0  0  0  0  0  0  0  0  0  0  0  0
  -18.4349   12.7177  -19.8756 S   0  0  0  0  0  0  0  0  0  0  0  0
  -17.1628   11.9515  -20.7162 C   0  0  0  0  0  0  0  0  0  0  0  0
  -19.5896   11.6382  -17.4687 C   0  0  0  0  0  0  0  0  0  0  0  0
  -19.8707   10.4817  -16.7826 C   0  0  0  0  0  0  0  0  0  0  0  0
  -20.7439   10.4321  -15.7235 C   0  0  0  0  0  0  0  0  0  0  0  0
  -21.3599   11.6253  -15.3480 C   0  0  0  0  0  0  0  0  0  0  0  0
  -21.1059   12.8081  -16.0094 C   0  0  0  0  0  0  0  0  0  0  0  0
  -20.2048   12.8042  -17.0859 C   0  0  0  0  0  0  0  0  0  0  0  0
  -21.7554   14.0816  -15.6170 C   0  0  0  0  0  0  0  0  0  0  0  0
  -21.4316   15.1337  -16.5209 N   0  0  0  0  0  0  0  0  0  0  0  0
  -22.4757   15.5676  -17.3849 C   0  0  0  0  0  0  0  0  0  0  0  0
  -21.8127   16.2907  -18.5569 C   0  0  0  0  0  0  0  0  0  0  0  0
  -21.2406   17.4509  -17.9889 O   0  0  0  0  0  0  0  0  0  0  0  0
  -20.1992   17.0630  -17.1536 C   0  0  0  0  0  0  0  0  0  0  0  0
  -20.7064   16.2340  -15.9660 C   0  0  0  0  0  0  0  0  0  0  0  0
  -16.8033   13.4130  -22.5763 N   0  0  0  0  0  0  0  0  0  0  0  0
  -17.1221   14.2755  -22.0218 H   0  0  0  0  0  0  0  0  0  0  0  0
  -15.6325   16.1877  -26.3032 O   0  0  0  0  0  0  0  0  0  0  0  0
  -16.2146   15.0289  -25.8393 C   0  0  0  0  0  0  0  0  0  0  0  0
  -16.7748   14.1592  -26.7433 C   0  0  0  0  0  0  0  0  0  0  0  0
  -17.3460   13.0159  -26.2606 C   0  0  0  0  0  0  0  0  0  0  0  0
  -17.3591   12.7411  -24.8868 C   0  0  0  0  0  0  0  0  0  0  0  0
  -16.8098   13.5906  -23.9694 C   0  0  0  0  0  0  0  0  0  0  0  0
  -16.2290   14.7576  -24.4922 C   0  0  0  0  0  0  0  0  0  0  0  0
  -15.2008   16.8764  -25.7074 H   0  0  0  0  0  0  0  0  0  0  0  0
 25 26  1  0  0  0
 26 27  2  0  0  0
 27 28  1  0  0  0
 28 29  2  0  0  0
 29 30  1  0  0  0
 30 23  1  0  0  0
 23  1  1  0  0  0
  1  2  2  0  0  0
  2  3  1  0  0  0
  3  4  2  0  0  0
  4  5  1  0  0  0
  5  6  1  0  0  0
  6  7  2  0  0  0
  7  8  1  0  0  0
  8  9  1  0  0  0
  7 10  1  0  0  0
 10 11  2  0  0  0
 11 12  1  0  0  0
 12 13  2  0  0  0
 13 14  1  0  0  0
 14 16  1  0  0  0
 16 17  1  0  0  0
 17 18  1  0  0  0
 18 19  1  0  0  0
 19 20  1  0  0  0
 20 21  1  0  0  0
 21 22  1  0  0  0
 14 15  2  0  0  0
 30 31  2  0  0  0
 31 26  1  0  0  0
  9  1  1  0  0  0
 15 10  1  0  0  0
  9  5  2  0  0  0
 22 17  1  0  0  0
 25 32  1  0  0  0
 23 24  1  0  0  0
M  END
> <minimizedAffinity>
-8.61687

> <CNNscore>
0.8894626498

> <CNNaffinity>
7.3917036057

> <CNN_VS>
6.5746440887

> <CNNaffinity_variance>
0.1471910924

$$$$
[H]Oc1c([H])c([H])c([H])c(N([H])c2c([H])c([H])nc3c([H])c(-c4c([H])c([H])c([H])c(C([H])([H])N5C([H])([H])C([H])([H])OC([H])([H])C5([H])[H])c4[H])sc23)c1[H]


 32 36  0  0  0  0  0  0  0  0999 V2000
  -16.9093   12.3856  -21.6131 C   0  0  0  0  0  0  0  0  0  0  0  0
  -15.8431   11.8993  -22.3284 C   0  0  0  0  0  0  0  0  0  0  0  0
  -15.3084   10.7160  -21.8620 C   0  0  0  0  0  0  0  0  0  0  0  0
  -15.7646   10.0638  -20.8017 N   0  0  0  0  0  0  0  0  0  0  0  0
  -16.8282   10.5172  -20.0618 C   0  0  0  0  0  0  0  0  0  0  0  0
  -17.3661    9.9343  -18.9753 C   0  0  0  0  0  0  0  0  0  0  0  0
  -18.4282   10.5575  -18.3854 C   0  0  0  0  0  0  0  0  0  0  0  0
  -18.6441   11.9388  -19.3657 S   0  0  0  0  0  0  0  0  0  0  0  0
  -17.3851   11.6839  -20.4891 C   0  0  0  0  0  0  0  0  0  0  0  0
  -19.1899   10.1282  -17.1941 C   0  0  0  0  0  0  0  0  0  0  0  0
  -18.9872    8.8722  -16.6759 C   0  0  0  0  0  0  0  0  0  0  0  0
  -19.6553    8.4000  -15.5727 C   0  0  0  0  0  0  0  0  0  0  0  0
  -20.5766    9.2556  -14.9699 C   0  0  0  0  0  0  0  0  0  0  0  0
  -20.8103   10.5239  -15.4577 C   0  0  0  0  0  0  0  0  0  0  0  0
  -20.1005   10.9579  -16.5885 C   0  0  0  0  0  0  0  0  0  0  0  0
  -21.7871   11.4408  -14.8232 C   0  0  0  0  0  0  0  0  0  0  0  0
  -22.7289   10.7302  -14.0252 N   0  0  0  0  0  0  0  0  0  0  0  0
  -22.8469   11.1442  -12.6688 C   0  0  0  0  0  0  0  0  0  0  0  0
  -23.4838    9.9851  -11.9028 C   0  0  0  0  0  0  0  0  0  0  0  0
  -24.7956    9.8884  -12.4186 O   0  0  0  0  0  0  0  0  0  0  0  0
  -24.7175    9.4633  -13.7399 C   0  0  0  0  0  0  0  0  0  0  0  0
  -24.0058   10.4957  -14.6244 C   0  0  0  0  0  0  0  0  0  0  0  0
  -17.6040   13.5571  -21.9615 N   0  0  0  0  0  0  0  0  0  0  0  0
  -18.5509   13.4768  -22.4616 H   0  0  0  0  0  0  0  0  0  0  0  0
  -17.4041   17.2473  -18.9116 O   0  0  0  0  0  0  0  0  0  0  0  0
  -17.1164   16.7377  -20.1584 C   0  0  0  0  0  0  0  0  0  0  0  0
  -16.4849   17.5425  -21.0753 C   0  0  0  0  0  0  0  0  0  0  0  0
  -16.2091   17.0157  -22.3052 C   0  0  0  0  0  0  0  0  0  0  0  0
  -16.5600   15.6962  -22.6194 C   0  0  0  0  0  0  0  0  0  0  0  0
  -17.1889   14.8778  -21.7252 C   0  0  0  0  0  0  0  0  0  0  0  0
  -17.4601   15.4438  -20.4689 C   0  0  0  0  0  0  0  0  0  0  0  0
  -17.8643   16.7238  -18.1838 H   0  0  0  0  0  0  0  0  0  0  0  0
 25 26  1  0  0  0
 26 27  2  0  0  0
 27 28  1  0  0  0
 28 29  2  0  0  0
 29 30  1  0  0  0
 30 23  1  0  0  0
 23  1  1  0  0  0
  1  2  2  0  0  0
  2  3  1  0  0  0
  3  4  2  0  0  0
  4  5  1  0  0  0
  5  6  1  0  0  0
  6  7  2  0  0  0
  7  8  1  0  0  0
  8  9  1  0  0  0
  7 10  1  0  0  0
 10 11  2  0  0  0
 11 12  1  0  0  0
 12 13  2  0  0  0
 13 14  1  0  0  0
 14 16  1  0  0  0
 16 17  1  0  0  0
 17 18  1  0  0  0
 18 19  1  0  0  0
 19 20  1  0  0  0
 20 21  1  0  0  0
 21 22  1  0  0  0
 14 15  2  0  0  0
 30 31  2  0  0  0
 31 26  1  0  0  0
  9  1  1  0  0  0
 15 10  1  0  0  0
  9  5  2  0  0  0
 22 17  1  0  0  0
 25 32  1  0  0  0
 23 24  1  0  0  0
M  END
> <minimizedAffinity>
-7.83016

> <CNNscore>
0.8654249907

> <CNNaffinity>
7.0269227028

> <CNN_VS>
6.0812745094

> <CNNaffinity_variance>
0.1054137126

$$$$
[H]Oc1c([H])c([H])c([H])c(N([H])c2c([H])c([H])nc3c([H])c(-c4c([H])c([H])c([H])c(C([H])([H])N5C([H])([H])C([H])([H])OC([H])([H])C5([H])[H])c4[H])sc23)c1[H]


 32 36  0  0  0  0  0  0  0  0999 V2000
  -16.8988   12.1997  -21.5572 C   0  0  0  0  0  0  0  0  0  0  0  0
  -15.8307   11.5603  -22.1364 C   0  0  0  0  0  0  0  0  0  0  0  0
  -15.3968   10.4246  -21.4841 C   0  0  0  0  0  0  0  0  0  0  0  0
  -15.9467    9.9516  -20.3744 N   0  0  0  0  0  0  0  0  0  0  0  0
  -17.0155   10.5617  -19.7664 C   0  0  0  0  0  0  0  0  0  0  0  0
  -17.6438   10.1653  -18.6449 C   0  0  0  0  0  0  0  0  0  0  0  0
  -18.6928   10.9225  -18.2080 C   0  0  0  0  0  0  0  0  0  0  0  0
  -18.7704   12.1652  -19.3764 S   0  0  0  0  0  0  0  0  0  0  0  0
  -17.4747   11.6876  -20.3790 C   0  0  0  0  0  0  0  0  0  0  0  0
  -19.5397   10.7052  -17.0168 C   0  0  0  0  0  0  0  0  0  0  0  0
  -20.4505   11.6652  -16.6478 C   0  0  0  0  0  0  0  0  0  0  0  0
  -21.2726   11.5376  -15.5549 C   0  0  0  0  0  0  0  0  0  0  0  0
  -21.1570   10.3694  -14.8024 C   0  0  0  0  0  0  0  0  0  0  0  0
  -20.2562    9.3809  -15.1378 C   0  0  0  0  0  0  0  0  0  0  0  0
  -19.4388    9.5611  -16.2648 C   0  0  0  0  0  0  0  0  0  0  0  0
  -20.1266    8.1355  -14.3443 C   0  0  0  0  0  0  0  0  0  0  0  0
  -20.1118    8.4059  -12.9459 N   0  0  0  0  0  0  0  0  0  0  0  0
  -21.0647    7.7030  -12.1567 C   0  0  0  0  0  0  0  0  0  0  0  0
  -21.2218    8.4805  -10.8503 C   0  0  0  0  0  0  0  0  0  0  0  0
  -19.9741    8.3508  -10.2002 O   0  0  0  0  0  0  0  0  0  0  0  0
  -19.0216    9.0470  -10.9355 C   0  0  0  0  0  0  0  0  0  0  0  0
  -18.8228    8.4326  -12.3276 C   0  0  0  0  0  0  0  0  0  0  0  0
  -17.4990   13.3490  -22.1007 N   0  0  0  0  0  0  0  0  0  0  0  0
  -18.3933   13.2471  -22.6864 H   0  0  0  0  0  0  0  0  0  0  0  0
  -17.0147   17.1840  -19.2691 O   0  0  0  0  0  0  0  0  0  0  0  0
  -16.8302   16.6070  -20.5061 C   0  0  0  0  0  0  0  0  0  0  0  0
  -16.2592   17.3531  -21.5084 C   0  0  0  0  0  0  0  0  0  0  0  0
  -16.0856   16.7601  -22.7267 C   0  0  0  0  0  0  0  0  0  0  0  0
  -16.4781   15.4330  -22.9451 C   0  0  0  0  0  0  0  0  0  0  0  0
  -17.0484   14.6721  -21.9649 C   0  0  0  0  0  0  0  0  0  0  0  0
  -17.2149   15.3056  -20.7225 C   0  0  0  0  0  0  0  0  0  0  0  0
  -17.4253   16.7062  -18.4826 H   0  0  0  0  0  0  0  0  0  0  0  0
 25 26  1  0  0  0
 26 27  2  0  0  0
 27 28  1  0  0  0
 28 29  2  0  0  0
 29 30  1  0  0  0
 30 23  1  0  0  0
 23  1  1  0  0  0
  1  2  2  0  0  0
  2  3  1  0  0  0
  3  4  2  0  0  0
  4  5  1  0  0  0
  5  6  1  0  0  0
  6  7  2  0  0  0
  7  8  1  0  0  0
  8  9  1  0  0  0
  7 10  1  0  0  0
 10 11  2  0  0  0
 11 12  1  0  0  0
 12 13  2  0  0  0
 13 14  1  0  0  0
 14 16  1  0  0  0
 16 17  1  0  0  0
 17 18  1  0  0  0
 18 19  1  0  0  0
 19 20  1  0  0  0
 20 21  1  0  0  0
 21 22  1  0  0  0
 14 15  2  0  0  0
 30 31  2  0  0  0
 31 26  1  0  0  0
  9  1  1  0  0  0
 15 10  1  0  0  0
  9  5  2  0  0  0
 22 17  1  0  0  0
 25 32  1  0  0  0
 23 24  1  0  0  0
M  END
> <minimizedAffinity>
-8.30887

> <CNNscore>
0.8483309746

> <CNNaffinity>
6.9632349014

> <CNN_VS>
5.9071278572

> <CNNaffinity_variance>
0.1803276241

$$$$
[H]Oc1c([H])c([H])c([H])c(N([H])c2c([H])c([H])nc3c([H])c(-c4c([H])c([H])c([H])c(C([H])([H])N5C([H])([H])C([H])([H])OC([H])([H])C5([H])[H])c4[H])sc23)c1[H]


 32 36  0  0  0  0  0  0  0  0999 V2000
  -16.9790   12.0365  -21.4252 C   0  0  0  0  0  0  0  0  0  0  0  0
  -15.9265   11.3031  -21.9147 C   0  0  0  0  0  0  0  0  0  0  0  0
  -15.5470   10.2250  -21.1420 C   0  0  0  0  0  0  0  0  0  0  0  0
  -16.1330    9.8879  -20.0015 N   0  0  0  0  0  0  0  0  0  0  0  0
  -17.1878   10.5951  -19.4804 C   0  0  0  0  0  0  0  0  0  0  0  0
  -17.8493   10.3382  -18.3375 C   0  0  0  0  0  0  0  0  0  0  0  0
  -18.8758   11.1735  -18.0011 C   0  0  0  0  0  0  0  0  0  0  0  0
  -18.8865   12.2925  -19.2909 S   0  0  0  0  0  0  0  0  0  0  0  0
  -17.5935   11.6685  -20.2132 C   0  0  0  0  0  0  0  0  0  0  0  0
  -19.7500   11.1095  -16.8116 C   0  0  0  0  0  0  0  0  0  0  0  0
  -20.5691   12.1715  -16.5140 C   0  0  0  0  0  0  0  0  0  0  0  0
  -21.4093   12.1885  -15.4277 C   0  0  0  0  0  0  0  0  0  0  0  0
  -21.4115   11.0626  -14.6050 C   0  0  0  0  0  0  0  0  0  0  0  0
  -20.6053    9.9753  -14.8675 C   0  0  0  0  0  0  0  0  0  0  0  0
  -19.7645   10.0090  -15.9912 C   0  0  0  0  0  0  0  0  0  0  0  0
  -20.6013    8.7739  -13.9991 C   0  0  0  0  0  0  0  0  0  0  0  0
  -21.1720    7.6490  -14.6607 N   0  0  0  0  0  0  0  0  0  0  0  0
  -20.8780    6.3728  -14.1039 C   0  0  0  0  0  0  0  0  0  0  0  0
  -21.1349    5.3387  -15.1996 C   0  0  0  0  0  0  0  0  0  0  0  0
  -22.5303    5.3808  -15.4164 O   0  0  0  0  0  0  0  0  0  0  0  0
  -22.8498    6.6098  -15.9823 C   0  0  0  0  0  0  0  0  0  0  0  0
  -22.5503    7.7687  -15.0220 C   0  0  0  0  0  0  0  0  0  0  0  0
  -17.5258   13.1454  -22.0945 N   0  0  0  0  0  0  0  0  0  0  0  0
  -18.3667   13.0024  -22.7469 H   0  0  0  0  0  0  0  0  0  0  0  0
  -15.1756   16.7648  -24.1767 O   0  0  0  0  0  0  0  0  0  0  0  0
  -15.8721   16.2891  -23.0878 C   0  0  0  0  0  0  0  0  0  0  0  0
  -16.0587   17.1154  -22.0063 C   0  0  0  0  0  0  0  0  0  0  0  0
  -16.7528   16.6225  -20.9379 C   0  0  0  0  0  0  0  0  0  0  0  0
  -17.2574   15.3155  -20.9469 C   0  0  0  0  0  0  0  0  0  0  0  0
  -17.0837   14.4756  -22.0096 C   0  0  0  0  0  0  0  0  0  0  0  0
  -16.3675   15.0073  -23.0944 C   0  0  0  0  0  0  0  0  0  0  0  0
  -14.9956   16.2240  -25.0078 H   0  0  0  0  0  0  0  0  0  0  0  0
 25 26  1  0  0  0
 26 27  2  0  0  0
 27 28  1  0  0  0
 28 29  2  0  0  0
 29 30  1  0  0  0
 30 23  1  0  0  0
 23  1  1  0  0  0
  1  2  2  0  0  0
  2  3  1  0  0  0
  3  4  2  0  0  0
  4  5  1  0  0  0
  5  6  1  0  0  0
  6  7  2  0  0  0
  7  8  1  0  0  0
  8  9  1  0  0  0
  7 10  1  0  0  0
 10 11  2  0  0  0
 11 12  1  0  0  0
 12 13  2  0  0  0
 13 14  1  0  0  0
 14 16  1  0  0  0
 16 17  1  0  0  0
 17 18  1  0  0  0
 18 19  1  0  0  0
 19 20  1  0  0  0
 20 21  1  0  0  0
 21 22  1  0  0  0
 14 15  2  0  0  0
 30 31  2  0  0  0
 31 26  1  0  0  0
  9  1  1  0  0  0
 15 10  1  0  0  0
  9  5  2  0  0  0
 22 17  1  0  0  0
 25 32  1  0  0  0
 23 24  1  0  0  0
M  END
> <minimizedAffinity>
-8.25974

> <CNNscore>
0.8261174560

> <CNNaffinity>
7.0638289452

> <CNN_VS>
5.8355522156

> <CNNaffinity_variance>
0.0859708041

$$$$
[H]Oc1c([H])c([H])c([H])c(N([H])c2c([H])c([H])nc3c([H])c(-c4c([H])c([H])c([H])c(C([H])([H])N5C([H])([H])C([H])([H])OC([H])([H])C5([H])[H])c4[H])sc23)c1[H]


 32 36  0  0  0  0  0  0  0  0999 V2000
  -16.6969   12.0108  -22.0529 C   0  0  0  0  0  0  0  0  0  0  0  0
  -15.5621   11.3102  -22.3794 C   0  0  0  0  0  0  0  0  0  0  0  0
  -15.1276   10.4113  -21.4273 C   0  0  0  0  0  0  0  0  0  0  0  0
  -15.7361   10.2090  -20.2669 N   0  0  0  0  0  0  0  0  0  0  0  0
  -16.8724   10.8887  -19.9049 C   0  0  0  0  0  0  0  0  0  0  0  0
  -17.5632   10.7585  -18.7579 C   0  0  0  0  0  0  0  0  0  0  0  0
  -18.6737   11.5369  -18.5982 C   0  0  0  0  0  0  0  0  0  0  0  0
  -18.7199   12.4273  -20.0545 S   0  0  0  0  0  0  0  0  0  0  0  0
  -17.3345   11.7869  -20.8178 C   0  0  0  0  0  0  0  0  0  0  0  0
  -19.5952   11.5839  -17.4441 C   0  0  0  0  0  0  0  0  0  0  0  0
  -20.1890   12.7735  -17.0982 C   0  0  0  0  0  0  0  0  0  0  0  0
  -21.0558   12.8986  -16.0402 C   0  0  0  0  0  0  0  0  0  0  0  0
  -21.3286   11.7492  -15.2994 C   0  0  0  0  0  0  0  0  0  0  0  0
  -20.7543   10.5354  -15.6125 C   0  0  0  0  0  0  0  0  0  0  0  0
  -19.8747   10.4619  -16.7041 C   0  0  0  0  0  0  0  0  0  0  0  0
  -21.0388    9.3082  -14.8313 C   0  0  0  0  0  0  0  0  0  0  0  0
  -20.7378    9.4861  -13.4505 N   0  0  0  0  0  0  0  0  0  0  0  0
  -21.5476    8.7642  -12.5296 C   0  0  0  0  0  0  0  0  0  0  0  0
  -21.4105    9.4594  -11.1754 C   0  0  0  0  0  0  0  0  0  0  0  0
  -20.0666    9.2474  -10.7947 O   0  0  0  0  0  0  0  0  0  0  0  0
  -19.2468    9.9591  -11.6632 C   0  0  0  0  0  0  0  0  0  0  0  0
  -19.3526    9.4308  -13.1000 C   0  0  0  0  0  0  0  0  0  0  0  0
  -17.3056   12.9408  -22.9137 N   0  0  0  0  0  0  0  0  0  0  0  0
  -18.0635   12.6061  -23.5968 H   0  0  0  0  0  0  0  0  0  0  0  0
  -18.9954   17.4219  -22.7596 O   0  0  0  0  0  0  0  0  0  0  0  0
  -17.9193   16.5779  -22.9225 C   0  0  0  0  0  0  0  0  0  0  0  0
  -16.6822   17.1200  -23.1733 C   0  0  0  0  0  0  0  0  0  0  0  0
  -15.6293   16.2638  -23.3308 C   0  0  0  0  0  0  0  0  0  0  0  0
  -15.8078   14.8772  -23.2393 C   0  0  0  0  0  0  0  0  0  0  0  0
  -17.0277   14.3152  -22.9919 C   0  0  0  0  0  0  0  0  0  0  0  0
  -18.0922   15.2174  -22.8335 C   0  0  0  0  0  0  0  0  0  0  0  0
  -19.9339   17.1054  -22.5733 H   0  0  0  0  0  0  0  0  0  0  0  0
 25 26  1  0  0  0
 26 27  2  0  0  0
 27 28  1  0  0  0
 28 29  2  0  0  0
 29 30  1  0  0  0
 30 23  1  0  0  0
 23  1  1  0  0  0
  1  2  2  0  0  0
  2  3  1  0  0  0
  3  4  2  0  0  0
  4  5  1  0  0  0
  5  6  1  0  0  0
  6  7  2  0  0  0
  7  8  1  0  0  0
  8  9  1  0  0  0
  7 10  1  0  0  0
 10 11  2  0  0  0
 11 12  1  0  0  0
 12 13  2  0  0  0
 13 14  1  0  0  0
 14 16  1  0  0  0
 16 17  1  0  0  0
 17 18  1  0  0  0
 18 19  1  0  0  0
 19 20  1  0  0  0
 20 21  1  0  0  0
 21 22  1  0  0  0
 14 15  2  0  0  0
 30 31  2  0  0  0
 31 26  1  0  0  0
  9  1  1  0  0  0
 15 10  1  0  0  0
  9  5  2  0  0  0
 22 17  1  0  0  0
 25 32  1  0  0  0
 23 24  1  0  0  0
M  END
> <minimizedAffinity>
-7.95458

> <CNNscore>
0.8146619797

> <CNNaffinity>
6.9963302612

> <CNN_VS>
5.6996440887

> <CNNaffinity_variance>
0.1576468498

$$$$
[H]Oc1c([H])c([H])c([H])c(N([H])c2c([H])c([H])nc3c([H])c(-c4c([H])c([H])c([H])c(C([H])([H])N5C([H])([H])C([H])([H])OC([H])([H])C5([H])[H])c4[H])sc23)c1[H]


 32 36  0  0  0  0  0  0  0  0999 V2000
  -16.6642   12.3508  -21.7991 C   0  0  0  0  0  0  0  0  0  0  0  0
  -15.7586   11.3631  -22.0984 C   0  0  0  0  0  0  0  0  0  0  0  0
  -15.6916   10.3272  -21.1897 C   0  0  0  0  0  0  0  0  0  0  0  0
  -16.4333   10.2540  -20.0933 N   0  0  0  0  0  0  0  0  0  0  0  0
  -17.3496   11.2204  -19.7604 C   0  0  0  0  0  0  0  0  0  0  0  0
  -18.1475   11.2412  -18.6775 C   0  0  0  0  0  0  0  0  0  0  0  0
  -18.9924   12.3046  -18.5365 C   0  0  0  0  0  0  0  0  0  0  0  0
  -18.6473   13.2436  -19.9203 S   0  0  0  0  0  0  0  0  0  0  0  0
  -17.4466   12.2619  -20.6320 C   0  0  0  0  0  0  0  0  0  0  0  0
  -19.9591   12.5623  -17.4490 C   0  0  0  0  0  0  0  0  0  0  0  0
  -20.3273   13.8541  -17.1610 C   0  0  0  0  0  0  0  0  0  0  0  0
  -21.2189   14.1752  -16.1668 C   0  0  0  0  0  0  0  0  0  0  0  0
  -21.7605   13.1220  -15.4308 C   0  0  0  0  0  0  0  0  0  0  0  0
  -21.4181   11.8112  -15.6871 C   0  0  0  0  0  0  0  0  0  0  0  0
  -20.5018   11.5372  -16.7147 C   0  0  0  0  0  0  0  0  0  0  0  0
  -21.9891   10.6850  -14.9105 C   0  0  0  0  0  0  0  0  0  0  0  0
  -21.0426    9.6342  -14.7408 N   0  0  0  0  0  0  0  0  0  0  0  0
  -20.3704    9.5862  -13.4875 C   0  0  0  0  0  0  0  0  0  0  0  0
  -19.1017    8.7592  -13.6936 C   0  0  0  0  0  0  0  0  0  0  0  0
  -19.5626    7.4512  -13.9630 O   0  0  0  0  0  0  0  0  0  0  0  0
  -20.2069    7.4578  -15.1950 C   0  0  0  0  0  0  0  0  0  0  0  0
  -21.4643    8.3371  -15.1700 C   0  0  0  0  0  0  0  0  0  0  0  0
  -16.8962   13.4633  -22.6266 N   0  0  0  0  0  0  0  0  0  0  0  0
  -17.1003   14.4176  -22.1784 H   0  0  0  0  0  0  0  0  0  0  0  0
  -15.4345   15.6210  -26.6476 O   0  0  0  0  0  0  0  0  0  0  0  0
  -16.1481   14.6035  -26.0538 C   0  0  0  0  0  0  0  0  0  0  0  0
  -16.8181   13.7086  -26.8522 C   0  0  0  0  0  0  0  0  0  0  0  0
  -17.5188   12.7074  -26.2414 C   0  0  0  0  0  0  0  0  0  0  0  0
  -17.5517   12.5986  -24.8450 C   0  0  0  0  0  0  0  0  0  0  0  0
  -16.8947   13.4765  -24.0309 C   0  0  0  0  0  0  0  0  0  0  0  0
  -16.1821   14.4952  -24.6842 C   0  0  0  0  0  0  0  0  0  0  0  0
  -14.9168   16.3170  -26.1346 H   0  0  0  0  0  0  0  0  0  0  0  0
 25 26  1  0  0  0
 26 27  2  0  0  0
 27 28  1  0  0  0
 28 29  2  0  0  0
 29 30  1  0  0  0
 30 23  1  0  0  0
 23  1  1  0  0  0
  1  2  2  0  0  0
  2  3  1  0  0  0
  3  4  2  0  0  0
  4  5  1  0  0  0
  5  6  1  0  0  0
  6  7  2  0  0  0
  7  8  1  0  0  0
  8  9  1  0  0  0
  7 10  1  0  0  0
 10 11  2  0  0  0
 11 12  1  0  0  0
 12 13  2  0  0  0
 13 14  1  0  0  0
 14 16  1  0  0  0
 16 17  1  0  0  0
 17 18  1  0  0  0
 18 19  1  0  0  0
 19 20  1  0  0  0
 20 21  1  0  0  0
 21 22  1  0  0  0
 14 15  2  0  0  0
 30 31  2  0  0  0
 31 26  1  0  0  0
  9  1  1  0  0  0
 15 10  1  0  0  0
  9  5  2  0  0  0
 22 17  1  0  0  0
 25 32  1  0  0  0
 23 24  1  0  0  0
M  END
> <minimizedAffinity>
-8.18363

> <CNNscore>
0.7226137519

> <CNNaffinity>
7.0943555832

> <CNN_VS>
5.1264786720

> <CNNaffinity_variance>
0.1100774184

$$$$
[H]Oc1c([H])c([H])c([H])c(N([H])c2c([H])c([H])nc3c([H])c(-c4c([H])c([H])c([H])c(C([H])([H])N5C([H])([H])C([H])([H])OC([H])([H])C5([H])[H])c4[H])sc23)c1[H]


 32 36  0  0  0  0  0  0  0  0999 V2000
  -17.7439   12.6727  -20.8056 C   0  0  0  0  0  0  0  0  0  0  0  0
  -16.7723   12.0532  -21.5522 C   0  0  0  0  0  0  0  0  0  0  0  0
  -16.3428   10.8343  -21.0695 C   0  0  0  0  0  0  0  0  0  0  0  0
  -16.8113   10.2674  -19.9663 N   0  0  0  0  0  0  0  0  0  0  0  0
  -17.7825   10.8546  -19.1941 C   0  0  0  0  0  0  0  0  0  0  0  0
  -18.3235   10.3661  -18.0635 C   0  0  0  0  0  0  0  0  0  0  0  0
  -19.2828   11.1173  -17.4471 C   0  0  0  0  0  0  0  0  0  0  0  0
  -19.4007   12.4832  -18.4650 S   0  0  0  0  0  0  0  0  0  0  0  0
  -18.2339   12.0606  -19.6362 C   0  0  0  0  0  0  0  0  0  0  0  0
  -20.0246   10.8088  -16.2069 C   0  0  0  0  0  0  0  0  0  0  0  0
  -20.0397   11.7220  -15.1807 C   0  0  0  0  0  0  0  0  0  0  0  0
  -20.7051   11.5093  -13.9981 C   0  0  0  0  0  0  0  0  0  0  0  0
  -21.3890   10.3022  -13.8589 C   0  0  0  0  0  0  0  0  0  0  0  0
  -21.3995    9.3584  -14.8640 C   0  0  0  0  0  0  0  0  0  0  0  0
  -20.7030    9.6253  -16.0533 C   0  0  0  0  0  0  0  0  0  0  0  0
  -22.1241    8.0727  -14.7253 C   0  0  0  0  0  0  0  0  0  0  0  0
  -21.4150    7.1603  -13.8925 N   0  0  0  0  0  0  0  0  0  0  0  0
  -22.1681    6.5282  -12.8637 C   0  0  0  0  0  0  0  0  0  0  0  0
  -21.1673    6.0248  -11.8240 C   0  0  0  0  0  0  0  0  0  0  0  0
  -20.4403    5.0091  -12.4842 O   0  0  0  0  0  0  0  0  0  0  0  0
  -19.6742    5.5969  -13.4843 C   0  0  0  0  0  0  0  0  0  0  0  0
  -20.5535    6.2389  -14.5658 C   0  0  0  0  0  0  0  0  0  0  0  0
  -18.3276   13.9007  -21.1628 N   0  0  0  0  0  0  0  0  0  0  0  0
  -19.2373   13.9033  -21.7335 H   0  0  0  0  0  0  0  0  0  0  0  0
  -19.1618   18.1550  -19.1220 O   0  0  0  0  0  0  0  0  0  0  0  0
  -18.3013   17.3352  -19.8180 C   0  0  0  0  0  0  0  0  0  0  0  0
  -17.0671   17.8201  -20.1773 C   0  0  0  0  0  0  0  0  0  0  0  0
  -16.2300   16.9891  -20.8666 C   0  0  0  0  0  0  0  0  0  0  0  0
  -16.6198   15.6842  -21.1957 C   0  0  0  0  0  0  0  0  0  0  0  0
  -17.8414   15.1807  -20.8504 C   0  0  0  0  0  0  0  0  0  0  0  0
  -18.6818   16.0551  -20.1423 C   0  0  0  0  0  0  0  0  0  0  0  0
  -20.0826   17.8766  -18.8219 H   0  0  0  0  0  0  0  0  0  0  0  0
 25 26  1  0  0  0
 26 27  2  0  0  0
 27 28  1  0  0  0
 28 29  2  0  0  0
 29 30  1  0  0  0
 30 23  1  0  0  0
 23  1  1  0  0  0
  1  2  2  0  0  0
  2  3  1  0  0  0
  3  4  2  0  0  0
  4  5  1  0  0  0
  5  6  1  0  0  0
  6  7  2  0  0  0
  7  8  1  0  0  0
  8  9  1  0  0  0
  7 10  1  0  0  0
 10 11  2  0  0  0
 11 12  1  0  0  0
 12 13  2  0  0  0
 13 14  1  0  0  0
 14 16  1  0  0  0
 16 17  1  0  0  0
 17 18  1  0  0  0
 18 19  1  0  0  0
 19 20  1  0  0  0
 20 21  1  0  0  0
 21 22  1  0  0  0
 14 15  2  0  0  0
 30 31  2  0  0  0
 31 26  1  0  0  0
  9  1  1  0  0  0
 15 10  1  0  0  0
  9  5  2  0  0  0
 22 17  1  0  0  0
 25 32  1  0  0  0
 23 24  1  0  0  0
M  END
> <minimizedAffinity>
-7.16199

> <CNNscore>
0.5615146160

> <CNNaffinity>
6.5758180618

> <CNN_VS>
3.6924178600

> <CNNaffinity_variance>
0.1116035953

$$$$
[H]C([H])=C([H])C(=O)N1C([H])([H])C([H])([H])C([H])([H])C([H])(n2nc(-c3c([H])c([H])c(Oc4c([H])c([H])c([H])c([H])c4[H])c([H])c3[H])c3c(N([H])[H])nc([H])nc32)C1([H])[H]


 35 39  0  0  0  0  0  0  0  0999 V2000
  -17.3912    9.5921  -18.1725 N   0  0  0  0  0  0  0  0  0  0  0  0
  -17.0780   10.3895  -19.3006 C   0  0  0  0  0  0  0  0  0  0  0  0
  -16.2055    9.9887  -20.2372 N   0  0  0  0  0  0  0  0  0  0  0  0
  -15.8994   10.6842  -21.3374 C   0  0  0  0  0  0  0  0  0  0  0  0
  -16.5114   11.8580  -21.5049 N   0  0  0  0  0  0  0  0  0  0  0  0
  -17.3979   12.3579  -20.6381 C   0  0  0  0  0  0  0  0  0  0  0  0
  -18.1327   13.5044  -20.6272 N   0  0  0  0  0  0  0  0  0  0  0  0
  -18.8540   13.4790  -19.5366 N   0  0  0  0  0  0  0  0  0  0  0  0
  -18.6213   12.3529  -18.8221 C   0  0  0  0  0  0  0  0  0  0  0  0
  -17.7068   11.6149  -19.4868 C   0  0  0  0  0  0  0  0  0  0  0  0
  -18.3150    9.0932  -18.0645 H   0  0  0  0  0  0  0  0  0  0  0  0
  -16.7130    9.4598  -17.3853 H   0  0  0  0  0  0  0  0  0  0  0  0
  -18.0587   14.5048  -21.6755 C   0  0  0  0  0  0  0  0  0  0  0  0
  -16.6386   14.7097  -22.0888 C   0  0  0  0  0  0  0  0  0  0  0  0
  -16.5340   15.8618  -23.0722 C   0  0  0  0  0  0  0  0  0  0  0  0
  -16.9935   17.1032  -22.2905 C   0  0  0  0  0  0  0  0  0  0  0  0
  -18.3882   16.9058  -22.0365 N   0  0  0  0  0  0  0  0  0  0  0  0
  -18.7427   15.7677  -21.1985 C   0  0  0  0  0  0  0  0  0  0  0  0
  -19.4253   17.7262  -22.5395 C   0  0  0  0  0  0  0  0  0  0  0  0
  -20.6513   17.4754  -22.2563 O   0  0  0  0  0  0  0  0  0  0  0  0
  -19.1247   18.8635  -23.3825 C   0  0  0  0  0  0  0  0  0  0  0  0
  -19.1393   20.0969  -22.8470 C   0  0  0  0  0  0  0  0  0  0  0  0
  -19.2836   11.9902  -17.5613 C   0  0  0  0  0  0  0  0  0  0  0  0
  -19.7766   10.6900  -17.4058 C   0  0  0  0  0  0  0  0  0  0  0  0
  -20.4439   10.3640  -16.2687 C   0  0  0  0  0  0  0  0  0  0  0  0
  -20.6600   11.2789  -15.2410 C   0  0  0  0  0  0  0  0  0  0  0  0
  -20.1790   12.5532  -15.3903 C   0  0  0  0  0  0  0  0  0  0  0  0
  -19.5056   12.8846  -16.5373 C   0  0  0  0  0  0  0  0  0  0  0  0
  -21.3534   10.8435  -14.1209 O   0  0  0  0  0  0  0  0  0  0  0  0
  -20.7054   10.6932  -12.9006 C   0  0  0  0  0  0  0  0  0  0  0  0
  -21.0705   11.4352  -11.7957 C   0  0  0  0  0  0  0  0  0  0  0  0
  -20.4227   11.2793  -10.5904 C   0  0  0  0  0  0  0  0  0  0  0  0
  -19.3977   10.3722  -10.4847 C   0  0  0  0  0  0  0  0  0  0  0  0
  -19.0380    9.6321  -11.5982 C   0  0  0  0  0  0  0  0  0  0  0  0
  -19.6787    9.7801  -12.8070 C   0  0  0  0  0  0  0  0  0  0  0  0
  1  2  1  0  0  0
  2  3  2  0  0  0
  3  4  1  0  0  0
  4  5  2  0  0  0
  5  6  1  0  0  0
  6  7  1  0  0  0
  7  8  1  0  0  0
  8  9  2  0  0  0
  9 23  1  0  0  0
 23 24  2  0  0  0
 24 25  1  0  0  0
 25 26  2  0  0  0
 26 29  1  0  0  0
 29 30  1  0  0  0
 30 31  2  0  0  0
 31 32  1  0  0  0
 32 33  2  0  0  0
 33 34  1  0  0  0
 34 35  2  0  0  0
 26 27  1  0  0  0
 27 28  2  0  0  0
  9 10  1  0  0  0
  7 13  1  0  0  0
 13 14  1  0  0  0
 14 15  1  0  0  0
 15 16  1  0  0  0
 16 17  1  0  0  0
 17 18  1  0  0  0
 17 19  1  0  0  0
 19 20  2  0  0  0
 19 21  1  0  0  0
 21 22  2  0  0  0
 10  2  1  0  0  0
 18 13  1  0  0  0
 10  6  2  0  0  0
 28 23  1  0  0  0
 35 30  1  0  0  0
  1 11  1  0  0  0
  1 12  1  0  0  0
M  END
> <minimizedAffinity>
-8.25848

> <CNNscore>
0.7297463417

> <CNNaffinity>
7.2047386169

> <CNN_VS>
5.2576317787

> <CNNaffinity_variance>
0.0861684456

$$$$
[H]C([H])=C([H])C(=O)N1C([H])([H])C([H])([H])C([H])([H])C([H])(n2nc(-c3c([H])c([H])c(Oc4c([H])c([H])c([H])c([H])c4[H])c([H])c3[H])c3c(N([H])[H])nc([H])nc32)C1([H])[H]


 35 39  0  0  0  0  0  0  0  0999 V2000
  -17.5559    9.4469  -18.2984 N   0  0  0  0  0  0  0  0  0  0  0  0
  -17.0474   10.1923  -19.3903 C   0  0  0  0  0  0  0  0  0  0  0  0
  -16.0927    9.7103  -20.1999 N   0  0  0  0  0  0  0  0  0  0  0  0
  -15.6018   10.3553  -21.2633 C   0  0  0  0  0  0  0  0  0  0  0  0
  -16.1047   11.5625  -21.5281 N   0  0  0  0  0  0  0  0  0  0  0  0
  -17.0575   12.1424  -20.7912 C   0  0  0  0  0  0  0  0  0  0  0  0
  -17.7065   13.3352  -20.8945 N   0  0  0  0  0  0  0  0  0  0  0  0
  -18.5607   13.3859  -19.9053 N   0  0  0  0  0  0  0  0  0  0  0  0
  -18.4993   12.2657  -19.1477 C   0  0  0  0  0  0  0  0  0  0  0  0
  -17.5609   11.4515  -19.6766 C   0  0  0  0  0  0  0  0  0  0  0  0
  -18.5183    9.0134  -18.3015 H   0  0  0  0  0  0  0  0  0  0  0  0
  -16.9941    9.2901  -17.4283 H   0  0  0  0  0  0  0  0  0  0  0  0
  -17.4308   14.3011  -21.9414 C   0  0  0  0  0  0  0  0  0  0  0  0
  -18.5777   15.2470  -22.0807 C   0  0  0  0  0  0  0  0  0  0  0  0
  -18.3674   16.1625  -23.2736 C   0  0  0  0  0  0  0  0  0  0  0  0
  -18.3558   15.2336  -24.4986 C   0  0  0  0  0  0  0  0  0  0  0  0
  -17.1689   14.4436  -24.3734 N   0  0  0  0  0  0  0  0  0  0  0  0
  -17.0937   13.5601  -23.2171 C   0  0  0  0  0  0  0  0  0  0  0  0
  -16.0832   14.4669  -25.2803 C   0  0  0  0  0  0  0  0  0  0  0  0
  -15.0579   13.7193  -25.0900 O   0  0  0  0  0  0  0  0  0  0  0  0
  -16.1070   15.3332  -26.4392 C   0  0  0  0  0  0  0  0  0  0  0  0
  -16.4566   14.8205  -27.6322 C   0  0  0  0  0  0  0  0  0  0  0  0
  -19.3399   11.9804  -17.9766 C   0  0  0  0  0  0  0  0  0  0  0  0
  -20.1229   13.0080  -17.4393 C   0  0  0  0  0  0  0  0  0  0  0  0
  -20.8554   12.7698  -16.3207 C   0  0  0  0  0  0  0  0  0  0  0  0
  -20.8597   11.5331  -15.6800 C   0  0  0  0  0  0  0  0  0  0  0  0
  -20.0936   10.5247  -16.2031 C   0  0  0  0  0  0  0  0  0  0  0  0
  -19.3531   10.7631  -17.3317 C   0  0  0  0  0  0  0  0  0  0  0  0
  -21.6436   11.3947  -14.5437 O   0  0  0  0  0  0  0  0  0  0  0  0
  -22.9855   11.0480  -14.6465 C   0  0  0  0  0  0  0  0  0  0  0  0
  -23.3842    9.9002  -15.3009 C   0  0  0  0  0  0  0  0  0  0  0  0
  -24.7163    9.5645  -15.3977 C   0  0  0  0  0  0  0  0  0  0  0  0
  -25.6637   10.3834  -14.8351 C   0  0  0  0  0  0  0  0  0  0  0  0
  -25.2549   11.5330  -14.1806 C   0  0  0  0  0  0  0  0  0  0  0  0
  -23.9265   11.8774  -14.0781 C   0  0  0  0  0  0  0  0  0  0  0  0
  1  2  1  0  0  0
  2  3  2  0  0  0
  3  4  1  0  0  0
  4  5  2  0  0  0
  5  6  1  0  0  0
  6  7  1  0  0  0
  7  8  1  0  0  0
  8  9  2  0  0  0
  9 23  1  0  0  0
 23 24  2  0  0  0
 24 25  1  0  0  0
 25 26  2  0  0  0
 26 29  1  0  0  0
 29 30  1  0  0  0
 30 31  2  0  0  0
 31 32  1  0  0  0
 32 33  2  0  0  0
 33 34  1  0  0  0
 34 35  2  0  0  0
 26 27  1  0  0  0
 27 28  2  0  0  0
  9 10  1  0  0  0
  7 13  1  0  0  0
 13 14  1  0  0  0
 14 15  1  0  0  0
 15 16  1  0  0  0
 16 17  1  0  0  0
 17 18  1  0  0  0
 17 19  1  0  0  0
 19 20  2  0  0  0
 19 21  1  0  0  0
 21 22  2  0  0  0
 10  2  1  0  0  0
 18 13  1  0  0  0
 10  6  2  0  0  0
 28 23  1  0  0  0
 35 30  1  0  0  0
  1 11  1  0  0  0
  1 12  1  0  0  0
M  END
> <minimizedAffinity>
-9.63323

> <CNNscore>
0.7257575989

> <CNNaffinity>
7.2702612877

> <CNN_VS>
5.2764472961

> <CNNaffinity_variance>
0.1468379945

$$$$
[H]C([H])=C([H])C(=O)N1C([H])([H])C([H])([H])C([H])([H])C([H])(n2nc(-c3c([H])c([H])c(Oc4c([H])c([H])c([H])c([H])c4[H])c([H])c3[H])c3c(N([H])[H])nc([H])nc32)C1([H])[H]


 35 39  0  0  0  0  0  0  0  0999 V2000
  -17.5196    9.5703  -18.0744 N   0  0  0  0  0  0  0  0  0  0  0  0
  -17.0573   10.2541  -19.2256 C   0  0  0  0  0  0  0  0  0  0  0  0
  -16.1849    9.7012  -20.0813 N   0  0  0  0  0  0  0  0  0  0  0  0
  -15.7426   10.2866  -21.1992 C   0  0  0  0  0  0  0  0  0  0  0  0
  -16.2090   11.5065  -21.4725 N   0  0  0  0  0  0  0  0  0  0  0  0
  -17.0804   12.1547  -20.6929 C   0  0  0  0  0  0  0  0  0  0  0  0
  -17.6816   13.3724  -20.7946 N   0  0  0  0  0  0  0  0  0  0  0  0
  -18.4602   13.4961  -19.7511 N   0  0  0  0  0  0  0  0  0  0  0  0
  -18.3949   12.4002  -18.9590 C   0  0  0  0  0  0  0  0  0  0  0  0
  -17.5336   11.5258  -19.5216 C   0  0  0  0  0  0  0  0  0  0  0  0
  -18.4980    9.1825  -17.9949 H   0  0  0  0  0  0  0  0  0  0  0  0
  -16.9049    9.4166  -17.2403 H   0  0  0  0  0  0  0  0  0  0  0  0
  -17.4383   14.2888  -21.8929 C   0  0  0  0  0  0  0  0  0  0  0  0
  -18.6202   15.1803  -22.0875 C   0  0  0  0  0  0  0  0  0  0  0  0
  -18.4397   16.0357  -23.3289 C   0  0  0  0  0  0  0  0  0  0  0  0
  -18.3865   15.0416  -24.5003 C   0  0  0  0  0  0  0  0  0  0  0  0
  -17.1705   14.3063  -24.3283 N   0  0  0  0  0  0  0  0  0  0  0  0
  -17.0669   13.4919  -23.1245 C   0  0  0  0  0  0  0  0  0  0  0  0
  -16.0822   14.3214  -25.2322 C   0  0  0  0  0  0  0  0  0  0  0  0
  -15.0298   13.6259  -24.9981 O   0  0  0  0  0  0  0  0  0  0  0  0
  -16.1339   15.1206  -26.4376 C   0  0  0  0  0  0  0  0  0  0  0  0
  -16.5480   14.5508  -27.5831 C   0  0  0  0  0  0  0  0  0  0  0  0
  -19.1621   12.1939  -17.7227 C   0  0  0  0  0  0  0  0  0  0  0  0
  -19.8200   10.9741  -17.5303 C   0  0  0  0  0  0  0  0  0  0  0  0
  -20.5812   10.7977  -16.4194 C   0  0  0  0  0  0  0  0  0  0  0  0
  -20.7357   11.7901  -15.4544 C   0  0  0  0  0  0  0  0  0  0  0  0
  -20.0933   12.9861  -15.6400 C   0  0  0  0  0  0  0  0  0  0  0  0
  -19.3249   13.1665  -16.7607 C   0  0  0  0  0  0  0  0  0  0  0  0
  -21.5354   11.5075  -14.3565 O   0  0  0  0  0  0  0  0  0  0  0  0
  -20.9682   11.2543  -13.1132 C   0  0  0  0  0  0  0  0  0  0  0  0
  -21.5224   11.7568  -11.9535 C   0  0  0  0  0  0  0  0  0  0  0  0
  -20.9535   11.5007  -10.7258 C   0  0  0  0  0  0  0  0  0  0  0  0
  -19.8172   10.7336  -10.6527 C   0  0  0  0  0  0  0  0  0  0  0  0
  -19.2679   10.2336  -11.8212 C   0  0  0  0  0  0  0  0  0  0  0  0
  -19.8285   10.4836  -13.0528 C   0  0  0  0  0  0  0  0  0  0  0  0
  1  2  1  0  0  0
  2  3  2  0  0  0
  3  4  1  0  0  0
  4  5  2  0  0  0
  5  6  1  0  0  0
  6  7  1  0  0  0
  7  8  1  0  0  0
  8  9  2  0  0  0
  9 23  1  0  0  0
 23 24  2  0  0  0
 24 25  1  0  0  0
 25 26  2  0  0  0
 26 29  1  0  0  0
 29 30  1  0  0  0
 30 31  2  0  0  0
 31 32  1  0  0  0
 32 33  2  0  0  0
 33 34  1  0  0  0
 34 35  2  0  0  0
 26 27  1  0  0  0
 27 28  2  0  0  0
  9 10  1  0  0  0
  7 13  1  0  0  0
 13 14  1  0  0  0
 14 15  1  0  0  0
 15 16  1  0  0  0
 16 17  1  0  0  0
 17 18  1  0  0  0
 17 19  1  0  0  0
 19 20  2  0  0  0
 19 21  1  0  0  0
 21 22  2  0  0  0
 10  2  1  0  0  0
 18 13  1  0  0  0
 10  6  2  0  0  0
 28 23  1  0  0  0
 35 30  1  0  0  0
  1 11  1  0  0  0
  1 12  1  0  0  0
M  END
> <minimizedAffinity>
-9.50124

> <CNNscore>
0.7001133561

> <CNNaffinity>
7.3434247971

> <CNN_VS>
5.1412296295

> <CNNaffinity_variance>
0.1853356510

$$$$
[H]C([H])=C([H])C(=O)N1C([H])([H])C([H])([H])C([H])([H])C([H])(n2nc(-c3c([H])c([H])c(Oc4c([H])c([H])c([H])c([H])c4[H])c([H])c3[H])c3c(N([H])[H])nc([H])nc32)C1([H])[H]


 35 39  0  0  0  0  0  0  0  0999 V2000
  -16.8113    9.7659  -19.2930 N   0  0  0  0  0  0  0  0  0  0  0  0
  -16.9201   10.8700  -20.1736 C   0  0  0  0  0  0  0  0  0  0  0  0
  -16.1780   10.9706  -21.2864 N   0  0  0  0  0  0  0  0  0  0  0  0
  -16.2641   11.9714  -22.1690 C   0  0  0  0  0  0  0  0  0  0  0  0
  -17.1547   12.9318  -21.9145 N   0  0  0  0  0  0  0  0  0  0  0  0
  -17.9470   12.9365  -20.8377 C   0  0  0  0  0  0  0  0  0  0  0  0
  -18.9133   13.7937  -20.4065 N   0  0  0  0  0  0  0  0  0  0  0  0
  -19.3815   13.3018  -19.2887 N   0  0  0  0  0  0  0  0  0  0  0  0
  -18.7565   12.1459  -18.9631 C   0  0  0  0  0  0  0  0  0  0  0  0
  -17.8423   11.8783  -19.9200 C   0  0  0  0  0  0  0  0  0  0  0  0
  -17.5531    9.0186  -19.2197 H   0  0  0  0  0  0  0  0  0  0  0  0
  -15.9808    9.6391  -18.6675 H   0  0  0  0  0  0  0  0  0  0  0  0
  -19.2819   15.0002  -21.1232 C   0  0  0  0  0  0  0  0  0  0  0  0
  -18.0891   15.8834  -21.2867 C   0  0  0  0  0  0  0  0  0  0  0  0
  -18.4946   17.2136  -21.8963 C   0  0  0  0  0  0  0  0  0  0  0  0
  -19.4364   17.8594  -20.8670 C   0  0  0  0  0  0  0  0  0  0  0  0
  -20.6104   17.0408  -20.8504 N   0  0  0  0  0  0  0  0  0  0  0  0
  -20.4377   15.6637  -20.4064 C   0  0  0  0  0  0  0  0  0  0  0  0
  -21.9022   17.4727  -21.2330 C   0  0  0  0  0  0  0  0  0  0  0  0
  -22.9007   16.6685  -21.1823 O   0  0  0  0  0  0  0  0  0  0  0  0
  -22.1233   18.8283  -21.6885 C   0  0  0  0  0  0  0  0  0  0  0  0
  -23.3381   19.3824  -21.5285 C   0  0  0  0  0  0  0  0  0  0  0  0
  -19.0562   11.3155  -17.7882 C   0  0  0  0  0  0  0  0  0  0  0  0
  -18.7182    9.9580  -17.8152 C   0  0  0  0  0  0  0  0  0  0  0  0
  -19.0467    9.1703  -16.7588 C   0  0  0  0  0  0  0  0  0  0  0  0
  -19.7125    9.6623  -15.6386 C   0  0  0  0  0  0  0  0  0  0  0  0
  -20.0456   10.9911  -15.6092 C   0  0  0  0  0  0  0  0  0  0  0  0
  -19.7154   11.7878  -16.6746 C   0  0  0  0  0  0  0  0  0  0  0  0
  -20.0008    8.7730  -14.6136 O   0  0  0  0  0  0  0  0  0  0  0  0
  -20.6213    7.5588  -14.8826 C   0  0  0  0  0  0  0  0  0  0  0  0
  -21.8267    7.4992  -15.5520 C   0  0  0  0  0  0  0  0  0  0  0  0
  -22.4341    6.2914  -15.8143 C   0  0  0  0  0  0  0  0  0  0  0  0
  -21.8325    5.1275  -15.4041 C   0  0  0  0  0  0  0  0  0  0  0  0
  -20.6233    5.1966  -14.7331 C   0  0  0  0  0  0  0  0  0  0  0  0
  -20.0081    6.3981  -14.4661 C   0  0  0  0  0  0  0  0  0  0  0  0
  1  2  1  0  0  0
  2  3  2  0  0  0
  3  4  1  0  0  0
  4  5  2  0  0  0
  5  6  1  0  0  0
  6  7  1  0  0  0
  7  8  1  0  0  0
  8  9  2  0  0  0
  9 23  1  0  0  0
 23 24  2  0  0  0
 24 25  1  0  0  0
 25 26  2  0  0  0
 26 29  1  0  0  0
 29 30  1  0  0  0
 30 31  2  0  0  0
 31 32  1  0  0  0
 32 33  2  0  0  0
 33 34  1  0  0  0
 34 35  2  0  0  0
 26 27  1  0  0  0
 27 28  2  0  0  0
  9 10  1  0  0  0
  7 13  1  0  0  0
 13 14  1  0  0  0
 14 15  1  0  0  0
 15 16  1  0  0  0
 16 17  1  0  0  0
 17 18  1  0  0  0
 17 19  1  0  0  0
 19 20  2  0  0  0
 19 21  1  0  0  0
 21 22  2  0  0  0
 10  2  1  0  0  0
 18 13  1  0  0  0
 10  6  2  0  0  0
 28 23  1  0  0  0
 35 30  1  0  0  0
  1 11  1  0  0  0
  1 12  1  0  0  0
M  END
> <minimizedAffinity>
-8.42163

> <CNNscore>
0.6680959463

> <CNNaffinity>
7.2001013756

> <CNN_VS>
4.8103585243

> <CNNaffinity_variance>
0.2661908269

$$$$
[H]C([H])=C([H])C(=O)N1C([H])([H])C([H])([H])C([H])([H])C([H])(n2nc(-c3c([H])c([H])c(Oc4c([H])c([H])c([H])c([H])c4[H])c([H])c3[H])c3c(N([H])[H])nc([H])nc32)C1([H])[H]


 35 39  0  0  0  0  0  0  0  0999 V2000
  -17.7472   10.5218  -18.5520 N   0  0  0  0  0  0  0  0  0  0  0  0
  -17.0393   10.8189  -19.7424 C   0  0  0  0  0  0  0  0  0  0  0  0
  -16.2488    9.9187  -20.3456 N   0  0  0  0  0  0  0  0  0  0  0  0
  -15.5861   10.1337  -21.4869 C   0  0  0  0  0  0  0  0  0  0  0  0
  -15.7291   11.3317  -22.0569 N   0  0  0  0  0  0  0  0  0  0  0  0
  -16.4897   12.3053  -21.5464 C   0  0  0  0  0  0  0  0  0  0  0  0
  -16.7787   13.5677  -21.9675 N   0  0  0  0  0  0  0  0  0  0  0  0
  -17.5950   14.0816  -21.0843 N   0  0  0  0  0  0  0  0  0  0  0  0
  -17.8569   13.2015  -20.0895 C   0  0  0  0  0  0  0  0  0  0  0  0
  -17.1777   12.0631  -20.3460 C   0  0  0  0  0  0  0  0  0  0  0  0
  -18.7922   10.3752  -18.5304 H   0  0  0  0  0  0  0  0  0  0  0  0
  -17.2606   10.4330  -17.6286 H   0  0  0  0  0  0  0  0  0  0  0  0
  -16.2332   14.1439  -23.1822 C   0  0  0  0  0  0  0  0  0  0  0  0
  -15.8424   15.5652  -22.9444 C   0  0  0  0  0  0  0  0  0  0  0  0
  -15.4161   16.2222  -24.2452 C   0  0  0  0  0  0  0  0  0  0  0  0
  -16.6700   16.2083  -25.1346 C   0  0  0  0  0  0  0  0  0  0  0  0
  -16.9173   14.8304  -25.4326 N   0  0  0  0  0  0  0  0  0  0  0  0
  -17.2347   13.9667  -24.3028 C   0  0  0  0  0  0  0  0  0  0  0  0
  -16.8711   14.2627  -26.7277 C   0  0  0  0  0  0  0  0  0  0  0  0
  -17.1112   13.0144  -26.9019 O   0  0  0  0  0  0  0  0  0  0  0  0
  -16.5525   15.0773  -27.8806 C   0  0  0  0  0  0  0  0  0  0  0  0
  -15.2710   15.4144  -28.1096 C   0  0  0  0  0  0  0  0  0  0  0  0
  -18.7560   13.4419  -18.9522 C   0  0  0  0  0  0  0  0  0  0  0  0
  -20.1370   13.3282  -19.1458 C   0  0  0  0  0  0  0  0  0  0  0  0
  -20.9776   13.6084  -18.1165 C   0  0  0  0  0  0  0  0  0  0  0  0
  -20.5176   14.0080  -16.8640 C   0  0  0  0  0  0  0  0  0  0  0  0
  -19.1657   14.1209  -16.6711 C   0  0  0  0  0  0  0  0  0  0  0  0
  -18.3156   13.8391  -17.7088 C   0  0  0  0  0  0  0  0  0  0  0  0
  -21.4605   14.2697  -15.8805 O   0  0  0  0  0  0  0  0  0  0  0  0
  -21.8915   13.2618  -15.0261 C   0  0  0  0  0  0  0  0  0  0  0  0
  -21.4559   11.9603  -15.1709 C   0  0  0  0  0  0  0  0  0  0  0  0
  -21.8883   10.9681  -14.3193 C   0  0  0  0  0  0  0  0  0  0  0  0
  -22.7665   11.2769  -13.3102 C   0  0  0  0  0  0  0  0  0  0  0  0
  -23.1984   12.5851  -13.1723 C   0  0  0  0  0  0  0  0  0  0  0  0
  -22.7724   13.5839  -14.0177 C   0  0  0  0  0  0  0  0  0  0  0  0
  1  2  1  0  0  0
  2  3  2  0  0  0
  3  4  1  0  0  0
  4  5  2  0  0  0
  5  6  1  0  0  0
  6  7  1  0  0  0
  7  8  1  0  0  0
  8  9  2  0  0  0
  9 23  1  0  0  0
 23 24  2  0  0  0
 24 25  1  0  0  0
 25 26  2  0  0  0
 26 29  1  0  0  0
 29 30  1  0  0  0
 30 31  2  0  0  0
 31 32  1  0  0  0
 32 33  2  0  0  0
 33 34  1  0  0  0
 34 35  2  0  0  0
 26 27  1  0  0  0
 27 28  2  0  0  0
  9 10  1  0  0  0
  7 13  1  0  0  0
 13 14  1  0  0  0
 14 15  1  0  0  0
 15 16  1  0  0  0
 16 17  1  0  0  0
 17 18  1  0  0  0
 17 19  1  0  0  0
 19 20  2  0  0  0
 19 21  1  0  0  0
 21 22  2  0  0  0
 10  2  1  0  0  0
 18 13  1  0  0  0
 10  6  2  0  0  0
 28 23  1  0  0  0
 35 30  1  0  0  0
  1 11  1  0  0  0
  1 12  1  0  0  0
M  END
> <minimizedAffinity>
-8.71939

> <CNNscore>
0.6589068770

> <CNNaffinity>
7.3344459534

> <CNN_VS>
4.8327169418

> <CNNaffinity_variance>
0.1033635363

$$$$
[H]C([H])=C([H])C(=O)N1C([H])([H])C([H])([H])C([H])([H])C([H])(n2nc(-c3c([H])c([H])c(Oc4c([H])c([H])c([H])c([H])c4[H])c([H])c3[H])c3c(N([H])[H])nc([H])nc32)C1([H])[H]


 35 39  0  0  0  0  0  0  0  0999 V2000
  -17.2229    9.8793  -18.0469 N   0  0  0  0  0  0  0  0  0  0  0  0
  -16.8458   10.3730  -19.3198 C   0  0  0  0  0  0  0  0  0  0  0  0
  -15.9203    9.7637  -20.0756 N   0  0  0  0  0  0  0  0  0  0  0  0
  -15.5517   10.1657  -21.2965 C   0  0  0  0  0  0  0  0  0  0  0  0
  -16.1541   11.2504  -21.7873 N   0  0  0  0  0  0  0  0  0  0  0  0
  -17.0897   11.9379  -21.1247 C   0  0  0  0  0  0  0  0  0  0  0  0
  -17.8250   13.0391  -21.4432 N   0  0  0  0  0  0  0  0  0  0  0  0
  -18.6081   13.2768  -20.4230 N   0  0  0  0  0  0  0  0  0  0  0  0
  -18.4160   12.3697  -19.4367 C   0  0  0  0  0  0  0  0  0  0  0  0
  -17.4639   11.5027  -19.8427 C   0  0  0  0  0  0  0  0  0  0  0  0
  -18.1510    9.4092  -17.8686 H   0  0  0  0  0  0  0  0  0  0  0  0
  -16.5912    9.9591  -17.2151 H   0  0  0  0  0  0  0  0  0  0  0  0
  -17.6915   13.7456  -22.7033 C   0  0  0  0  0  0  0  0  0  0  0  0
  -17.9004   12.8040  -23.8432 C   0  0  0  0  0  0  0  0  0  0  0  0
  -17.6105   13.4971  -25.1627 C   0  0  0  0  0  0  0  0  0  0  0  0
  -16.1188   13.8646  -25.1069 C   0  0  0  0  0  0  0  0  0  0  0  0
  -16.0043   14.8613  -24.0861 N   0  0  0  0  0  0  0  0  0  0  0  0
  -16.3523   14.4498  -22.7323 C   0  0  0  0  0  0  0  0  0  0  0  0
  -15.5863   16.1955  -24.3026 C   0  0  0  0  0  0  0  0  0  0  0  0
  -15.5092   17.0221  -23.3243 O   0  0  0  0  0  0  0  0  0  0  0  0
  -15.2375   16.6544  -25.6300 C   0  0  0  0  0  0  0  0  0  0  0  0
  -14.2993   15.9892  -26.3267 C   0  0  0  0  0  0  0  0  0  0  0  0
  -19.1497   12.3245  -18.1642 C   0  0  0  0  0  0  0  0  0  0  0  0
  -19.0359   13.4021  -17.2790 C   0  0  0  0  0  0  0  0  0  0  0  0
  -19.6610   13.3417  -16.0748 C   0  0  0  0  0  0  0  0  0  0  0  0
  -20.4181   12.2410  -15.6805 C   0  0  0  0  0  0  0  0  0  0  0  0
  -20.5311   11.1837  -16.5447 C   0  0  0  0  0  0  0  0  0  0  0  0
  -19.9006   11.2424  -17.7604 C   0  0  0  0  0  0  0  0  0  0  0  0
  -21.0160   12.2805  -14.4292 O   0  0  0  0  0  0  0  0  0  0  0  0
  -22.3665   12.5817  -14.2985 C   0  0  0  0  0  0  0  0  0  0  0  0
  -23.3118   11.5906  -14.1291 C   0  0  0  0  0  0  0  0  0  0  0  0
  -24.6479   11.8985  -14.0003 C   0  0  0  0  0  0  0  0  0  0  0  0
  -25.0473   13.2115  -14.0407 C   0  0  0  0  0  0  0  0  0  0  0  0
  -24.0922   14.1993  -14.2109 C   0  0  0  0  0  0  0  0  0  0  0  0
  -22.7548   13.9023  -14.3406 C   0  0  0  0  0  0  0  0  0  0  0  0
  1  2  1  0  0  0
  2  3  2  0  0  0
  3  4  1  0  0  0
  4  5  2  0  0  0
  5  6  1  0  0  0
  6  7  1  0  0  0
  7  8  1  0  0  0
  8  9  2  0  0  0
  9 23  1  0  0  0
 23 24  2  0  0  0
 24 25  1  0  0  0
 25 26  2  0  0  0
 26 29  1  0  0  0
 29 30  1  0  0  0
 30 31  2  0  0  0
 31 32  1  0  0  0
 32 33  2  0  0  0
 33 34  1  0  0  0
 34 35  2  0  0  0
 26 27  1  0  0  0
 27 28  2  0  0  0
  9 10  1  0  0  0
  7 13  1  0  0  0
 13 14  1  0  0  0
 14 15  1  0  0  0
 15 16  1  0  0  0
 16 17  1  0  0  0
 17 18  1  0  0  0
 17 19  1  0  0  0
 19 20  2  0  0  0
 19 21  1  0  0  0
 21 22  2  0  0  0
 10  2  1  0  0  0
 18 13  1  0  0  0
 10  6  2  0  0  0
 28 23  1  0  0  0
 35 30  1  0  0  0
  1 11  1  0  0  0
  1 12  1  0  0  0
M  END
> <minimizedAffinity>
-8.14278

> <CNNscore>
0.6471183896

> <CNNaffinity>
7.1655092239

> <CNN_VS>
4.6369328499

> <CNNaffinity_variance>
0.1136796847

$$$$
[H]C([H])=C([H])C(=O)N1C([H])([H])C([H])([H])C([H])([H])C([H])(n2nc(-c3c([H])c([H])c(Oc4c([H])c([H])c([H])c([H])c4[H])c([H])c3[H])c3c(N([H])[H])nc([H])nc32)C1([H])[H]


 35 39  0  0  0  0  0  0  0  0999 V2000
  -18.0007    9.2803  -17.3744 N   0  0  0  0  0  0  0  0  0  0  0  0
  -17.8799   10.1932  -18.4507 C   0  0  0  0  0  0  0  0  0  0  0  0
  -17.0637    9.9658  -19.4905 N   0  0  0  0  0  0  0  0  0  0  0  0
  -16.9368   10.7748  -20.5476 C   0  0  0  0  0  0  0  0  0  0  0  0
  -17.6795   11.8833  -20.5579 N   0  0  0  0  0  0  0  0  0  0  0  0
  -18.5264   12.2127  -19.5774 C   0  0  0  0  0  0  0  0  0  0  0  0
  -19.3711   13.2666  -19.4026 N   0  0  0  0  0  0  0  0  0  0  0  0
  -19.9790   13.0764  -18.2603 N   0  0  0  0  0  0  0  0  0  0  0  0
  -19.5647   11.9305  -17.6703 C   0  0  0  0  0  0  0  0  0  0  0  0
  -18.6464   11.3523  -18.4736 C   0  0  0  0  0  0  0  0  0  0  0  0
  -18.8538    8.6754  -17.2315 H   0  0  0  0  0  0  0  0  0  0  0  0
  -17.2408    9.1627  -16.6631 H   0  0  0  0  0  0  0  0  0  0  0  0
  -19.5004   14.3480  -20.3612 C   0  0  0  0  0  0  0  0  0  0  0  0
  -18.1654   14.9638  -20.6219 C   0  0  0  0  0  0  0  0  0  0  0  0
  -18.3117   16.1925  -21.5020 C   0  0  0  0  0  0  0  0  0  0  0  0
  -19.1480   17.1836  -20.6764 C   0  0  0  0  0  0  0  0  0  0  0  0
  -20.4494   16.5972  -20.5710 N   0  0  0  0  0  0  0  0  0  0  0  0
  -20.5364   15.3295  -19.8579 C   0  0  0  0  0  0  0  0  0  0  0  0
  -21.6335   17.1561  -21.1069 C   0  0  0  0  0  0  0  0  0  0  0  0
  -22.7605   16.5606  -20.9604 O   0  0  0  0  0  0  0  0  0  0  0  0
  -21.5976   18.4091  -21.8301 C   0  0  0  0  0  0  0  0  0  0  0  0
  -21.6160   18.3892  -23.1746 C   0  0  0  0  0  0  0  0  0  0  0  0
  -20.0633   11.3993  -16.3941 C   0  0  0  0  0  0  0  0  0  0  0  0
  -19.5411   11.9073  -15.1995 C   0  0  0  0  0  0  0  0  0  0  0  0
  -19.9512   11.3794  -14.0173 C   0  0  0  0  0  0  0  0  0  0  0  0
  -20.8791   10.3432  -13.9438 C   0  0  0  0  0  0  0  0  0  0  0  0
  -21.3921    9.8429  -15.1117 C   0  0  0  0  0  0  0  0  0  0  0  0
  -20.9792   10.3739  -16.3061 C   0  0  0  0  0  0  0  0  0  0  0  0
  -21.2308    9.8763  -12.6856 O   0  0  0  0  0  0  0  0  0  0  0  0
  -20.3509    9.9910  -11.6159 C   0  0  0  0  0  0  0  0  0  0  0  0
  -20.5490   10.9234  -10.6179 C   0  0  0  0  0  0  0  0  0  0  0  0
  -19.6719   11.0297   -9.5615 C   0  0  0  0  0  0  0  0  0  0  0  0
  -18.5829   10.1960   -9.4988 C   0  0  0  0  0  0  0  0  0  0  0  0
  -18.3919    9.2636  -10.5044 C   0  0  0  0  0  0  0  0  0  0  0  0
  -19.2623    9.1491  -11.5641 C   0  0  0  0  0  0  0  0  0  0  0  0
  1  2  1  0  0  0
  2  3  2  0  0  0
  3  4  1  0  0  0
  4  5  2  0  0  0
  5  6  1  0  0  0
  6  7  1  0  0  0
  7  8  1  0  0  0
  8  9  2  0  0  0
  9 23  1  0  0  0
 23 24  2  0  0  0
 24 25  1  0  0  0
 25 26  2  0  0  0
 26 29  1  0  0  0
 29 30  1  0  0  0
 30 31  2  0  0  0
 31 32  1  0  0  0
 32 33  2  0  0  0
 33 34  1  0  0  0
 34 35  2  0  0  0
 26 27  1  0  0  0
 27 28  2  0  0  0
  9 10  1  0  0  0
  7 13  1  0  0  0
 13 14  1  0  0  0
 14 15  1  0  0  0
 15 16  1  0  0  0
 16 17  1  0  0  0
 17 18  1  0  0  0
 17 19  1  0  0  0
 19 20  2  0  0  0
 19 21  1  0  0  0
 21 22  2  0  0  0
 10  2  1  0  0  0
 18 13  1  0  0  0
 10  6  2  0  0  0
 28 23  1  0  0  0
 35 30  1  0  0  0
  1 11  1  0  0  0
  1 12  1  0  0  0
M  END
> <minimizedAffinity>
-7.85944

> <CNNscore>
0.5718337893

> <CNNaffinity>
6.9545869827

> <CNN_VS>
3.9768679142

> <CNNaffinity_variance>
0.2085762024

$$$$
[H]C([H])=C([H])C(=O)N1C([H])([H])C([H])([H])C([H])([H])C([H])(n2nc(-c3c([H])c([H])c(Oc4c([H])c([H])c([H])c([H])c4[H])c([H])c3[H])c3c(N([H])[H])nc([H])nc32)C1([H])[H]


 35 39  0  0  0  0  0  0  0  0999 V2000
  -17.1131    9.8907  -20.4516 N   0  0  0  0  0  0  0  0  0  0  0  0
  -17.0061   11.2109  -20.9537 C   0  0  0  0  0  0  0  0  0  0  0  0
  -16.3552   11.4902  -22.0927 N   0  0  0  0  0  0  0  0  0  0  0  0
  -16.2532   12.7106  -22.6296 C   0  0  0  0  0  0  0  0  0  0  0  0
  -16.8447   13.7133  -21.9776 N   0  0  0  0  0  0  0  0  0  0  0  0
  -17.5199   13.5535  -20.8350 C   0  0  0  0  0  0  0  0  0  0  0  0
  -18.1967   14.4219  -20.0335 N   0  0  0  0  0  0  0  0  0  0  0  0
  -18.6835   13.7194  -19.0436 N   0  0  0  0  0  0  0  0  0  0  0  0
  -18.3511   12.4124  -19.1612 C   0  0  0  0  0  0  0  0  0  0  0  0
  -17.6160   12.2650  -20.2841 C   0  0  0  0  0  0  0  0  0  0  0  0
  -18.0130    9.3399  -20.4801 H   0  0  0  0  0  0  0  0  0  0  0  0
  -16.2950    9.3952  -20.0244 H   0  0  0  0  0  0  0  0  0  0  0  0
  -18.3007   15.8422  -20.3112 C   0  0  0  0  0  0  0  0  0  0  0  0
  -18.4242   16.6061  -19.0342 C   0  0  0  0  0  0  0  0  0  0  0  0
  -18.6890   18.0740  -19.3186 C   0  0  0  0  0  0  0  0  0  0  0  0
  -20.0486   18.1078  -20.0353 C   0  0  0  0  0  0  0  0  0  0  0  0
  -19.8337   17.4768  -21.3019 N   0  0  0  0  0  0  0  0  0  0  0  0
  -19.4468   16.0723  -21.2722 C   0  0  0  0  0  0  0  0  0  0  0  0
  -19.9668   18.1168  -22.5566 C   0  0  0  0  0  0  0  0  0  0  0  0
  -19.7575   17.4698  -23.6446 O   0  0  0  0  0  0  0  0  0  0  0  0
  -20.3412   19.5124  -22.6382 C   0  0  0  0  0  0  0  0  0  0  0  0
  -21.0412   19.9408  -23.7034 C   0  0  0  0  0  0  0  0  0  0  0  0
  -18.7576   11.3423  -18.2396 C   0  0  0  0  0  0  0  0  0  0  0  0
  -19.8867   11.5343  -17.4358 C   0  0  0  0  0  0  0  0  0  0  0  0
  -20.2338   10.5763  -16.5378 C   0  0  0  0  0  0  0  0  0  0  0  0
  -19.5054    9.3993  -16.3821 C   0  0  0  0  0  0  0  0  0  0  0  0
  -18.3988    9.2083  -17.1673 C   0  0  0  0  0  0  0  0  0  0  0  0
  -18.0465   10.1741  -18.0740 C   0  0  0  0  0  0  0  0  0  0  0  0
  -19.9458    8.4851  -15.4361 O   0  0  0  0  0  0  0  0  0  0  0  0
  -20.1424    8.8711  -14.1155 C   0  0  0  0  0  0  0  0  0  0  0  0
  -19.0924    9.2910  -13.3245 C   0  0  0  0  0  0  0  0  0  0  0  0
  -19.2967    9.6719  -12.0169 C   0  0  0  0  0  0  0  0  0  0  0  0
  -20.5641    9.6337  -11.4905 C   0  0  0  0  0  0  0  0  0  0  0  0
  -21.6116    9.2110  -12.2912 C   0  0  0  0  0  0  0  0  0  0  0  0
  -21.4182    8.8285  -13.5988 C   0  0  0  0  0  0  0  0  0  0  0  0
  1  2  1  0  0  0
  2  3  2  0  0  0
  3  4  1  0  0  0
  4  5  2  0  0  0
  5  6  1  0  0  0
  6  7  1  0  0  0
  7  8  1  0  0  0
  8  9  2  0  0  0
  9 23  1  0  0  0
 23 24  2  0  0  0
 24 25  1  0  0  0
 25 26  2  0  0  0
 26 29  1  0  0  0
 29 30  1  0  0  0
 30 31  2  0  0  0
 31 32  1  0  0  0
 32 33  2  0  0  0
 33 34  1  0  0  0
 34 35  2  0  0  0
 26 27  1  0  0  0
 27 28  2  0  0  0
  9 10  1  0  0  0
  7 13  1  0  0  0
 13 14  1  0  0  0
 14 15  1  0  0  0
 15 16  1  0  0  0
 16 17  1  0  0  0
 17 18  1  0  0  0
 17 19  1  0  0  0
 19 20  2  0  0  0
 19 21  1  0  0  0
 21 22  2  0  0  0
 10  2  1  0  0  0
 18 13  1  0  0  0
 10  6  2  0  0  0
 28 23  1  0  0  0
 35 30  1  0  0  0
  1 11  1  0  0  0
  1 12  1  0  0  0
M  END
> <minimizedAffinity>
-8.23280

> <CNNscore>
0.4679713845

> <CNNaffinity>
7.0192832947

> <CNN_VS>
3.2848236561

> <CNNaffinity_variance>
0.2553842962

$$$$
[H]C([H])=C([H])C(=O)N1C([H])([H])C([H])([H])C([H])([H])C([H])(n2nc(-c3c([H])c([H])c(Oc4c([H])c([H])c([H])c([H])c4[H])c([H])c3[H])c3c(N([H])[H])nc([H])nc32)C1([H])[H]


 35 39  0  0  0  0  0  0  0  0999 V2000
  -18.4485    9.0888  -17.3138 N   0  0  0  0  0  0  0  0  0  0  0  0
  -17.9559   10.0370  -18.2437 C   0  0  0  0  0  0  0  0  0  0  0  0
  -17.1257    9.6941  -19.2399 N   0  0  0  0  0  0  0  0  0  0  0  0
  -16.6586   10.5397  -20.1644 C   0  0  0  0  0  0  0  0  0  0  0  0
  -17.0531   11.8116  -20.0801 N   0  0  0  0  0  0  0  0  0  0  0  0
  -17.8771   12.2668  -19.1310 C   0  0  0  0  0  0  0  0  0  0  0  0
  -18.4048   13.4967  -18.8789 N   0  0  0  0  0  0  0  0  0  0  0  0
  -19.1655   13.3707  -17.8226 N   0  0  0  0  0  0  0  0  0  0  0  0
  -19.1595   12.0969  -17.3642 C   0  0  0  0  0  0  0  0  0  0  0  0
  -18.3572   11.3653  -18.1668 C   0  0  0  0  0  0  0  0  0  0  0  0
  -19.4478    8.7490  -17.3196 H   0  0  0  0  0  0  0  0  0  0  0  0
  -17.8370    8.6770  -16.5696 H   0  0  0  0  0  0  0  0  0  0  0  0
  -18.1163   14.6656  -19.6886 C   0  0  0  0  0  0  0  0  0  0  0  0
  -18.3966   15.9092  -18.9112 C   0  0  0  0  0  0  0  0  0  0  0  0
  -18.2469   17.1330  -19.7974 C   0  0  0  0  0  0  0  0  0  0  0  0
  -19.3303   16.9843  -20.8779 C   0  0  0  0  0  0  0  0  0  0  0  0
  -18.9375   15.8561  -21.6664 N   0  0  0  0  0  0  0  0  0  0  0  0
  -18.8919   14.5693  -20.9844 C   0  0  0  0  0  0  0  0  0  0  0  0
  -18.5939   15.9089  -23.0379 C   0  0  0  0  0  0  0  0  0  0  0  0
  -18.2565   14.8432  -23.6675 O   0  0  0  0  0  0  0  0  0  0  0  0
  -18.6162   17.1644  -23.7573 C   0  0  0  0  0  0  0  0  0  0  0  0
  -17.4568   17.8032  -23.9944 C   0  0  0  0  0  0  0  0  0  0  0  0
  -19.9271   11.6004  -16.2136 C   0  0  0  0  0  0  0  0  0  0  0  0
  -21.2441   11.1721  -16.4128 C   0  0  0  0  0  0  0  0  0  0  0  0
  -21.9807   10.7695  -15.3451 C   0  0  0  0  0  0  0  0  0  0  0  0
  -21.4746   10.7653  -14.0474 C   0  0  0  0  0  0  0  0  0  0  0  0
  -20.1854   11.1847  -13.8487 C   0  0  0  0  0  0  0  0  0  0  0  0
  -19.4404   11.5919  -14.9248 C   0  0  0  0  0  0  0  0  0  0  0  0
  -22.3105   10.3345  -13.0274 O   0  0  0  0  0  0  0  0  0  0  0  0
  -22.2270   10.8953  -11.7585 C   0  0  0  0  0  0  0  0  0  0  0  0
  -22.4289   12.2450  -11.5534 C   0  0  0  0  0  0  0  0  0  0  0  0
  -22.3442   12.7919  -10.2923 C   0  0  0  0  0  0  0  0  0  0  0  0
  -22.0545   11.9832   -9.2214 C   0  0  0  0  0  0  0  0  0  0  0  0
  -21.8533   10.6303   -9.4363 C   0  0  0  0  0  0  0  0  0  0  0  0
  -21.9357   10.0739  -10.6922 C   0  0  0  0  0  0  0  0  0  0  0  0
  1  2  1  0  0  0
  2  3  2  0  0  0
  3  4  1  0  0  0
  4  5  2  0  0  0
  5  6  1  0  0  0
  6  7  1  0  0  0
  7  8  1  0  0  0
  8  9  2  0  0  0
  9 23  1  0  0  0
 23 24  2  0  0  0
 24 25  1  0  0  0
 25 26  2  0  0  0
 26 29  1  0  0  0
 29 30  1  0  0  0
 30 31  2  0  0  0
 31 32  1  0  0  0
 32 33  2  0  0  0
 33 34  1  0  0  0
 34 35  2  0  0  0
 26 27  1  0  0  0
 27 28  2  0  0  0
  9 10  1  0  0  0
  7 13  1  0  0  0
 13 14  1  0  0  0
 14 15  1  0  0  0
 15 16  1  0  0  0
 16 17  1  0  0  0
 17 18  1  0  0  0
 17 19  1  0  0  0
 19 20  2  0  0  0
 19 21  1  0  0  0
 21 22  2  0  0  0
 10  2  1  0  0  0
 18 13  1  0  0  0
 10  6  2  0  0  0
 28 23  1  0  0  0
 35 30  1  0  0  0
  1 11  1  0  0  0
  1 12  1  0  0  0
M  END
> <minimizedAffinity>
-7.27219

> <CNNscore>
0.4633892179

> <CNNaffinity>
6.8267912865

> <CNN_VS>
3.1634614468

> <CNNaffinity_variance>
0.3170487881

$$$$
[H]c1nc2c([H])c(OC([H])([H])[H])c(S(=O)(=O)C(C([H])([H])[H])(C([H])([H])[H])C([H])([H])[H])c([H])n2c1C(=O)N([H])c1c([H])c([H])c([H])c([H])c1C([H])([H])[H]


 29 31  0  0  0  0  0  0  0  0999 V2000
  -18.8593   11.8746  -18.5822 C   0  0  0  0  0  0  0  0  0  0  0  0
  -17.9805   10.8247  -18.7120 C   0  0  0  0  0  0  0  0  0  0  0  0
  -17.1152   10.8277  -19.7923 C   0  0  0  0  0  0  0  0  0  0  0  0
  -16.1809    9.9208  -20.1597 N   0  0  0  0  0  0  0  0  0  0  0  0
  -15.5899   10.3137  -21.2754 C   0  0  0  0  0  0  0  0  0  0  0  0
  -16.1654   11.5418  -21.6587 C   0  0  0  0  0  0  0  0  0  0  0  0
  -17.0885   11.8100  -20.7264 N   0  0  0  0  0  0  0  0  0  0  0  0
  -17.9574   12.8444  -20.5967 C   0  0  0  0  0  0  0  0  0  0  0  0
  -18.8386   12.8579  -19.5102 C   0  0  0  0  0  0  0  0  0  0  0  0
  -15.7942   12.2737  -22.8647 C   0  0  0  0  0  0  0  0  0  0  0  0
  -14.6632   11.9430  -23.3609 O   0  0  0  0  0  0  0  0  0  0  0  0
  -16.5385   13.2738  -23.4990 N   0  0  0  0  0  0  0  0  0  0  0  0
  -17.4493   13.5614  -23.0130 H   0  0  0  0  0  0  0  0  0  0  0  0
  -16.2550   14.0054  -24.6602 C   0  0  0  0  0  0  0  0  0  0  0  0
  -15.3999   15.0691  -24.7015 C   0  0  0  0  0  0  0  0  0  0  0  0
  -15.1795   15.7352  -25.9060 C   0  0  0  0  0  0  0  0  0  0  0  0
  -15.7850   15.3736  -27.0709 C   0  0  0  0  0  0  0  0  0  0  0  0
  -16.6465   14.3067  -27.0438 C   0  0  0  0  0  0  0  0  0  0  0  0
  -16.8721   13.6433  -25.8670 C   0  0  0  0  0  0  0  0  0  0  0  0
  -17.8278   12.4832  -25.9073 C   0  0  0  0  0  0  0  0  0  0  0  0
  -19.8800   14.2518  -19.4006 S   0  0  0  0  0  0  0  0  0  0  0  0
  -19.8033   15.0816  -20.6711 O   0  0  0  0  0  0  0  0  0  0  0  0
  -21.3430   13.8156  -19.3353 O   0  0  0  0  0  0  0  0  0  0  0  0
  -19.5831   15.3239  -18.0673 C   0  0  0  0  0  0  0  0  0  0  0  0
  -20.7513   15.1793  -17.0812 C   0  0  0  0  0  0  0  0  0  0  0  0
  -19.5851   16.7939  -18.4799 C   0  0  0  0  0  0  0  0  0  0  0  0
  -18.3359   15.1148  -17.2728 C   0  0  0  0  0  0  0  0  0  0  0  0
  -19.9805   10.7504  -16.7216 C   0  0  0  0  0  0  0  0  0  0  0  0
  -19.7596   11.8948  -17.4888 O   0  0  0  0  0  0  0  0  0  0  0  0
 28 29  1  0  0  0
 29  1  1  0  0  0
  1  2  2  0  0  0
  2  3  1  0  0  0
  3  4  2  0  0  0
  4  5  1  0  0  0
  5  6  2  0  0  0
  6 10  1  0  0  0
 10 11  2  0  0  0
 10 12  1  0  0  0
 12 14  1  0  0  0
 14 15  2  0  0  0
 15 16  1  0  0  0
 16 17  2  0  0  0
 17 18  1  0  0  0
 18 19  2  0  0  0
 19 20  1  0  0  0
  6  7  1  0  0  0
  7  8  1  0  0  0
  8  9  2  0  0  0
  9 21  1  0  0  0
 21 22  2  0  0  0
 21 23  2  0  0  0
 21 24  1  0  0  0
 24 25  1  0  0  0
 24 26  1  0  0  0
 24 27  1  0  0  0
  9  1  1  0  0  0
  7  3  1  0  0  0
 19 14  1  0  0  0
 12 13  1  0  0  0
M  END
> <minimizedAffinity>
-9.08800

> <CNNscore>
0.9369528294

> <CNNaffinity>
7.4305639267

> <CNN_VS>
6.9620881081

> <CNNaffinity_variance>
0.0731716529

$$$$
[H]c1nc2c([H])c(OC([H])([H])[H])c(S(=O)(=O)C(C([H])([H])[H])(C([H])([H])[H])C([H])([H])[H])c([H])n2c1C(=O)N([H])c1c([H])c([H])c([H])c([H])c1C([H])([H])[H]


 29 31  0  0  0  0  0  0  0  0999 V2000
  -16.5323   13.4969  -23.3071 C   0  0  0  0  0  0  0  0  0  0  0  0
  -15.9542   12.2903  -22.9884 C   0  0  0  0  0  0  0  0  0  0  0  0
  -16.2906   11.7042  -21.7806 C   0  0  0  0  0  0  0  0  0  0  0  0
  -15.8577   10.5492  -21.2248 N   0  0  0  0  0  0  0  0  0  0  0  0
  -16.4283   10.3789  -20.0442 C   0  0  0  0  0  0  0  0  0  0  0  0
  -17.2800   11.4781  -19.8145 C   0  0  0  0  0  0  0  0  0  0  0  0
  -17.1592   12.2560  -20.8977 N   0  0  0  0  0  0  0  0  0  0  0  0
  -17.7274   13.4471  -21.2140 C   0  0  0  0  0  0  0  0  0  0  0  0
  -17.3994   14.0534  -22.4312 C   0  0  0  0  0  0  0  0  0  0  0  0
  -18.0603   11.6627  -18.5959 C   0  0  0  0  0  0  0  0  0  0  0  0
  -17.7976   12.7365  -17.9534 O   0  0  0  0  0  0  0  0  0  0  0  0
  -19.0315   10.7956  -18.0846 N   0  0  0  0  0  0  0  0  0  0  0  0
  -19.1733    9.8795  -18.6223 H   0  0  0  0  0  0  0  0  0  0  0  0
  -19.8264   10.9130  -16.9364 C   0  0  0  0  0  0  0  0  0  0  0  0
  -20.6753   11.9560  -16.7002 C   0  0  0  0  0  0  0  0  0  0  0  0
  -21.4282   11.9853  -15.5274 C   0  0  0  0  0  0  0  0  0  0  0  0
  -21.3613   11.0068  -14.5828 C   0  0  0  0  0  0  0  0  0  0  0  0
  -20.5125    9.9530  -14.8074 C   0  0  0  0  0  0  0  0  0  0  0  0
  -19.7669    9.9118  -15.9554 C   0  0  0  0  0  0  0  0  0  0  0  0
  -18.8569    8.7289  -16.1388 C   0  0  0  0  0  0  0  0  0  0  0  0
  -18.2183   15.5544  -22.7716 S   0  0  0  0  0  0  0  0  0  0  0  0
  -18.9072   15.4964  -24.1245 O   0  0  0  0  0  0  0  0  0  0  0  0
  -19.3654   15.7671  -21.7847 O   0  0  0  0  0  0  0  0  0  0  0  0
  -17.2311   16.9830  -22.7578 C   0  0  0  0  0  0  0  0  0  0  0  0
  -18.0303   18.0975  -22.0669 C   0  0  0  0  0  0  0  0  0  0  0  0
  -16.9360   17.5101  -24.1600 C   0  0  0  0  0  0  0  0  0  0  0  0
  -15.9164   16.9116  -22.0531 C   0  0  0  0  0  0  0  0  0  0  0  0
  -14.8747   14.3978  -24.8638 C   0  0  0  0  0  0  0  0  0  0  0  0
  -16.2022   14.1218  -24.5347 O   0  0  0  0  0  0  0  0  0  0  0  0
 28 29  1  0  0  0
 29  1  1  0  0  0
  1  2  2  0  0  0
  2  3  1  0  0  0
  3  4  2  0  0  0
  4  5  1  0  0  0
  5  6  2  0  0  0
  6 10  1  0  0  0
 10 11  2  0  0  0
 10 12  1  0  0  0
 12 14  1  0  0  0
 14 15  2  0  0  0
 15 16  1  0  0  0
 16 17  2  0  0  0
 17 18  1  0  0  0
 18 19  2  0  0  0
 19 20  1  0  0  0
  6  7  1  0  0  0
  7  8  1  0  0  0
  8  9  2  0  0  0
  9 21  1  0  0  0
 21 22  2  0  0  0
 21 23  2  0  0  0
 21 24  1  0  0  0
 24 25  1  0  0  0
 24 26  1  0  0  0
 24 27  1  0  0  0
  9  1  1  0  0  0
  7  3  1  0  0  0
 19 14  1  0  0  0
 12 13  1  0  0  0
M  END
> <minimizedAffinity>
-7.66686

> <CNNscore>
0.7554402351

> <CNNaffinity>
6.9360785484

> <CNN_VS>
5.2397928238

> <CNNaffinity_variance>
0.1173430085

$$$$
[H]c1nc2c([H])c(OC([H])([H])[H])c(S(=O)(=O)C(C([H])([H])[H])(C([H])([H])[H])C([H])([H])[H])c([H])n2c1C(=O)N([H])c1c([H])c([H])c([H])c([H])c1C([H])([H])[H]


 29 31  0  0  0  0  0  0  0  0999 V2000
  -17.2664   13.0571  -21.5476 C   0  0  0  0  0  0  0  0  0  0  0  0
  -16.8411   11.7836  -21.2497 C   0  0  0  0  0  0  0  0  0  0  0  0
  -17.3430   11.1774  -20.1113 C   0  0  0  0  0  0  0  0  0  0  0  0
  -17.0783    9.9585  -19.5872 N   0  0  0  0  0  0  0  0  0  0  0  0
  -17.7691    9.7908  -18.4722 C   0  0  0  0  0  0  0  0  0  0  0  0
  -18.5266   10.9592  -18.2546 C   0  0  0  0  0  0  0  0  0  0  0  0
  -18.2309   11.7721  -19.2768 N   0  0  0  0  0  0  0  0  0  0  0  0
  -18.6482   13.0292  -19.5723 C   0  0  0  0  0  0  0  0  0  0  0  0
  -18.1517   13.6568  -20.7197 C   0  0  0  0  0  0  0  0  0  0  0  0
  -19.3939   11.1639  -17.0997 C   0  0  0  0  0  0  0  0  0  0  0  0
  -19.4084   12.3609  -16.6506 O   0  0  0  0  0  0  0  0  0  0  0  0
  -20.1780   10.1980  -16.4603 N   0  0  0  0  0  0  0  0  0  0  0  0
  -20.0860    9.1970  -16.8318 H   0  0  0  0  0  0  0  0  0  0  0  0
  -21.0409   10.3230  -15.3632 C   0  0  0  0  0  0  0  0  0  0  0  0
  -22.2915   10.8664  -15.4350 C   0  0  0  0  0  0  0  0  0  0  0  0
  -23.0793   10.9471  -14.2878 C   0  0  0  0  0  0  0  0  0  0  0  0
  -22.6590   10.5028  -13.0711 C   0  0  0  0  0  0  0  0  0  0  0  0
  -21.4046    9.9546  -12.9847 C   0  0  0  0  0  0  0  0  0  0  0  0
  -20.6202    9.8692  -14.1042 C   0  0  0  0  0  0  0  0  0  0  0  0
  -19.2563    9.2579  -13.9396 C   0  0  0  0  0  0  0  0  0  0  0  0
  -18.7848   15.2486  -21.0431 S   0  0  0  0  0  0  0  0  0  0  0  0
  -18.8059   15.5257  -22.5369 O   0  0  0  0  0  0  0  0  0  0  0  0
  -20.2553   15.3263  -20.6350 O   0  0  0  0  0  0  0  0  0  0  0  0
  -17.9507   16.5704  -20.2864 C   0  0  0  0  0  0  0  0  0  0  0  0
  -16.4818   16.5126  -20.7304 C   0  0  0  0  0  0  0  0  0  0  0  0
  -17.9156   16.4524  -18.7646 C   0  0  0  0  0  0  0  0  0  0  0  0
  -18.4252   17.9540  -20.5873 C   0  0  0  0  0  0  0  0  0  0  0  0
  -16.6625   13.0225  -23.9175 C   0  0  0  0  0  0  0  0  0  0  0  0
  -16.7650   13.7035  -22.7040 O   0  0  0  0  0  0  0  0  0  0  0  0
 28 29  1  0  0  0
 29  1  1  0  0  0
  1  2  2  0  0  0
  2  3  1  0  0  0
  3  4  2  0  0  0
  4  5  1  0  0  0
  5  6  2  0  0  0
  6 10  1  0  0  0
 10 11  2  0  0  0
 10 12  1  0  0  0
 12 14  1  0  0  0
 14 15  2  0  0  0
 15 16  1  0  0  0
 16 17  2  0  0  0
 17 18  1  0  0  0
 18 19  2  0  0  0
 19 20  1  0  0  0
  6  7  1  0  0  0
  7  8  1  0  0  0
  8  9  2  0  0  0
  9 21  1  0  0  0
 21 22  2  0  0  0
 21 23  2  0  0  0
 21 24  1  0  0  0
 24 25  1  0  0  0
 24 26  1  0  0  0
 24 27  1  0  0  0
  9  1  1  0  0  0
  7  3  1  0  0  0
 19 14  1  0  0  0
 12 13  1  0  0  0
M  END
> <minimizedAffinity>
-6.81257

> <CNNscore>
0.7014335394

> <CNNaffinity>
6.6096558571

> <CNN_VS>
4.6362342834

> <CNNaffinity_variance>
0.0677344427

$$$$
[H]c1nc2c([H])c(OC([H])([H])[H])c(S(=O)(=O)C(C([H])([H])[H])(C([H])([H])[H])C([H])([H])[H])c([H])n2c1C(=O)N([H])c1c([H])c([H])c([H])c([H])c1C([H])([H])[H]


 29 31  0  0  0  0  0  0  0  0999 V2000
  -18.5890   12.5674  -18.1106 C   0  0  0  0  0  0  0  0  0  0  0  0
  -18.1247   11.3055  -18.3997 C   0  0  0  0  0  0  0  0  0  0  0  0
  -17.4198   11.1231  -19.5767 C   0  0  0  0  0  0  0  0  0  0  0  0
  -16.8798    9.9988  -20.1009 N   0  0  0  0  0  0  0  0  0  0  0  0
  -16.3067   10.2757  -21.2599 C   0  0  0  0  0  0  0  0  0  0  0  0
  -16.4787   11.6523  -21.5080 C   0  0  0  0  0  0  0  0  0  0  0  0
  -17.1630   12.1218  -20.4571 N   0  0  0  0  0  0  0  0  0  0  0  0
  -17.6231   13.3659  -20.1701 C   0  0  0  0  0  0  0  0  0  0  0  0
  -18.3369   13.5684  -18.9842 C   0  0  0  0  0  0  0  0  0  0  0  0
  -16.0087   12.3274  -22.7126 C   0  0  0  0  0  0  0  0  0  0  0  0
  -14.9411   11.8360  -23.2160 O   0  0  0  0  0  0  0  0  0  0  0  0
  -16.5999   13.4297  -23.3389 N   0  0  0  0  0  0  0  0  0  0  0  0
  -17.4562   13.8461  -22.8471 H   0  0  0  0  0  0  0  0  0  0  0  0
  -16.2166   14.1173  -24.4983 C   0  0  0  0  0  0  0  0  0  0  0  0
  -15.2674   15.0985  -24.5242 C   0  0  0  0  0  0  0  0  0  0  0  0
  -14.9515   15.7260  -25.7281 C   0  0  0  0  0  0  0  0  0  0  0  0
  -15.5523   15.4055  -26.9074 C   0  0  0  0  0  0  0  0  0  0  0  0
  -16.5077   14.4213  -26.8958 C   0  0  0  0  0  0  0  0  0  0  0  0
  -16.8277   13.7967  -25.7198 C   0  0  0  0  0  0  0  0  0  0  0  0
  -17.8833   12.7274  -25.7775 C   0  0  0  0  0  0  0  0  0  0  0  0
  -18.8420   15.2087  -18.6781 S   0  0  0  0  0  0  0  0  0  0  0  0
  -18.5290   15.6096  -17.2464 O   0  0  0  0  0  0  0  0  0  0  0  0
  -18.0180   16.1820  -19.5200 O   0  0  0  0  0  0  0  0  0  0  0  0
  -20.5212   15.5547  -18.9538 C   0  0  0  0  0  0  0  0  0  0  0  0
  -20.6110   16.9321  -19.6267 C   0  0  0  0  0  0  0  0  0  0  0  0
  -21.3170   15.6879  -17.6576 C   0  0  0  0  0  0  0  0  0  0  0  0
  -21.2906   14.6136  -19.8214 C   0  0  0  0  0  0  0  0  0  0  0  0
  -20.5378   12.1410  -16.6953 C   0  0  0  0  0  0  0  0  0  0  0  0
  -19.3179   12.7817  -16.9151 O   0  0  0  0  0  0  0  0  0  0  0  0
 28 29  1  0  0  0
 29  1  1  0  0  0
  1  2  2  0  0  0
  2  3  1  0  0  0
  3  4  2  0  0  0
  4  5  1  0  0  0
  5  6  2  0  0  0
  6 10  1  0  0  0
 10 11  2  0  0  0
 10 12  1  0  0  0
 12 14  1  0  0  0
 14 15  2  0  0  0
 15 16  1  0  0  0
 16 17  2  0  0  0
 17 18  1  0  0  0
 18 19  2  0  0  0
 19 20  1  0  0  0
  6  7  1  0  0  0
  7  8  1  0  0  0
  8  9  2  0  0  0
  9 21  1  0  0  0
 21 22  2  0  0  0
 21 23  2  0  0  0
 21 24  1  0  0  0
 24 25  1  0  0  0
 24 26  1  0  0  0
 24 27  1  0  0  0
  9  1  1  0  0  0
  7  3  1  0  0  0
 19 14  1  0  0  0
 12 13  1  0  0  0
M  END
> <minimizedAffinity>
-8.59134

> <CNNscore>
0.6730111241

> <CNNaffinity>
7.1896719933

> <CNN_VS>
4.8387293816

> <CNNaffinity_variance>
0.1777111888

$$$$
[H]c1nc2c([H])c(OC([H])([H])[H])c(S(=O)(=O)C(C([H])([H])[H])(C([H])([H])[H])C([H])([H])[H])c([H])n2c1C(=O)N([H])c1c([H])c([H])c([H])c([H])c1C([H])([H])[H]


 29 31  0  0  0  0  0  0  0  0999 V2000
  -16.9061   14.7408  -23.3432 C   0  0  0  0  0  0  0  0  0  0  0  0
  -16.1547   13.6313  -23.6529 C   0  0  0  0  0  0  0  0  0  0  0  0
  -16.1032   12.5999  -22.7315 C   0  0  0  0  0  0  0  0  0  0  0  0
  -15.4331   11.4255  -22.7783 N   0  0  0  0  0  0  0  0  0  0  0  0
  -15.6522   10.7404  -21.6687 C   0  0  0  0  0  0  0  0  0  0  0  0
  -16.5110   11.5042  -20.8530 C   0  0  0  0  0  0  0  0  0  0  0  0
  -16.7542   12.6261  -21.5424 N   0  0  0  0  0  0  0  0  0  0  0  0
  -17.4941   13.7225  -21.2386 C   0  0  0  0  0  0  0  0  0  0  0  0
  -17.5580   14.7741  -22.1589 C   0  0  0  0  0  0  0  0  0  0  0  0
  -16.9543   11.0910  -19.5261 C   0  0  0  0  0  0  0  0  0  0  0  0
  -16.0285   11.0475  -18.6453 O   0  0  0  0  0  0  0  0  0  0  0  0
  -18.2560   10.7448  -19.1487 N   0  0  0  0  0  0  0  0  0  0  0  0
  -18.9858   10.7353  -19.9334 H   0  0  0  0  0  0  0  0  0  0  0  0
  -18.7560   10.3552  -17.8988 C   0  0  0  0  0  0  0  0  0  0  0  0
  -18.5301    9.1324  -17.3348 C   0  0  0  0  0  0  0  0  0  0  0  0
  -19.0688    8.8356  -16.0839 C   0  0  0  0  0  0  0  0  0  0  0  0
  -19.8258    9.7202  -15.3776 C   0  0  0  0  0  0  0  0  0  0  0  0
  -20.0606   10.9525  -15.9325 C   0  0  0  0  0  0  0  0  0  0  0  0
  -19.5372   11.2571  -17.1609 C   0  0  0  0  0  0  0  0  0  0  0  0
  -19.8329   12.6248  -17.7112 C   0  0  0  0  0  0  0  0  0  0  0  0
  -18.5736   16.1156  -21.7025 S   0  0  0  0  0  0  0  0  0  0  0  0
  -19.3073   16.6705  -22.9117 O   0  0  0  0  0  0  0  0  0  0  0  0
  -19.6949   15.6405  -20.7794 O   0  0  0  0  0  0  0  0  0  0  0  0
  -17.7750   17.4494  -20.9287 C   0  0  0  0  0  0  0  0  0  0  0  0
  -18.3934   17.6197  -19.5335 C   0  0  0  0  0  0  0  0  0  0  0  0
  -18.0189   18.7774  -21.6414 C   0  0  0  0  0  0  0  0  0  0  0  0
  -16.2991   17.3504  -20.7236 C   0  0  0  0  0  0  0  0  0  0  0  0
  -15.9069   16.7030  -24.4081 C   0  0  0  0  0  0  0  0  0  0  0  0
  -16.9725   15.8136  -24.2658 O   0  0  0  0  0  0  0  0  0  0  0  0
 28 29  1  0  0  0
 29  1  1  0  0  0
  1  2  2  0  0  0
  2  3  1  0  0  0
  3  4  2  0  0  0
  4  5  1  0  0  0
  5  6  2  0  0  0
  6 10  1  0  0  0
 10 11  2  0  0  0
 10 12  1  0  0  0
 12 14  1  0  0  0
 14 15  2  0  0  0
 15 16  1  0  0  0
 16 17  2  0  0  0
 17 18  1  0  0  0
 18 19  2  0  0  0
 19 20  1  0  0  0
  6  7  1  0  0  0
  7  8  1  0  0  0
  8  9  2  0  0  0
  9 21  1  0  0  0
 21 22  2  0  0  0
 21 23  2  0  0  0
 21 24  1  0  0  0
 24 25  1  0  0  0
 24 26  1  0  0  0
 24 27  1  0  0  0
  9  1  1  0  0  0
  7  3  1  0  0  0
 19 14  1  0  0  0
 12 13  1  0  0  0
M  END
> <minimizedAffinity>
-7.54871

> <CNNscore>
0.6230376959

> <CNNaffinity>
7.0014457703

> <CNN_VS>
4.3621644974

> <CNNaffinity_variance>
0.0864962935

$$$$
[H]c1nc2c([H])c(OC([H])([H])[H])c(S(=O)(=O)C(C([H])([H])[H])(C([H])([H])[H])C([H])([H])[H])c([H])n2c1C(=O)N([H])c1c([H])c([H])c([H])c([H])c1C([H])([H])[H]


 29 31  0  0  0  0  0  0  0  0999 V2000
  -15.5096   15.2043  -24.3472 C   0  0  0  0  0  0  0  0  0  0  0  0
  -14.7669   14.0473  -24.3115 C   0  0  0  0  0  0  0  0  0  0  0  0
  -15.1730   13.0373  -23.4569 C   0  0  0  0  0  0  0  0  0  0  0  0
  -14.6190   11.8264  -23.2175 N   0  0  0  0  0  0  0  0  0  0  0  0
  -15.3283   11.1817  -22.3066 C   0  0  0  0  0  0  0  0  0  0  0  0
  -16.4032   12.0118  -21.9302 C   0  0  0  0  0  0  0  0  0  0  0  0
  -16.2630   13.1286  -22.6556 N   0  0  0  0  0  0  0  0  0  0  0  0
  -16.9936   14.2717  -22.6920 C   0  0  0  0  0  0  0  0  0  0  0  0
  -16.5980   15.3027  -23.5507 C   0  0  0  0  0  0  0  0  0  0  0  0
  -17.3905   11.6563  -20.9169 C   0  0  0  0  0  0  0  0  0  0  0  0
  -18.5750   11.4827  -21.3657 O   0  0  0  0  0  0  0  0  0  0  0  0
  -17.1632   11.5003  -19.5455 N   0  0  0  0  0  0  0  0  0  0  0  0
  -16.1700   11.7167  -19.2062 H   0  0  0  0  0  0  0  0  0  0  0  0
  -18.0526   11.1481  -18.5213 C   0  0  0  0  0  0  0  0  0  0  0  0
  -18.1995    9.8779  -18.0425 C   0  0  0  0  0  0  0  0  0  0  0  0
  -19.1105    9.6239  -17.0184 C   0  0  0  0  0  0  0  0  0  0  0  0
  -19.8798   10.5972  -16.4568 C   0  0  0  0  0  0  0  0  0  0  0  0
  -19.7423   11.8778  -16.9284 C   0  0  0  0  0  0  0  0  0  0  0  0
  -18.8509   12.1412  -17.9342 C   0  0  0  0  0  0  0  0  0  0  0  0
  -18.7501   13.5659  -18.4042 C   0  0  0  0  0  0  0  0  0  0  0  0
  -17.6274   16.7096  -23.5652 S   0  0  0  0  0  0  0  0  0  0  0  0
  -17.1130   17.7423  -24.5539 O   0  0  0  0  0  0  0  0  0  0  0  0
  -19.0119   16.3469  -24.1007 O   0  0  0  0  0  0  0  0  0  0  0  0
  -17.8393   17.5165  -22.0422 C   0  0  0  0  0  0  0  0  0  0  0  0
  -18.2378   18.9705  -22.3342 C   0  0  0  0  0  0  0  0  0  0  0  0
  -16.5449   17.6083  -21.2377 C   0  0  0  0  0  0  0  0  0  0  0  0
  -18.8736   16.9779  -21.1092 C   0  0  0  0  0  0  0  0  0  0  0  0
  -14.5922   15.9877  -26.4750 C   0  0  0  0  0  0  0  0  0  0  0  0
  -15.1140   16.2565  -25.2092 O   0  0  0  0  0  0  0  0  0  0  0  0
 28 29  1  0  0  0
 29  1  1  0  0  0
  1  2  2  0  0  0
  2  3  1  0  0  0
  3  4  2  0  0  0
  4  5  1  0  0  0
  5  6  2  0  0  0
  6 10  1  0  0  0
 10 11  2  0  0  0
 10 12  1  0  0  0
 12 14  1  0  0  0
 14 15  2  0  0  0
 15 16  1  0  0  0
 16 17  2  0  0  0
 17 18  1  0  0  0
 18 19  2  0  0  0
 19 20  1  0  0  0
  6  7  1  0  0  0
  7  8  1  0  0  0
  8  9  2  0  0  0
  9 21  1  0  0  0
 21 22  2  0  0  0
 21 23  2  0  0  0
 21 24  1  0  0  0
 24 25  1  0  0  0
 24 26  1  0  0  0
 24 27  1  0  0  0
  9  1  1  0  0  0
  7  3  1  0  0  0
 19 14  1  0  0  0
 12 13  1  0  0  0
M  END
> <minimizedAffinity>
-8.06937

> <CNNscore>
0.5989276767

> <CNNaffinity>
7.0257401466

> <CNN_VS>
4.2079100609

> <CNNaffinity_variance>
0.1007066742

$$$$
[H]c1nc2c([H])c(OC([H])([H])[H])c(S(=O)(=O)C(C([H])([H])[H])(C([H])([H])[H])C([H])([H])[H])c([H])n2c1C(=O)N([H])c1c([H])c([H])c([H])c([H])c1C([H])([H])[H]


 29 31  0  0  0  0  0  0  0  0999 V2000
  -18.4497   13.0895  -18.2471 C   0  0  0  0  0  0  0  0  0  0  0  0
  -17.9688   11.8173  -18.4518 C   0  0  0  0  0  0  0  0  0  0  0  0
  -17.3503   11.5397  -19.6584 C   0  0  0  0  0  0  0  0  0  0  0  0
  -16.8164   10.3836  -20.1155 N   0  0  0  0  0  0  0  0  0  0  0  0
  -16.3426   10.5615  -21.3371 C   0  0  0  0  0  0  0  0  0  0  0  0
  -16.5768   11.9032  -21.6993 C   0  0  0  0  0  0  0  0  0  0  0  0
  -17.1935   12.4549  -20.6465 N   0  0  0  0  0  0  0  0  0  0  0  0
  -17.6699   13.7092  -20.4425 C   0  0  0  0  0  0  0  0  0  0  0  0
  -18.2972   14.0075  -19.2282 C   0  0  0  0  0  0  0  0  0  0  0  0
  -16.2220   12.4704  -22.9955 C   0  0  0  0  0  0  0  0  0  0  0  0
  -15.0750   12.1160  -23.4356 O   0  0  0  0  0  0  0  0  0  0  0  0
  -16.9970   13.3416  -23.7682 N   0  0  0  0  0  0  0  0  0  0  0  0
  -17.9223   13.6603  -23.3315 H   0  0  0  0  0  0  0  0  0  0  0  0
  -16.7302   13.9115  -25.0204 C   0  0  0  0  0  0  0  0  0  0  0  0
  -17.1293   13.3662  -26.2069 C   0  0  0  0  0  0  0  0  0  0  0  0
  -16.8178   14.0080  -27.4045 C   0  0  0  0  0  0  0  0  0  0  0  0
  -16.1209   15.1768  -27.4561 C   0  0  0  0  0  0  0  0  0  0  0  0
  -15.7139   15.7356  -26.2714 C   0  0  0  0  0  0  0  0  0  0  0  0
  -16.0132   15.1155  -25.0875 C   0  0  0  0  0  0  0  0  0  0  0  0
  -15.5371   15.7814  -23.8263 C   0  0  0  0  0  0  0  0  0  0  0  0
  -18.8295   15.6568  -19.0390 S   0  0  0  0  0  0  0  0  0  0  0  0
  -18.3995   16.2094  -17.6906 O   0  0  0  0  0  0  0  0  0  0  0  0
  -18.1221   16.5603  -20.0481 O   0  0  0  0  0  0  0  0  0  0  0  0
  -20.5382   15.9292  -19.1854 C   0  0  0  0  0  0  0  0  0  0  0  0
  -21.0995   16.1510  -17.7734 C   0  0  0  0  0  0  0  0  0  0  0  0
  -21.2854   14.7136  -19.7285 C   0  0  0  0  0  0  0  0  0  0  0  0
  -20.9878   17.0954  -20.0029 C   0  0  0  0  0  0  0  0  0  0  0  0
  -19.9874   12.5052  -16.4369 C   0  0  0  0  0  0  0  0  0  0  0  0
  -19.0917   13.4000  -17.0232 O   0  0  0  0  0  0  0  0  0  0  0  0
 28 29  1  0  0  0
 29  1  1  0  0  0
  1  2  2  0  0  0
  2  3  1  0  0  0
  3  4  2  0  0  0
  4  5  1  0  0  0
  5  6  2  0  0  0
  6 10  1  0  0  0
 10 11  2  0  0  0
 10 12  1  0  0  0
 12 14  1  0  0  0
 14 15  2  0  0  0
 15 16  1  0  0  0
 16 17  2  0  0  0
 17 18  1  0  0  0
 18 19  2  0  0  0
 19 20  1  0  0  0
  6  7  1  0  0  0
  7  8  1  0  0  0
  8  9  2  0  0  0
  9 21  1  0  0  0
 21 22  2  0  0  0
 21 23  2  0  0  0
 21 24  1  0  0  0
 24 25  1  0  0  0
 24 26  1  0  0  0
 24 27  1  0  0  0
  9  1  1  0  0  0
  7  3  1  0  0  0
 19 14  1  0  0  0
 12 13  1  0  0  0
M  END
> <minimizedAffinity>
-8.41769

> <CNNscore>
0.5619881749

> <CNNaffinity>
7.1071686745

> <CNN_VS>
3.9941446781

> <CNNaffinity_variance>
0.2151530683

$$$$
[H]c1nc2c([H])c(OC([H])([H])[H])c(S(=O)(=O)C(C([H])([H])[H])(C([H])([H])[H])C([H])([H])[H])c([H])n2c1C(=O)N([H])c1c([H])c([H])c([H])c([H])c1C([H])([H])[H]


 29 31  0  0  0  0  0  0  0  0999 V2000
  -19.5923   12.7189  -17.9864 C   0  0  0  0  0  0  0  0  0  0  0  0
  -18.8286   11.5921  -18.1823 C   0  0  0  0  0  0  0  0  0  0  0  0
  -18.0326   11.5316  -19.3129 C   0  0  0  0  0  0  0  0  0  0  0  0
  -17.2139   10.5461  -19.7476 N   0  0  0  0  0  0  0  0  0  0  0  0
  -16.6547   10.9008  -20.8922 C   0  0  0  0  0  0  0  0  0  0  0  0
  -17.1302   12.1852  -21.2245 C   0  0  0  0  0  0  0  0  0  0  0  0
  -17.9661   12.5237  -20.2348 N   0  0  0  0  0  0  0  0  0  0  0  0
  -18.7215   13.6341  -20.0397 C   0  0  0  0  0  0  0  0  0  0  0  0
  -19.5314   13.7124  -18.9017 C   0  0  0  0  0  0  0  0  0  0  0  0
  -16.7619   12.8999  -22.4416 C   0  0  0  0  0  0  0  0  0  0  0  0
  -17.4083   12.5422  -23.4852 O   0  0  0  0  0  0  0  0  0  0  0  0
  -15.7937   13.9021  -22.5631 N   0  0  0  0  0  0  0  0  0  0  0  0
  -15.2342   14.1249  -21.6766 H   0  0  0  0  0  0  0  0  0  0  0  0
  -15.3987   14.6388  -23.6880 C   0  0  0  0  0  0  0  0  0  0  0  0
  -14.5701   14.1587  -24.6613 C   0  0  0  0  0  0  0  0  0  0  0  0
  -14.2337   14.9668  -25.7461 C   0  0  0  0  0  0  0  0  0  0  0  0
  -14.6978   16.2388  -25.8909 C   0  0  0  0  0  0  0  0  0  0  0  0
  -15.5311   16.7338  -24.9204 C   0  0  0  0  0  0  0  0  0  0  0  0
  -15.8697   15.9504  -23.8492 C   0  0  0  0  0  0  0  0  0  0  0  0
  -16.7866   16.5544  -22.8218 C   0  0  0  0  0  0  0  0  0  0  0  0
  -20.4246   15.1976  -18.7118 S   0  0  0  0  0  0  0  0  0  0  0  0
  -20.6045   15.8919  -20.0512 O   0  0  0  0  0  0  0  0  0  0  0  0
  -21.8532   14.9016  -18.2574 O   0  0  0  0  0  0  0  0  0  0  0  0
  -19.7467   16.3615  -17.6159 C   0  0  0  0  0  0  0  0  0  0  0  0
  -18.2785   15.9799  -17.3771 C   0  0  0  0  0  0  0  0  0  0  0  0
  -20.4009   16.3249  -16.2369 C   0  0  0  0  0  0  0  0  0  0  0  0
  -19.7438   17.7938  -18.0389 C   0  0  0  0  0  0  0  0  0  0  0  0
  -20.1286   12.0728  -15.6891 C   0  0  0  0  0  0  0  0  0  0  0  0
  -20.4202   12.8054  -16.8402 O   0  0  0  0  0  0  0  0  0  0  0  0
 28 29  1  0  0  0
 29  1  1  0  0  0
  1  2  2  0  0  0
  2  3  1  0  0  0
  3  4  2  0  0  0
  4  5  1  0  0  0
  5  6  2  0  0  0
  6 10  1  0  0  0
 10 11  2  0  0  0
 10 12  1  0  0  0
 12 14  1  0  0  0
 14 15  2  0  0  0
 15 16  1  0  0  0
 16 17  2  0  0  0
 17 18  1  0  0  0
 18 19  2  0  0  0
 19 20  1  0  0  0
  6  7  1  0  0  0
  7  8  1  0  0  0
  8  9  2  0  0  0
  9 21  1  0  0  0
 21 22  2  0  0  0
 21 23  2  0  0  0
 21 24  1  0  0  0
 24 25  1  0  0  0
 24 26  1  0  0  0
 24 27  1  0  0  0
  9  1  1  0  0  0
  7  3  1  0  0  0
 19 14  1  0  0  0
 12 13  1  0  0  0
M  END
> <minimizedAffinity>
-7.39289

> <CNNscore>
0.4947481751

> <CNNaffinity>
6.8220224380

> <CNN_VS>
3.3751831055

> <CNNaffinity_variance>
0.1548630446

$$$$
[H]c1nc2c([H])c(OC([H])([H])[H])c(S(=O)(=O)C(C([H])([H])[H])(C([H])([H])[H])C([H])([H])[H])c([H])n2c1C(=O)N([H])c1c([H])c([H])c([H])c([H])c1C([H])([H])[H]


 29 31  0  0  0  0  0  0  0  0999 V2000
  -19.8539   13.8699  -19.1145 C   0  0  0  0  0  0  0  0  0  0  0  0
  -19.1731   12.6802  -19.0010 C   0  0  0  0  0  0  0  0  0  0  0  0
  -18.2942   12.3322  -20.0119 C   0  0  0  0  0  0  0  0  0  0  0  0
  -17.5274   11.2267  -20.1543 N   0  0  0  0  0  0  0  0  0  0  0  0
  -16.8479   11.2959  -21.2866 C   0  0  0  0  0  0  0  0  0  0  0  0
  -17.1856   12.5095  -21.9185 C   0  0  0  0  0  0  0  0  0  0  0  0
  -18.0693   13.1018  -21.1054 N   0  0  0  0  0  0  0  0  0  0  0  0
  -18.7431   14.2747  -21.2155 C   0  0  0  0  0  0  0  0  0  0  0  0
  -19.6349   14.6426  -20.2025 C   0  0  0  0  0  0  0  0  0  0  0  0
  -16.6596   12.9270  -23.2135 C   0  0  0  0  0  0  0  0  0  0  0  0
  -15.5776   12.3418  -23.5622 O   0  0  0  0  0  0  0  0  0  0  0  0
  -17.2130   13.8817  -24.0731 N   0  0  0  0  0  0  0  0  0  0  0  0
  -18.0841   14.3906  -23.7118 H   0  0  0  0  0  0  0  0  0  0  0  0
  -16.7753   14.3207  -25.3300 C   0  0  0  0  0  0  0  0  0  0  0  0
  -17.1329   13.7335  -26.5097 C   0  0  0  0  0  0  0  0  0  0  0  0
  -16.6472   14.2429  -27.7130 C   0  0  0  0  0  0  0  0  0  0  0  0
  -15.8161   15.3196  -27.7767 C   0  0  0  0  0  0  0  0  0  0  0  0
  -15.4488   15.9192  -26.5990 C   0  0  0  0  0  0  0  0  0  0  0  0
  -15.9187   15.4289  -25.4097 C   0  0  0  0  0  0  0  0  0  0  0  0
  -15.4771   16.1328  -24.1565 C   0  0  0  0  0  0  0  0  0  0  0  0
  -20.4138   16.1887  -20.4075 S   0  0  0  0  0  0  0  0  0  0  0  0
  -20.0950   16.7747  -21.7727 O   0  0  0  0  0  0  0  0  0  0  0  0
  -21.9322   16.0180  -20.4272 O   0  0  0  0  0  0  0  0  0  0  0  0
  -20.0287   17.4006  -19.2250 C   0  0  0  0  0  0  0  0  0  0  0  0
  -19.8928   18.7433  -19.9577 C   0  0  0  0  0  0  0  0  0  0  0  0
  -18.6744   17.1670  -18.5598 C   0  0  0  0  0  0  0  0  0  0  0  0
  -21.0049   17.6247  -18.1173 C   0  0  0  0  0  0  0  0  0  0  0  0
  -20.5387   13.8930  -16.7666 C   0  0  0  0  0  0  0  0  0  0  0  0
  -20.7635   14.2487  -18.0969 O   0  0  0  0  0  0  0  0  0  0  0  0
 28 29  1  0  0  0
 29  1  1  0  0  0
  1  2  2  0  0  0
  2  3  1  0  0  0
  3  4  2  0  0  0
  4  5  1  0  0  0
  5  6  2  0  0  0
  6 10  1  0  0  0
 10 11  2  0  0  0
 10 12  1  0  0  0
 12 14  1  0  0  0
 14 15  2  0  0  0
 15 16  1  0  0  0
 16 17  2  0  0  0
 17 18  1  0  0  0
 18 19  2  0  0  0
 19 20  1  0  0  0
  6  7  1  0  0  0
  7  8  1  0  0  0
  8  9  2  0  0  0
  9 21  1  0  0  0
 21 22  2  0  0  0
 21 23  2  0  0  0
 21 24  1  0  0  0
 24 25  1  0  0  0
 24 26  1  0  0  0
 24 27  1  0  0  0
  9  1  1  0  0  0
  7  3  1  0  0  0
 19 14  1  0  0  0
 12 13  1  0  0  0
M  END
> <minimizedAffinity>
-8.05640

> <CNNscore>
0.4652502239

> <CNNaffinity>
6.8786711693

> <CNN_VS>
3.2003033161

> <CNNaffinity_variance>
0.2621822655

$$$$
[H]c1nc(N([H])C([H])([H])C([H])([H])C([H])([H])N2C([H])([H])C([H])([H])N(C([H])([H])[H])C([H])([H])C2([H])[H])c([H])c(-n2c(N([H])c3c([H])c(C(=O)N([H])c4c([H])c([H])c([H])c(C(F)(F)F)c4[H])c([H])c([H])c3C([H])([H])[H])nc3c([H])c([H])c([H])c([H])c32)n1


 50 55  0  0  0  0  0  0  0  0999 V2000
  -17.2501   13.4200  -21.9768 N   0  0  0  0  0  0  0  0  0  0  0  0
  -17.4546   14.6562  -21.4134 C   0  0  0  0  0  0  0  0  0  0  0  0
  -17.5228   15.5167  -22.4195 N   0  0  0  0  0  0  0  0  0  0  0  0
  -17.3732   14.8671  -23.6024 C   0  0  0  0  0  0  0  0  0  0  0  0
  -17.3833   15.3530  -24.8867 C   0  0  0  0  0  0  0  0  0  0  0  0
  -17.2103   14.4429  -25.9314 C   0  0  0  0  0  0  0  0  0  0  0  0
  -17.0367   13.1072  -25.6314 C   0  0  0  0  0  0  0  0  0  0  0  0
  -17.0247   12.6173  -24.3551 C   0  0  0  0  0  0  0  0  0  0  0  0
  -17.1987   13.5177  -23.3050 C   0  0  0  0  0  0  0  0  0  0  0  0
  -17.2920   10.8370  -19.3060 C   0  0  0  0  0  0  0  0  0  0  0  0
  -17.5977   11.9992  -19.9693 C   0  0  0  0  0  0  0  0  0  0  0  0
  -17.0150   12.2998  -21.1662 C   0  0  0  0  0  0  0  0  0  0  0  0
  -16.1163   11.3721  -21.6475 N   0  0  0  0  0  0  0  0  0  0  0  0
  -15.7946   10.2501  -21.0428 C   0  0  0  0  0  0  0  0  0  0  0  0
  -16.3732    9.9664  -19.8670 N   0  0  0  0  0  0  0  0  0  0  0  0
  -17.9112   10.4319  -18.1342 N   0  0  0  0  0  0  0  0  0  0  0  0
  -17.9741   11.1961  -17.3619 H   0  0  0  0  0  0  0  0  0  0  0  0
  -18.5032    9.1940  -17.7588 C   0  0  0  0  0  0  0  0  0  0  0  0
  -19.3417    9.5093  -16.5071 C   0  0  0  0  0  0  0  0  0  0  0  0
  -19.0533    8.6094  -15.3470 C   0  0  0  0  0  0  0  0  0  0  0  0
  -21.2587   11.6420  -11.6772 C   0  0  0  0  0  0  0  0  0  0  0  0
  -20.8011   11.4214  -13.0306 N   0  0  0  0  0  0  0  0  0  0  0  0
  -19.4403   10.9599  -13.0764 C   0  0  0  0  0  0  0  0  0  0  0  0
  -19.4097    9.4521  -13.0975 C   0  0  0  0  0  0  0  0  0  0  0  0
  -19.9754    8.9088  -14.2762 N   0  0  0  0  0  0  0  0  0  0  0  0
  -20.9913    9.7991  -14.8294 C   0  0  0  0  0  0  0  0  0  0  0  0
  -21.6984   10.5661  -13.7587 C   0  0  0  0  0  0  0  0  0  0  0  0
  -17.7132   14.9079  -20.0284 N   0  0  0  0  0  0  0  0  0  0  0  0
  -16.9288   14.7519  -19.3537 H   0  0  0  0  0  0  0  0  0  0  0  0
  -18.9328   15.3227  -19.4864 C   0  0  0  0  0  0  0  0  0  0  0  0
  -19.7523   16.0988  -20.2966 C   0  0  0  0  0  0  0  0  0  0  0  0
  -20.9112   16.6889  -19.7710 C   0  0  0  0  0  0  0  0  0  0  0  0
  -21.2257   16.4906  -18.4798 C   0  0  0  0  0  0  0  0  0  0  0  0
  -20.4166   15.7120  -17.6536 C   0  0  0  0  0  0  0  0  0  0  0  0
  -19.2661   15.1369  -18.1888 C   0  0  0  0  0  0  0  0  0  0  0  0
  -18.4427   14.3283  -17.2435 C   0  0  0  0  0  0  0  0  0  0  0  0
  -21.6282   17.5932  -20.7125 C   0  0  0  0  0  0  0  0  0  0  0  0
  -22.7925   17.9257  -20.4327 O   0  0  0  0  0  0  0  0  0  0  0  0
  -20.9495   18.0016  -21.8564 N   0  0  0  0  0  0  0  0  0  0  0  0
  -19.9218   17.6401  -21.9293 H   0  0  0  0  0  0  0  0  0  0  0  0
  -21.3452   18.8017  -22.9324 C   0  0  0  0  0  0  0  0  0  0  0  0
  -20.7326   20.0576  -23.1352 C   0  0  0  0  0  0  0  0  0  0  0  0
  -21.0652   20.8431  -24.1972 C   0  0  0  0  0  0  0  0  0  0  0  0
  -22.0212   20.4459  -25.1198 C   0  0  0  0  0  0  0  0  0  0  0  0
  -22.6304   19.2160  -24.9304 C   0  0  0  0  0  0  0  0  0  0  0  0
  -22.2829   18.4210  -23.8482 C   0  0  0  0  0  0  0  0  0  0  0  0
  -23.6526   18.7774  -25.9224 C   0  0  0  0  0  0  0  0  0  0  0  0
  -23.2205   19.1725  -27.1966 F   0  0  0  0  0  0  0  0  0  0  0  0
  -24.8528   19.4070  -25.6199 F   0  0  0  0  0  0  0  0  0  0  0  0
  -23.8576   17.4279  -25.8781 F   0  0  0  0  0  0  0  0  0  0  0  0
 21 22  1  0  0  0
 22 23  1  0  0  0
 23 24  1  0  0  0
 24 25  1  0  0  0
 25 20  1  0  0  0
 20 19  1  0  0  0
 19 18  1  0  0  0
 18 16  1  0  0  0
 16 10  1  0  0  0
 10 11  2  0  0  0
 11 12  1  0  0  0
 12 13  2  0  0  0
 13 14  1  0  0  0
 14 15  2  0  0  0
 12  1  1  0  0  0
  1  2  1  0  0  0
  2 28  1  0  0  0
 28 30  1  0  0  0
 30 31  2  0  0  0
 31 32  1  0  0  0
 32 33  2  0  0  0
 33 34  1  0  0  0
 34 35  2  0  0  0
 35 36  1  0  0  0
 32 37  1  0  0  0
 37 38  2  0  0  0
 37 39  1  0  0  0
 39 41  1  0  0  0
 41 42  2  0  0  0
 42 43  1  0  0  0
 43 44  2  0  0  0
 44 45  1  0  0  0
 45 46  2  0  0  0
 45 47  1  0  0  0
 47 48  1  0  0  0
 47 49  1  0  0  0
 47 50  1  0  0  0
  2  3  2  0  0  0
  3  4  1  0  0  0
  4  5  2  0  0  0
  5  6  1  0  0  0
  6  7  2  0  0  0
  7  8  1  0  0  0
  8  9  2  0  0  0
 25 26  1  0  0  0
 26 27  1  0  0  0
 27 22  1  0  0  0
 15 10  1  0  0  0
  9  1  1  0  0  0
 35 30  1  0  0  0
 46 41  1  0  0  0
  9  4  1  0  0  0
 16 17  1  0  0  0
 28 29  1  0  0  0
 39 40  1  0  0  0
M  END
> <minimizedAffinity>
-9.95096

> <CNNscore>
0.7487830520

> <CNNaffinity>
8.2306709290

> <CNN_VS>
6.1629867554

> <CNNaffinity_variance>
0.0673063248

$$$$
[H]c1nc(N([H])C([H])([H])C([H])([H])C([H])([H])N2C([H])([H])C([H])([H])N(C([H])([H])[H])C([H])([H])C2([H])[H])c([H])c(-n2c(N([H])c3c([H])c(C(=O)N([H])c4c([H])c([H])c([H])c(C(F)(F)F)c4[H])c([H])c([H])c3C([H])([H])[H])nc3c([H])c([H])c([H])c([H])c32)n1


 50 55  0  0  0  0  0  0  0  0999 V2000
  -18.8387   11.9086  -18.7309 N   0  0  0  0  0  0  0  0  0  0  0  0
  -19.5550   13.0793  -18.6706 C   0  0  0  0  0  0  0  0  0  0  0  0
  -20.4055   12.9434  -17.6628 N   0  0  0  0  0  0  0  0  0  0  0  0
  -20.2494   11.7275  -17.0790 C   0  0  0  0  0  0  0  0  0  0  0  0
  -20.9043   11.1685  -16.0093 C   0  0  0  0  0  0  0  0  0  0  0  0
  -20.5291    9.8837  -15.6117 C   0  0  0  0  0  0  0  0  0  0  0  0
  -19.5270    9.2362  -16.3051 C   0  0  0  0  0  0  0  0  0  0  0  0
  -18.8719    9.7867  -17.3714 C   0  0  0  0  0  0  0  0  0  0  0  0
  -19.2378   11.0701  -17.7748 C   0  0  0  0  0  0  0  0  0  0  0  0
  -16.9486   11.9511  -21.9297 C   0  0  0  0  0  0  0  0  0  0  0  0
  -17.9375   12.2379  -21.0220 C   0  0  0  0  0  0  0  0  0  0  0  0
  -17.9278   11.6859  -19.7739 C   0  0  0  0  0  0  0  0  0  0  0  0
  -16.8767   10.8373  -19.4996 N   0  0  0  0  0  0  0  0  0  0  0  0
  -15.9127   10.5352  -20.3407 C   0  0  0  0  0  0  0  0  0  0  0  0
  -15.9337   11.0833  -21.5642 N   0  0  0  0  0  0  0  0  0  0  0  0
  -16.8525   12.5442  -23.1786 N   0  0  0  0  0  0  0  0  0  0  0  0
  -17.7842   12.5838  -23.7395 H   0  0  0  0  0  0  0  0  0  0  0  0
  -15.7525   13.1342  -23.8610 C   0  0  0  0  0  0  0  0  0  0  0  0
  -16.3807   14.0867  -24.8941 C   0  0  0  0  0  0  0  0  0  0  0  0
  -17.8671   14.2094  -24.7740 C   0  0  0  0  0  0  0  0  0  0  0  0
  -17.4073   18.2421  -21.4492 C   0  0  0  0  0  0  0  0  0  0  0  0
  -16.8272   17.2638  -22.3415 N   0  0  0  0  0  0  0  0  0  0  0  0
  -17.2542   15.9259  -22.0339 C   0  0  0  0  0  0  0  0  0  0  0  0
  -18.4682   15.5724  -22.8561 C   0  0  0  0  0  0  0  0  0  0  0  0
  -18.1922   15.5129  -24.2435 N   0  0  0  0  0  0  0  0  0  0  0  0
  -17.0892   16.4009  -24.5978 C   0  0  0  0  0  0  0  0  0  0  0  0
  -17.0471   17.6099  -23.7195 C   0  0  0  0  0  0  0  0  0  0  0  0
  -19.2929   14.2567  -19.4409 N   0  0  0  0  0  0  0  0  0  0  0  0
  -18.8077   14.1355  -20.3600 H   0  0  0  0  0  0  0  0  0  0  0  0
  -19.6058   15.5662  -19.0655 C   0  0  0  0  0  0  0  0  0  0  0  0
  -20.4395   16.2840  -19.9141 C   0  0  0  0  0  0  0  0  0  0  0  0
  -20.6653   17.6506  -19.6930 C   0  0  0  0  0  0  0  0  0  0  0  0
  -20.0749   18.2571  -18.6494 C   0  0  0  0  0  0  0  0  0  0  0  0
  -19.2384   17.5512  -17.7861 C   0  0  0  0  0  0  0  0  0  0  0  0
  -19.0196   16.1957  -18.0218 C   0  0  0  0  0  0  0  0  0  0  0  0
  -18.1035   15.5086  -17.0656 C   0  0  0  0  0  0  0  0  0  0  0  0
  -21.4765   18.3231  -20.7456 C   0  0  0  0  0  0  0  0  0  0  0  0
  -22.6921   18.4780  -20.5383 O   0  0  0  0  0  0  0  0  0  0  0  0
  -20.8209   18.7275  -21.9043 N   0  0  0  0  0  0  0  0  0  0  0  0
  -19.7450   18.5412  -21.9071 H   0  0  0  0  0  0  0  0  0  0  0  0
  -21.2917   19.3395  -23.0697 C   0  0  0  0  0  0  0  0  0  0  0  0
  -20.7482   20.5759  -23.4815 C   0  0  0  0  0  0  0  0  0  0  0  0
  -21.1550   21.1782  -24.6335 C   0  0  0  0  0  0  0  0  0  0  0  0
  -22.1218   20.6065  -25.4468 C   0  0  0  0  0  0  0  0  0  0  0  0
  -22.6636   19.3940  -25.0522 C   0  0  0  0  0  0  0  0  0  0  0  0
  -22.2409   18.7859  -23.8794 C   0  0  0  0  0  0  0  0  0  0  0  0
  -23.6969   18.7681  -25.9252 C   0  0  0  0  0  0  0  0  0  0  0  0
  -23.3545   19.0277  -27.2600 F   0  0  0  0  0  0  0  0  0  0  0  0
  -24.9239   19.3504  -25.6357 F   0  0  0  0  0  0  0  0  0  0  0  0
  -23.8019   17.4243  -25.7052 F   0  0  0  0  0  0  0  0  0  0  0  0
 21 22  1  0  0  0
 22 23  1  0  0  0
 23 24  1  0  0  0
 24 25  1  0  0  0
 25 20  1  0  0  0
 20 19  1  0  0  0
 19 18  1  0  0  0
 18 16  1  0  0  0
 16 10  1  0  0  0
 10 11  2  0  0  0
 11 12  1  0  0  0
 12 13  2  0  0  0
 13 14  1  0  0  0
 14 15  2  0  0  0
 12  1  1  0  0  0
  1  2  1  0  0  0
  2 28  1  0  0  0
 28 30  1  0  0  0
 30 31  2  0  0  0
 31 32  1  0  0  0
 32 33  2  0  0  0
 33 34  1  0  0  0
 34 35  2  0  0  0
 35 36  1  0  0  0
 32 37  1  0  0  0
 37 38  2  0  0  0
 37 39  1  0  0  0
 39 41  1  0  0  0
 41 42  2  0  0  0
 42 43  1  0  0  0
 43 44  2  0  0  0
 44 45  1  0  0  0
 45 46  2  0  0  0
 45 47  1  0  0  0
 47 48  1  0  0  0
 47 49  1  0  0  0
 47 50  1  0  0  0
  2  3  2  0  0  0
  3  4  1  0  0  0
  4  5  2  0  0  0
  5  6  1  0  0  0
  6  7  2  0  0  0
  7  8  1  0  0  0
  8  9  2  0  0  0
 25 26  1  0  0  0
 26 27  1  0  0  0
 27 22  1  0  0  0
 15 10  1  0  0  0
  9  1  1  0  0  0
 35 30  1  0  0  0
 46 41  1  0  0  0
  9  4  1  0  0  0
 16 17  1  0  0  0
 28 29  1  0  0  0
 39 40  1  0  0  0
M  END
> <minimizedAffinity>
-9.72880

> <CNNscore>
0.2883778811

> <CNNaffinity>
8.0716896057

> <CNN_VS>
2.3276968002

> <CNNaffinity_variance>
0.1926200092

$$$$
[H]c1nc(N([H])C([H])([H])C([H])([H])C([H])([H])N2C([H])([H])C([H])([H])N(C([H])([H])[H])C([H])([H])C2([H])[H])c([H])c(-n2c(N([H])c3c([H])c(C(=O)N([H])c4c([H])c([H])c([H])c(C(F)(F)F)c4[H])c([H])c([H])c3C([H])([H])[H])nc3c([H])c([H])c([H])c([H])c32)n1


 50 55  0  0  0  0  0  0  0  0999 V2000
  -16.9394   13.5724  -22.4409 N   0  0  0  0  0  0  0  0  0  0  0  0
  -16.6228   14.8506  -22.0493 C   0  0  0  0  0  0  0  0  0  0  0  0
  -16.5366   15.5692  -23.1600 N   0  0  0  0  0  0  0  0  0  0  0  0
  -16.7925   14.7906  -24.2426 C   0  0  0  0  0  0  0  0  0  0  0  0
  -16.8213   15.1121  -25.5773 C   0  0  0  0  0  0  0  0  0  0  0  0
  -17.1249   14.0979  -26.4877 C   0  0  0  0  0  0  0  0  0  0  0  0
  -17.3790   12.8277  -26.0119 C   0  0  0  0  0  0  0  0  0  0  0  0
  -17.3509   12.5010  -24.6846 C   0  0  0  0  0  0  0  0  0  0  0  0
  -17.0508   13.5072  -23.7674 C   0  0  0  0  0  0  0  0  0  0  0  0
  -17.7924   11.3029  -19.6252 C   0  0  0  0  0  0  0  0  0  0  0  0
  -17.8400   12.4050  -20.4420 C   0  0  0  0  0  0  0  0  0  0  0  0
  -16.9883   12.5328  -21.5007 C   0  0  0  0  0  0  0  0  0  0  0  0
  -16.0965   11.4978  -21.6836 N   0  0  0  0  0  0  0  0  0  0  0  0
  -16.0171   10.4281  -20.9237 C   0  0  0  0  0  0  0  0  0  0  0  0
  -16.8587   10.3144  -19.8861 N   0  0  0  0  0  0  0  0  0  0  0  0
  -18.6838   11.0714  -18.5895 N   0  0  0  0  0  0  0  0  0  0  0  0
  -18.9279   10.0243  -18.4212 H   0  0  0  0  0  0  0  0  0  0  0  0
  -19.3297   11.9586  -17.6843 C   0  0  0  0  0  0  0  0  0  0  0  0
  -19.9911   11.0515  -16.6311 C   0  0  0  0  0  0  0  0  0  0  0  0
  -19.4248    9.6672  -16.5880 C   0  0  0  0  0  0  0  0  0  0  0  0
  -21.0466    7.9457  -11.9046 C   0  0  0  0  0  0  0  0  0  0  0  0
  -20.7313    9.0195  -12.8195 N   0  0  0  0  0  0  0  0  0  0  0  0
  -19.4205    8.8786  -13.3930 C   0  0  0  0  0  0  0  0  0  0  0  0
  -19.5102    8.1377  -14.7036 C   0  0  0  0  0  0  0  0  0  0  0  0
  -20.2205    8.8590  -15.6935 N   0  0  0  0  0  0  0  0  0  0  0  0
  -21.2092    9.7461  -15.0884 C   0  0  0  0  0  0  0  0  0  0  0  0
  -21.7548    9.1820  -13.8160 C   0  0  0  0  0  0  0  0  0  0  0  0
  -16.5755   15.3202  -20.6982 N   0  0  0  0  0  0  0  0  0  0  0  0
  -15.8426   14.9152  -20.0707 H   0  0  0  0  0  0  0  0  0  0  0  0
  -17.4395   16.2591  -20.1278 C   0  0  0  0  0  0  0  0  0  0  0  0
  -18.5856   15.7705  -19.5128 C   0  0  0  0  0  0  0  0  0  0  0  0
  -19.5786   16.6541  -19.0648 C   0  0  0  0  0  0  0  0  0  0  0  0
  -19.4081   17.9769  -19.2287 C   0  0  0  0  0  0  0  0  0  0  0  0
  -18.2629   18.4844  -19.8405 C   0  0  0  0  0  0  0  0  0  0  0  0
  -17.2880   17.5939  -20.2849 C   0  0  0  0  0  0  0  0  0  0  0  0
  -16.0969   18.2074  -20.9411 C   0  0  0  0  0  0  0  0  0  0  0  0
  -20.8053   15.9932  -18.5390 C   0  0  0  0  0  0  0  0  0  0  0  0
  -21.5653   15.4385  -19.3510 O   0  0  0  0  0  0  0  0  0  0  0  0
  -21.0291   16.0482  -17.1669 N   0  0  0  0  0  0  0  0  0  0  0  0
  -20.2435   16.5487  -16.5973 H   0  0  0  0  0  0  0  0  0  0  0  0
  -22.0806   15.5696  -16.3797 C   0  0  0  0  0  0  0  0  0  0  0  0
  -23.3895   16.0578  -16.5854 C   0  0  0  0  0  0  0  0  0  0  0  0
  -24.4427   15.5823  -15.8644 C   0  0  0  0  0  0  0  0  0  0  0  0
  -24.2742   14.6041  -14.8961 C   0  0  0  0  0  0  0  0  0  0  0  0
  -22.9941   14.1183  -14.6842 C   0  0  0  0  0  0  0  0  0  0  0  0
  -21.9279   14.6056  -15.4256 C   0  0  0  0  0  0  0  0  0  0  0  0
  -22.8055   13.0602  -13.6515 C   0  0  0  0  0  0  0  0  0  0  0  0
  -23.0380   13.6335  -12.3931 F   0  0  0  0  0  0  0  0  0  0  0  0
  -21.4945   12.6081  -13.7242 F   0  0  0  0  0  0  0  0  0  0  0  0
  -23.6345   11.9948  -13.8583 F   0  0  0  0  0  0  0  0  0  0  0  0
 21 22  1  0  0  0
 22 23  1  0  0  0
 23 24  1  0  0  0
 24 25  1  0  0  0
 25 20  1  0  0  0
 20 19  1  0  0  0
 19 18  1  0  0  0
 18 16  1  0  0  0
 16 10  1  0  0  0
 10 11  2  0  0  0
 11 12  1  0  0  0
 12 13  2  0  0  0
 13 14  1  0  0  0
 14 15  2  0  0  0
 12  1  1  0  0  0
  1  2  1  0  0  0
  2 28  1  0  0  0
 28 30  1  0  0  0
 30 31  2  0  0  0
 31 32  1  0  0  0
 32 33  2  0  0  0
 33 34  1  0  0  0
 34 35  2  0  0  0
 35 36  1  0  0  0
 32 37  1  0  0  0
 37 38  2  0  0  0
 37 39  1  0  0  0
 39 41  1  0  0  0
 41 42  2  0  0  0
 42 43  1  0  0  0
 43 44  2  0  0  0
 44 45  1  0  0  0
 45 46  2  0  0  0
 45 47  1  0  0  0
 47 48  1  0  0  0
 47 49  1  0  0  0
 47 50  1  0  0  0
  2  3  2  0  0  0
  3  4  1  0  0  0
  4  5  2  0  0  0
  5  6  1  0  0  0
  6  7  2  0  0  0
  7  8  1  0  0  0
  8  9  2  0  0  0
 25 26  1  0  0  0
 26 27  1  0  0  0
 27 22  1  0  0  0
 15 10  1  0  0  0
  9  1  1  0  0  0
 35 30  1  0  0  0
 46 41  1  0  0  0
  9  4  1  0  0  0
 16 17  1  0  0  0
 28 29  1  0  0  0
 39 40  1  0  0  0
M  END
> <minimizedAffinity>
-8.12094

> <CNNscore>
0.1831316650

> <CNNaffinity>
7.6242094040

> <CNN_VS>
1.3962341547

> <CNNaffinity_variance>
0.2824654877

$$$$
[H]c1nc(N([H])C([H])([H])C([H])([H])C([H])([H])N2C([H])([H])C([H])([H])N(C([H])([H])[H])C([H])([H])C2([H])[H])c([H])c(-n2c(N([H])c3c([H])c(C(=O)N([H])c4c([H])c([H])c([H])c(C(F)(F)F)c4[H])c([H])c([H])c3C([H])([H])[H])nc3c([H])c([H])c([H])c([H])c32)n1


 50 55  0  0  0  0  0  0  0  0999 V2000
  -19.6862   12.4068  -17.8397 N   0  0  0  0  0  0  0  0  0  0  0  0
  -20.3965   13.5571  -18.0833 C   0  0  0  0  0  0  0  0  0  0  0  0
  -21.2445   13.6915  -17.0731 N   0  0  0  0  0  0  0  0  0  0  0  0
  -21.0925   12.6674  -16.1946 C   0  0  0  0  0  0  0  0  0  0  0  0
  -21.7467   12.4081  -15.0155 C   0  0  0  0  0  0  0  0  0  0  0  0
  -21.3764   11.2681  -14.2994 C   0  0  0  0  0  0  0  0  0  0  0  0
  -20.3797   10.4576  -14.8033 C   0  0  0  0  0  0  0  0  0  0  0  0
  -19.7253   10.7096  -15.9770 C   0  0  0  0  0  0  0  0  0  0  0  0
  -20.0862   11.8467  -16.6983 C   0  0  0  0  0  0  0  0  0  0  0  0
  -17.6491   11.7834  -20.8841 C   0  0  0  0  0  0  0  0  0  0  0  0
  -18.6119   12.3380  -20.0782 C   0  0  0  0  0  0  0  0  0  0  0  0
  -18.7796   11.9165  -18.7910 C   0  0  0  0  0  0  0  0  0  0  0  0
  -17.9313   10.9147  -18.3708 N   0  0  0  0  0  0  0  0  0  0  0  0
  -16.9995   10.3561  -19.1110 C   0  0  0  0  0  0  0  0  0  0  0  0
  -16.8450   10.7783  -20.3742 N   0  0  0  0  0  0  0  0  0  0  0  0
  -17.3697   12.2249  -22.1677 N   0  0  0  0  0  0  0  0  0  0  0  0
  -18.2344   12.5690  -22.7318 H   0  0  0  0  0  0  0  0  0  0  0  0
  -16.1450   12.3302  -22.8838 C   0  0  0  0  0  0  0  0  0  0  0  0
  -16.0268   13.8163  -23.2673 C   0  0  0  0  0  0  0  0  0  0  0  0
  -17.3456   14.5111  -23.3973 C   0  0  0  0  0  0  0  0  0  0  0  0
  -15.8699   15.7490  -28.2777 C   0  0  0  0  0  0  0  0  0  0  0  0
  -15.7842   14.9114  -27.1027 N   0  0  0  0  0  0  0  0  0  0  0  0
  -15.5606   15.6749  -25.9052 C   0  0  0  0  0  0  0  0  0  0  0  0
  -16.8799   16.0062  -25.2535 C   0  0  0  0  0  0  0  0  0  0  0  0
  -17.5620   14.8584  -24.7826 N   0  0  0  0  0  0  0  0  0  0  0  0
  -17.2159   13.6810  -25.5729 C   0  0  0  0  0  0  0  0  0  0  0  0
  -16.9190   14.0354  -26.9946 C   0  0  0  0  0  0  0  0  0  0  0  0
  -20.1312   14.4934  -19.1327 N   0  0  0  0  0  0  0  0  0  0  0  0
  -20.0204   14.1151  -20.1020 H   0  0  0  0  0  0  0  0  0  0  0  0
  -19.9812   15.8744  -18.9781 C   0  0  0  0  0  0  0  0  0  0  0  0
  -20.7303   16.6887  -19.8184 C   0  0  0  0  0  0  0  0  0  0  0  0
  -20.5132   18.0744  -19.8375 C   0  0  0  0  0  0  0  0  0  0  0  0
  -19.5805   18.6077  -19.0307 C   0  0  0  0  0  0  0  0  0  0  0  0
  -18.8223   17.8058  -18.1788 C   0  0  0  0  0  0  0  0  0  0  0  0
  -19.0458   16.4307  -18.1751 C   0  0  0  0  0  0  0  0  0  0  0  0
  -18.1893   15.6349  -17.2486 C   0  0  0  0  0  0  0  0  0  0  0  0
  -21.2946   18.8101  -20.8701 C   0  0  0  0  0  0  0  0  0  0  0  0
  -22.3980   19.2803  -20.5446 O   0  0  0  0  0  0  0  0  0  0  0  0
  -20.7419   18.9156  -22.1427 N   0  0  0  0  0  0  0  0  0  0  0  0
  -19.7500   18.4712  -22.2463 H   0  0  0  0  0  0  0  0  0  0  0  0
  -21.2264   19.4974  -23.3179 C   0  0  0  0  0  0  0  0  0  0  0  0
  -20.6721   20.7110  -23.7800 C   0  0  0  0  0  0  0  0  0  0  0  0
  -21.0925   21.2826  -24.9428 C   0  0  0  0  0  0  0  0  0  0  0  0
  -22.0841   20.7008  -25.7182 C   0  0  0  0  0  0  0  0  0  0  0  0
  -22.6366   19.5104  -25.2740 C   0  0  0  0  0  0  0  0  0  0  0  0
  -22.2000   18.9335  -24.0906 C   0  0  0  0  0  0  0  0  0  0  0  0
  -23.6968   18.8736  -26.1060 C   0  0  0  0  0  0  0  0  0  0  0  0
  -23.4398   19.1822  -27.4496 F   0  0  0  0  0  0  0  0  0  0  0  0
  -24.9238   19.4047  -25.7310 F   0  0  0  0  0  0  0  0  0  0  0  0
  -23.7444   17.5214  -25.9208 F   0  0  0  0  0  0  0  0  0  0  0  0
 21 22  1  0  0  0
 22 23  1  0  0  0
 23 24  1  0  0  0
 24 25  1  0  0  0
 25 20  1  0  0  0
 20 19  1  0  0  0
 19 18  1  0  0  0
 18 16  1  0  0  0
 16 10  1  0  0  0
 10 11  2  0  0  0
 11 12  1  0  0  0
 12 13  2  0  0  0
 13 14  1  0  0  0
 14 15  2  0  0  0
 12  1  1  0  0  0
  1  2  1  0  0  0
  2 28  1  0  0  0
 28 30  1  0  0  0
 30 31  2  0  0  0
 31 32  1  0  0  0
 32 33  2  0  0  0
 33 34  1  0  0  0
 34 35  2  0  0  0
 35 36  1  0  0  0
 32 37  1  0  0  0
 37 38  2  0  0  0
 37 39  1  0  0  0
 39 41  1  0  0  0
 41 42  2  0  0  0
 42 43  1  0  0  0
 43 44  2  0  0  0
 44 45  1  0  0  0
 45 46  2  0  0  0
 45 47  1  0  0  0
 47 48  1  0  0  0
 47 49  1  0  0  0
 47 50  1  0  0  0
  2  3  2  0  0  0
  3  4  1  0  0  0
  4  5  2  0  0  0
  5  6  1  0  0  0
  6  7  2  0  0  0
  7  8  1  0  0  0
  8  9  2  0  0  0
 25 26  1  0  0  0
 26 27  1  0  0  0
 27 22  1  0  0  0
 15 10  1  0  0  0
  9  1  1  0  0  0
 35 30  1  0  0  0
 46 41  1  0  0  0
  9  4  1  0  0  0
 16 17  1  0  0  0
 28 29  1  0  0  0
 39 40  1  0  0  0
M  END
> <minimizedAffinity>
-9.34976

> <CNNscore>
0.1486990601

> <CNNaffinity>
7.9683656693

> <CNN_VS>
1.1848884821

> <CNNaffinity_variance>
0.1259175539

$$$$
[H]c1nc(N([H])C([H])([H])C([H])([H])C([H])([H])N2C([H])([H])C([H])([H])N(C([H])([H])[H])C([H])([H])C2([H])[H])c([H])c(-n2c(N([H])c3c([H])c(C(=O)N([H])c4c([H])c([H])c([H])c(C(F)(F)F)c4[H])c([H])c([H])c3C([H])([H])[H])nc3c([H])c([H])c([H])c([H])c32)n1


 50 55  0  0  0  0  0  0  0  0999 V2000
  -18.2889   13.0464  -20.7195 N   0  0  0  0  0  0  0  0  0  0  0  0
  -17.6987   12.9842  -21.9586 C   0  0  0  0  0  0  0  0  0  0  0  0
  -16.9033   11.9238  -21.9388 N   0  0  0  0  0  0  0  0  0  0  0  0
  -16.9728   11.3086  -20.7303 C   0  0  0  0  0  0  0  0  0  0  0  0
  -16.3331   10.1835  -20.2717 C   0  0  0  0  0  0  0  0  0  0  0  0
  -16.6017    9.7647  -18.9670 C   0  0  0  0  0  0  0  0  0  0  0  0
  -17.4887   10.4934  -18.2012 C   0  0  0  0  0  0  0  0  0  0  0  0
  -18.1280   11.6149  -18.6515 C   0  0  0  0  0  0  0  0  0  0  0  0
  -17.8681   12.0400  -19.9536 C   0  0  0  0  0  0  0  0  0  0  0  0
  -19.6492   16.3893  -19.8359 C   0  0  0  0  0  0  0  0  0  0  0  0
  -18.7227   15.4186  -20.1245 C   0  0  0  0  0  0  0  0  0  0  0  0
  -19.1061   14.1331  -20.3755 C   0  0  0  0  0  0  0  0  0  0  0  0
  -20.4612   13.8873  -20.3172 N   0  0  0  0  0  0  0  0  0  0  0  0
  -21.3793   14.7871  -20.0421 C   0  0  0  0  0  0  0  0  0  0  0  0
  -20.9900   16.0464  -19.7965 N   0  0  0  0  0  0  0  0  0  0  0  0
  -19.3346   17.7273  -19.6583 N   0  0  0  0  0  0  0  0  0  0  0  0
  -19.5638   18.3681  -20.5075 H   0  0  0  0  0  0  0  0  0  0  0  0
  -18.7795   18.4274  -18.5512 C   0  0  0  0  0  0  0  0  0  0  0  0
  -19.8823   18.4262  -17.4773 C   0  0  0  0  0  0  0  0  0  0  0  0
  -19.3603   18.5218  -16.0783 C   0  0  0  0  0  0  0  0  0  0  0  0
  -23.2112   15.9542  -13.6073 C   0  0  0  0  0  0  0  0  0  0  0  0
  -22.6811   16.6256  -14.7725 N   0  0  0  0  0  0  0  0  0  0  0  0
  -22.1646   17.9305  -14.4607 C   0  0  0  0  0  0  0  0  0  0  0  0
  -20.6888   17.8411  -14.1627 C   0  0  0  0  0  0  0  0  0  0  0  0
  -19.9248   17.4516  -15.2893 N   0  0  0  0  0  0  0  0  0  0  0  0
  -20.7139   16.6264  -16.1988 C   0  0  0  0  0  0  0  0  0  0  0  0
  -21.7253   15.8052  -15.4656 C   0  0  0  0  0  0  0  0  0  0  0  0
  -18.0290   13.8088  -23.0807 N   0  0  0  0  0  0  0  0  0  0  0  0
  -18.7214   13.4334  -23.7697 H   0  0  0  0  0  0  0  0  0  0  0  0
  -17.4902   15.0685  -23.3568 C   0  0  0  0  0  0  0  0  0  0  0  0
  -18.3365   16.1615  -23.2163 C   0  0  0  0  0  0  0  0  0  0  0  0
  -17.9206   17.4351  -23.6316 C   0  0  0  0  0  0  0  0  0  0  0  0
  -16.6944   17.5900  -24.1589 C   0  0  0  0  0  0  0  0  0  0  0  0
  -15.8313   16.5049  -24.3038 C   0  0  0  0  0  0  0  0  0  0  0  0
  -16.2606   15.2452  -23.8916 C   0  0  0  0  0  0  0  0  0  0  0  0
  -15.2897   14.1300  -24.0892 C   0  0  0  0  0  0  0  0  0  0  0  0
  -18.9678   18.4901  -23.5392 C   0  0  0  0  0  0  0  0  0  0  0  0
  -18.6543   19.6543  -23.8404 O   0  0  0  0  0  0  0  0  0  0  0  0
  -20.2339   18.1053  -23.1091 N   0  0  0  0  0  0  0  0  0  0  0  0
  -20.3436   17.0362  -22.9160 H   0  0  0  0  0  0  0  0  0  0  0  0
  -21.4000   18.8429  -22.8849 C   0  0  0  0  0  0  0  0  0  0  0  0
  -21.7763   19.1764  -21.5654 C   0  0  0  0  0  0  0  0  0  0  0  0
  -22.8836   19.9291  -21.3150 C   0  0  0  0  0  0  0  0  0  0  0  0
  -23.6898   20.3948  -22.3427 C   0  0  0  0  0  0  0  0  0  0  0  0
  -23.3315   20.0726  -23.6417 C   0  0  0  0  0  0  0  0  0  0  0  0
  -22.2002   19.3087  -23.8877 C   0  0  0  0  0  0  0  0  0  0  0  0
  -24.1875   20.5767  -24.7528 C   0  0  0  0  0  0  0  0  0  0  0  0
  -24.9191   19.4951  -25.2641 F   0  0  0  0  0  0  0  0  0  0  0  0
  -23.3602   21.0909  -25.7425 F   0  0  0  0  0  0  0  0  0  0  0  0
  -25.0239   21.5735  -24.3379 F   0  0  0  0  0  0  0  0  0  0  0  0
 21 22  1  0  0  0
 22 23  1  0  0  0
 23 24  1  0  0  0
 24 25  1  0  0  0
 25 20  1  0  0  0
 20 19  1  0  0  0
 19 18  1  0  0  0
 18 16  1  0  0  0
 16 10  1  0  0  0
 10 11  2  0  0  0
 11 12  1  0  0  0
 12 13  2  0  0  0
 13 14  1  0  0  0
 14 15  2  0  0  0
 12  1  1  0  0  0
  1  2  1  0  0  0
  2 28  1  0  0  0
 28 30  1  0  0  0
 30 31  2  0  0  0
 31 32  1  0  0  0
 32 33  2  0  0  0
 33 34  1  0  0  0
 34 35  2  0  0  0
 35 36  1  0  0  0
 32 37  1  0  0  0
 37 38  2  0  0  0
 37 39  1  0  0  0
 39 41  1  0  0  0
 41 42  2  0  0  0
 42 43  1  0  0  0
 43 44  2  0  0  0
 44 45  1  0  0  0
 45 46  2  0  0  0
 45 47  1  0  0  0
 47 48  1  0  0  0
 47 49  1  0  0  0
 47 50  1  0  0  0
  2  3  2  0  0  0
  3  4  1  0  0  0
  4  5  2  0  0  0
  5  6  1  0  0  0
  6  7  2  0  0  0
  7  8  1  0  0  0
  8  9  2  0  0  0
 25 26  1  0  0  0
 26 27  1  0  0  0
 27 22  1  0  0  0
 15 10  1  0  0  0
  9  1  1  0  0  0
 35 30  1  0  0  0
 46 41  1  0  0  0
  9  4  1  0  0  0
 16 17  1  0  0  0
 28 29  1  0  0  0
 39 40  1  0  0  0
M  END
> <minimizedAffinity>
-8.82646

> <CNNscore>
0.0982108861

> <CNNaffinity>
7.5047159195

> <CNN_VS>
0.7370448112

> <CNNaffinity_variance>
0.0847048461

$$$$
[H]c1nc(N([H])C([H])([H])C([H])([H])C([H])([H])N2C([H])([H])C([H])([H])N(C([H])([H])[H])C([H])([H])C2([H])[H])c([H])c(-n2c(N([H])c3c([H])c(C(=O)N([H])c4c([H])c([H])c([H])c(C(F)(F)F)c4[H])c([H])c([H])c3C([H])([H])[H])nc3c([H])c([H])c([H])c([H])c32)n1


 50 55  0  0  0  0  0  0  0  0999 V2000
  -18.6822   11.8952  -17.9540 N   0  0  0  0  0  0  0  0  0  0  0  0
  -19.0180   13.1670  -17.5578 C   0  0  0  0  0  0  0  0  0  0  0  0
  -19.8204   13.0308  -16.5112 N   0  0  0  0  0  0  0  0  0  0  0  0
  -20.0009   11.7153  -16.2275 C   0  0  0  0  0  0  0  0  0  0  0  0
  -20.7381   11.1166  -15.2357 C   0  0  0  0  0  0  0  0  0  0  0  0
  -20.7389    9.7218  -15.1731 C   0  0  0  0  0  0  0  0  0  0  0  0
  -20.0072    9.0113  -16.1026 C   0  0  0  0  0  0  0  0  0  0  0  0
  -19.2721    9.6012  -17.0930 C   0  0  0  0  0  0  0  0  0  0  0  0
  -19.2631   10.9936  -17.1627 C   0  0  0  0  0  0  0  0  0  0  0  0
  -17.1911   12.0672  -21.3530 C   0  0  0  0  0  0  0  0  0  0  0  0
  -18.0300   12.3565  -20.3059 C   0  0  0  0  0  0  0  0  0  0  0  0
  -17.9296   11.6895  -19.1195 C   0  0  0  0  0  0  0  0  0  0  0  0
  -16.9471   10.7250  -19.0531 N   0  0  0  0  0  0  0  0  0  0  0  0
  -16.1263   10.4164  -20.0325 C   0  0  0  0  0  0  0  0  0  0  0  0
  -16.2354   11.0782  -21.1934 N   0  0  0  0  0  0  0  0  0  0  0  0
  -17.1829   12.7652  -22.5503 N   0  0  0  0  0  0  0  0  0  0  0  0
  -17.4190   13.8241  -22.4645 H   0  0  0  0  0  0  0  0  0  0  0  0
  -16.9004   12.3517  -23.8819 C   0  0  0  0  0  0  0  0  0  0  0  0
  -17.4841   13.4562  -24.7812 C   0  0  0  0  0  0  0  0  0  0  0  0
  -16.7111   14.7367  -24.7405 C   0  0  0  0  0  0  0  0  0  0  0  0
  -18.5114   19.2444  -22.7487 C   0  0  0  0  0  0  0  0  0  0  0  0
  -18.4900   18.2367  -23.7849 N   0  0  0  0  0  0  0  0  0  0  0  0
  -17.1571   17.9597  -24.2471 C   0  0  0  0  0  0  0  0  0  0  0  0
  -16.5749   16.8036  -23.4729 C   0  0  0  0  0  0  0  0  0  0  0  0
  -17.2586   15.5864  -23.7087 N   0  0  0  0  0  0  0  0  0  0  0  0
  -18.6555   15.8278  -24.0566 C   0  0  0  0  0  0  0  0  0  0  0  0
  -19.1918   17.0488  -23.3810 C   0  0  0  0  0  0  0  0  0  0  0  0
  -18.4589   14.3768  -18.0794 N   0  0  0  0  0  0  0  0  0  0  0  0
  -17.4574   14.3559  -18.3818 H   0  0  0  0  0  0  0  0  0  0  0  0
  -19.1247   15.5997  -18.2008 C   0  0  0  0  0  0  0  0  0  0  0  0
  -19.0254   16.4814  -17.1315 C   0  0  0  0  0  0  0  0  0  0  0  0
  -19.7961   17.6531  -17.1079 C   0  0  0  0  0  0  0  0  0  0  0  0
  -20.6248   17.9190  -18.1316 C   0  0  0  0  0  0  0  0  0  0  0  0
  -20.7342   17.0472  -19.2139 C   0  0  0  0  0  0  0  0  0  0  0  0
  -19.9662   15.8849  -19.2205 C   0  0  0  0  0  0  0  0  0  0  0  0
  -20.1448   14.9937  -20.4034 C   0  0  0  0  0  0  0  0  0  0  0  0
  -19.6853   18.4428  -15.8500 C   0  0  0  0  0  0  0  0  0  0  0  0
  -18.7604   18.1690  -15.0663 O   0  0  0  0  0  0  0  0  0  0  0  0
  -20.6353   19.4344  -15.6259 N   0  0  0  0  0  0  0  0  0  0  0  0
  -21.3594   19.5617  -16.4331 H   0  0  0  0  0  0  0  0  0  0  0  0
  -20.8274   20.3074  -14.5510 C   0  0  0  0  0  0  0  0  0  0  0  0
  -20.6782   21.6985  -14.7418 C   0  0  0  0  0  0  0  0  0  0  0  0
  -20.8989   22.5789  -13.7262 C   0  0  0  0  0  0  0  0  0  0  0  0
  -21.2738   22.1473  -12.4628 C   0  0  0  0  0  0  0  0  0  0  0  0
  -21.4218   20.7843  -12.2631 C   0  0  0  0  0  0  0  0  0  0  0  0
  -21.1986   19.8951  -13.3040 C   0  0  0  0  0  0  0  0  0  0  0  0
  -21.8333   20.3125  -10.9105 C   0  0  0  0  0  0  0  0  0  0  0  0
  -23.2035   20.5692  -10.7580 F   0  0  0  0  0  0  0  0  0  0  0  0
  -21.1153   21.0280   -9.9614 F   0  0  0  0  0  0  0  0  0  0  0  0
  -21.5672   18.9848  -10.7327 F   0  0  0  0  0  0  0  0  0  0  0  0
 21 22  1  0  0  0
 22 23  1  0  0  0
 23 24  1  0  0  0
 24 25  1  0  0  0
 25 20  1  0  0  0
 20 19  1  0  0  0
 19 18  1  0  0  0
 18 16  1  0  0  0
 16 10  1  0  0  0
 10 11  2  0  0  0
 11 12  1  0  0  0
 12 13  2  0  0  0
 13 14  1  0  0  0
 14 15  2  0  0  0
 12  1  1  0  0  0
  1  2  1  0  0  0
  2 28  1  0  0  0
 28 30  1  0  0  0
 30 31  2  0  0  0
 31 32  1  0  0  0
 32 33  2  0  0  0
 33 34  1  0  0  0
 34 35  2  0  0  0
 35 36  1  0  0  0
 32 37  1  0  0  0
 37 38  2  0  0  0
 37 39  1  0  0  0
 39 41  1  0  0  0
 41 42  2  0  0  0
 42 43  1  0  0  0
 43 44  2  0  0  0
 44 45  1  0  0  0
 45 46  2  0  0  0
 45 47  1  0  0  0
 47 48  1  0  0  0
 47 49  1  0  0  0
 47 50  1  0  0  0
  2  3  2  0  0  0
  3  4  1  0  0  0
  4  5  2  0  0  0
  5  6  1  0  0  0
  6  7  2  0  0  0
  7  8  1  0  0  0
  8  9  2  0  0  0
 25 26  1  0  0  0
 26 27  1  0  0  0
 27 22  1  0  0  0
 15 10  1  0  0  0
  9  1  1  0  0  0
 35 30  1  0  0  0
 46 41  1  0  0  0
  9  4  1  0  0  0
 16 17  1  0  0  0
 28 29  1  0  0  0
 39 40  1  0  0  0
M  END
> <minimizedAffinity>
-8.72637

> <CNNscore>
0.0800992846

> <CNNaffinity>
7.2482004166

> <CNN_VS>
0.5805756450

> <CNNaffinity_variance>
0.2145430744

$$$$
[H]c1nc(N([H])C([H])([H])C([H])([H])C([H])([H])N2C([H])([H])C([H])([H])N(C([H])([H])[H])C([H])([H])C2([H])[H])c([H])c(-n2c(N([H])c3c([H])c(C(=O)N([H])c4c([H])c([H])c([H])c(C(F)(F)F)c4[H])c([H])c([H])c3C([H])([H])[H])nc3c([H])c([H])c([H])c([H])c32)n1


 50 55  0  0  0  0  0  0  0  0999 V2000
  -17.1256   14.4690  -22.6796 N   0  0  0  0  0  0  0  0  0  0  0  0
  -17.3050   13.1306  -22.9327 C   0  0  0  0  0  0  0  0  0  0  0  0
  -16.5776   12.8545  -24.0062 N   0  0  0  0  0  0  0  0  0  0  0  0
  -15.9392   13.9717  -24.4395 C   0  0  0  0  0  0  0  0  0  0  0  0
  -15.0849   14.1481  -25.5000 C   0  0  0  0  0  0  0  0  0  0  0  0
  -14.5607   15.4247  -25.7119 C   0  0  0  0  0  0  0  0  0  0  0  0
  -14.9213   16.4451  -24.8558 C   0  0  0  0  0  0  0  0  0  0  0  0
  -15.7721   16.2764  -23.7990 C   0  0  0  0  0  0  0  0  0  0  0  0
  -16.2993   15.0048  -23.5776 C   0  0  0  0  0  0  0  0  0  0  0  0
  -19.7828   15.9818  -20.5684 C   0  0  0  0  0  0  0  0  0  0  0  0
  -19.1950   15.3845  -21.6556 C   0  0  0  0  0  0  0  0  0  0  0  0
  -17.8592   15.1053  -21.6677 C   0  0  0  0  0  0  0  0  0  0  0  0
  -17.1601   15.4610  -20.5342 N   0  0  0  0  0  0  0  0  0  0  0  0
  -17.6842   16.0362  -19.4747 C   0  0  0  0  0  0  0  0  0  0  0  0
  -18.9976   16.3061  -19.4752 N   0  0  0  0  0  0  0  0  0  0  0  0
  -21.1449   16.2119  -20.4575 N   0  0  0  0  0  0  0  0  0  0  0  0
  -21.6221   15.7329  -19.6048 H   0  0  0  0  0  0  0  0  0  0  0  0
  -22.0394   16.9832  -21.2505 C   0  0  0  0  0  0  0  0  0  0  0  0
  -21.6750   18.4504  -20.9609 C   0  0  0  0  0  0  0  0  0  0  0  0
  -20.6634   19.0173  -21.9065 C   0  0  0  0  0  0  0  0  0  0  0  0
  -20.8772   22.6289  -25.7063 C   0  0  0  0  0  0  0  0  0  0  0  0
  -20.6199   21.2803  -25.2538 N   0  0  0  0  0  0  0  0  0  0  0  0
  -19.7160   21.2444  -24.1364 C   0  0  0  0  0  0  0  0  0  0  0  0
  -20.4953   21.2507  -22.8451 C   0  0  0  0  0  0  0  0  0  0  0  0
  -21.2739   20.0814  -22.6691 N   0  0  0  0  0  0  0  0  0  0  0  0
  -21.6624   19.5110  -23.9552 C   0  0  0  0  0  0  0  0  0  0  0  0
  -21.8416   20.5668  -24.9983 C   0  0  0  0  0  0  0  0  0  0  0  0
  -18.0019   12.2093  -22.0879 N   0  0  0  0  0  0  0  0  0  0  0  0
  -18.8977   11.8055  -22.4477 H   0  0  0  0  0  0  0  0  0  0  0  0
  -17.6062   11.8141  -20.8070 C   0  0  0  0  0  0  0  0  0  0  0  0
  -18.3087   12.3515  -19.7355 C   0  0  0  0  0  0  0  0  0  0  0  0
  -17.8685   12.1341  -18.4215 C   0  0  0  0  0  0  0  0  0  0  0  0
  -16.7666   11.3953  -18.2081 C   0  0  0  0  0  0  0  0  0  0  0  0
  -16.0518   10.8457  -19.2714 C   0  0  0  0  0  0  0  0  0  0  0  0
  -16.4985   11.0749  -20.5709 C   0  0  0  0  0  0  0  0  0  0  0  0
  -15.6771   10.4673  -21.6579 C   0  0  0  0  0  0  0  0  0  0  0  0
  -18.6396   12.8679  -17.3799 C   0  0  0  0  0  0  0  0  0  0  0  0
  -18.1441   13.9046  -16.9063 O   0  0  0  0  0  0  0  0  0  0  0  0
  -19.8666   12.3379  -16.9935 N   0  0  0  0  0  0  0  0  0  0  0  0
  -20.1642   11.4374  -17.5346 H   0  0  0  0  0  0  0  0  0  0  0  0
  -20.7966   12.7559  -16.0371 C   0  0  0  0  0  0  0  0  0  0  0  0
  -21.0056   11.9803  -14.8759 C   0  0  0  0  0  0  0  0  0  0  0  0
  -21.8735   12.3804  -13.9053 C   0  0  0  0  0  0  0  0  0  0  0  0
  -22.5910   13.5616  -14.0181 C   0  0  0  0  0  0  0  0  0  0  0  0
  -22.3954   14.3305  -15.1540 C   0  0  0  0  0  0  0  0  0  0  0  0
  -21.5070   13.9172  -16.1357 C   0  0  0  0  0  0  0  0  0  0  0  0
  -23.1560   15.6062  -15.2791 C   0  0  0  0  0  0  0  0  0  0  0  0
  -23.8979   15.7880  -14.1031 F   0  0  0  0  0  0  0  0  0  0  0  0
  -24.0173   15.4964  -16.3628 F   0  0  0  0  0  0  0  0  0  0  0  0
  -22.3296   16.6710  -15.4991 F   0  0  0  0  0  0  0  0  0  0  0  0
 21 22  1  0  0  0
 22 23  1  0  0  0
 23 24  1  0  0  0
 24 25  1  0  0  0
 25 20  1  0  0  0
 20 19  1  0  0  0
 19 18  1  0  0  0
 18 16  1  0  0  0
 16 10  1  0  0  0
 10 11  2  0  0  0
 11 12  1  0  0  0
 12 13  2  0  0  0
 13 14  1  0  0  0
 14 15  2  0  0  0
 12  1  1  0  0  0
  1  2  1  0  0  0
  2 28  1  0  0  0
 28 30  1  0  0  0
 30 31  2  0  0  0
 31 32  1  0  0  0
 32 33  2  0  0  0
 33 34  1  0  0  0
 34 35  2  0  0  0
 35 36  1  0  0  0
 32 37  1  0  0  0
 37 38  2  0  0  0
 37 39  1  0  0  0
 39 41  1  0  0  0
 41 42  2  0  0  0
 42 43  1  0  0  0
 43 44  2  0  0  0
 44 45  1  0  0  0
 45 46  2  0  0  0
 45 47  1  0  0  0
 47 48  1  0  0  0
 47 49  1  0  0  0
 47 50  1  0  0  0
  2  3  2  0  0  0
  3  4  1  0  0  0
  4  5  2  0  0  0
  5  6  1  0  0  0
  6  7  2  0  0  0
  7  8  1  0  0  0
  8  9  2  0  0  0
 25 26  1  0  0  0
 26 27  1  0  0  0
 27 22  1  0  0  0
 15 10  1  0  0  0
  9  1  1  0  0  0
 35 30  1  0  0  0
 46 41  1  0  0  0
  9  4  1  0  0  0
 16 17  1  0  0  0
 28 29  1  0  0  0
 39 40  1  0  0  0
M  END
> <minimizedAffinity>
-8.78471

> <CNNscore>
0.0641726553

> <CNNaffinity>
6.9077095985

> <CNN_VS>
0.4432860613

> <CNNaffinity_variance>
0.7115732431

$$$$
[H]c1nc(N([H])C([H])([H])C([H])([H])C([H])([H])N2C([H])([H])C([H])([H])N(C([H])([H])[H])C([H])([H])C2([H])[H])c([H])c(-n2c(N([H])c3c([H])c(C(=O)N([H])c4c([H])c([H])c([H])c(C(F)(F)F)c4[H])c([H])c([H])c3C([H])([H])[H])nc3c([H])c([H])c([H])c([H])c32)n1


 50 55  0  0  0  0  0  0  0  0999 V2000
  -17.1703   14.4774  -22.7232 N   0  0  0  0  0  0  0  0  0  0  0  0
  -17.3368   13.1407  -22.9930 C   0  0  0  0  0  0  0  0  0  0  0  0
  -16.6209   12.8888  -24.0800 N   0  0  0  0  0  0  0  0  0  0  0  0
  -16.0021   14.0199  -24.5058 C   0  0  0  0  0  0  0  0  0  0  0  0
  -15.1646   14.2218  -25.5751 C   0  0  0  0  0  0  0  0  0  0  0  0
  -14.6588   15.5077  -25.7757 C   0  0  0  0  0  0  0  0  0  0  0  0
  -15.0201   16.5114  -24.9003 C   0  0  0  0  0  0  0  0  0  0  0  0
  -15.8543   16.3171  -23.8346 C   0  0  0  0  0  0  0  0  0  0  0  0
  -16.3629   15.0362  -23.6245 C   0  0  0  0  0  0  0  0  0  0  0  0
  -19.8224   15.8770  -20.5291 C   0  0  0  0  0  0  0  0  0  0  0  0
  -19.2458   15.2934  -21.6296 C   0  0  0  0  0  0  0  0  0  0  0  0
  -17.8978   15.0903  -21.6924 C   0  0  0  0  0  0  0  0  0  0  0  0
  -17.1749   15.5066  -20.5951 N   0  0  0  0  0  0  0  0  0  0  0  0
  -17.6880   16.0711  -19.5245 C   0  0  0  0  0  0  0  0  0  0  0  0
  -19.0136   16.2661  -19.4749 N   0  0  0  0  0  0  0  0  0  0  0  0
  -21.1900   16.0315  -20.3656 N   0  0  0  0  0  0  0  0  0  0  0  0
  -21.6170   15.4765  -19.5326 H   0  0  0  0  0  0  0  0  0  0  0  0
  -22.1446   16.8057  -21.0821 C   0  0  0  0  0  0  0  0  0  0  0  0
  -21.6352   18.2558  -20.9976 C   0  0  0  0  0  0  0  0  0  0  0  0
  -22.3396   19.0822  -19.9682 C   0  0  0  0  0  0  0  0  0  0  0  0
  -20.8037   21.4429  -15.5414 C   0  0  0  0  0  0  0  0  0  0  0  0
  -21.6321   20.4920  -16.2480 N   0  0  0  0  0  0  0  0  0  0  0  0
  -22.3189   21.0897  -17.3606 C   0  0  0  0  0  0  0  0  0  0  0  0
  -21.5042   20.9200  -18.6185 C   0  0  0  0  0  0  0  0  0  0  0  0
  -21.3741   19.5653  -19.0086 N   0  0  0  0  0  0  0  0  0  0  0  0
  -21.4457   18.6769  -17.8527 C   0  0  0  0  0  0  0  0  0  0  0  0
  -20.8882   19.3205  -16.6238 C   0  0  0  0  0  0  0  0  0  0  0  0
  -18.0108   12.1989  -22.1521 N   0  0  0  0  0  0  0  0  0  0  0  0
  -18.9005   11.7806  -22.5105 H   0  0  0  0  0  0  0  0  0  0  0  0
  -17.6006   11.8012  -20.8766 C   0  0  0  0  0  0  0  0  0  0  0  0
  -18.3069   12.3168  -19.7970 C   0  0  0  0  0  0  0  0  0  0  0  0
  -17.8552   12.0974  -18.4873 C   0  0  0  0  0  0  0  0  0  0  0  0
  -16.7384   11.3779  -18.2859 C   0  0  0  0  0  0  0  0  0  0  0  0
  -16.0194   10.8503  -19.3575 C   0  0  0  0  0  0  0  0  0  0  0  0
  -16.4777   11.0812  -20.6526 C   0  0  0  0  0  0  0  0  0  0  0  0
  -15.6512   10.4978  -21.7490 C   0  0  0  0  0  0  0  0  0  0  0  0
  -18.6340   12.8083  -17.4355 C   0  0  0  0  0  0  0  0  0  0  0  0
  -18.1417   13.8338  -16.9350 O   0  0  0  0  0  0  0  0  0  0  0  0
  -19.8644   12.2706  -17.0707 N   0  0  0  0  0  0  0  0  0  0  0  0
  -20.1581   11.3827  -17.6342 H   0  0  0  0  0  0  0  0  0  0  0  0
  -20.8016   12.6679  -16.1125 C   0  0  0  0  0  0  0  0  0  0  0  0
  -21.1946   11.7660  -15.0996 C   0  0  0  0  0  0  0  0  0  0  0  0
  -22.0738   12.1350  -14.1269 C   0  0  0  0  0  0  0  0  0  0  0  0
  -22.6230   13.4078  -14.0926 C   0  0  0  0  0  0  0  0  0  0  0  0
  -22.2460   14.3011  -15.0822 C   0  0  0  0  0  0  0  0  0  0  0  0
  -21.3473   13.9181  -16.0669 C   0  0  0  0  0  0  0  0  0  0  0  0
  -22.8247   15.6743  -15.0476 C   0  0  0  0  0  0  0  0  0  0  0  0
  -23.7518   15.7297  -13.9970 F   0  0  0  0  0  0  0  0  0  0  0  0
  -23.4714   15.9059  -16.2544 F   0  0  0  0  0  0  0  0  0  0  0  0
  -21.8600   16.6285  -14.8924 F   0  0  0  0  0  0  0  0  0  0  0  0
 21 22  1  0  0  0
 22 23  1  0  0  0
 23 24  1  0  0  0
 24 25  1  0  0  0
 25 20  1  0  0  0
 20 19  1  0  0  0
 19 18  1  0  0  0
 18 16  1  0  0  0
 16 10  1  0  0  0
 10 11  2  0  0  0
 11 12  1  0  0  0
 12 13  2  0  0  0
 13 14  1  0  0  0
 14 15  2  0  0  0
 12  1  1  0  0  0
  1  2  1  0  0  0
  2 28  1  0  0  0
 28 30  1  0  0  0
 30 31  2  0  0  0
 31 32  1  0  0  0
 32 33  2  0  0  0
 33 34  1  0  0  0
 34 35  2  0  0  0
 35 36  1  0  0  0
 32 37  1  0  0  0
 37 38  2  0  0  0
 37 39  1  0  0  0
 39 41  1  0  0  0
 41 42  2  0  0  0
 42 43  1  0  0  0
 43 44  2  0  0  0
 44 45  1  0  0  0
 45 46  2  0  0  0
 45 47  1  0  0  0
 47 48  1  0  0  0
 47 49  1  0  0  0
 47 50  1  0  0  0
  2  3  2  0  0  0
  3  4  1  0  0  0
  4  5  2  0  0  0
  5  6  1  0  0  0
  6  7  2  0  0  0
  7  8  1  0  0  0
  8  9  2  0  0  0
 25 26  1  0  0  0
 26 27  1  0  0  0
 27 22  1  0  0  0
 15 10  1  0  0  0
  9  1  1  0  0  0
 35 30  1  0  0  0
 46 41  1  0  0  0
  9  4  1  0  0  0
 16 17  1  0  0  0
 28 29  1  0  0  0
 39 40  1  0  0  0
M  END
> <minimizedAffinity>
-8.11483

> <CNNscore>
0.0623855591

> <CNNaffinity>
6.8427991867

> <CNN_VS>
0.4268918633

> <CNNaffinity_variance>
0.6803811789

$$$$
[H]c1nc(N([H])C([H])([H])C([H])([H])C([H])([H])N2C([H])([H])C([H])([H])N(C([H])([H])[H])C([H])([H])C2([H])[H])c([H])c(-n2c(N([H])c3c([H])c(C(=O)N([H])c4c([H])c([H])c([H])c(C(F)(F)F)c4[H])c([H])c([H])c3C([H])([H])[H])nc3c([H])c([H])c([H])c([H])c32)n1


 50 55  0  0  0  0  0  0  0  0999 V2000
  -17.1160   14.4778  -22.7055 N   0  0  0  0  0  0  0  0  0  0  0  0
  -17.3335   13.1425  -22.9444 C   0  0  0  0  0  0  0  0  0  0  0  0
  -16.5878   12.8263  -23.9939 N   0  0  0  0  0  0  0  0  0  0  0  0
  -15.9011   13.9152  -24.4258 C   0  0  0  0  0  0  0  0  0  0  0  0
  -15.0138   14.0471  -25.4654 C   0  0  0  0  0  0  0  0  0  0  0  0
  -14.4416   15.3023  -25.6812 C   0  0  0  0  0  0  0  0  0  0  0  0
  -14.7901   16.3469  -24.8495 C   0  0  0  0  0  0  0  0  0  0  0  0
  -15.6736   16.2223  -23.8136 C   0  0  0  0  0  0  0  0  0  0  0  0
  -16.2488   14.9724  -23.5885 C   0  0  0  0  0  0  0  0  0  0  0  0
  -19.7945   15.9324  -20.5803 C   0  0  0  0  0  0  0  0  0  0  0  0
  -19.2110   15.2673  -21.6297 C   0  0  0  0  0  0  0  0  0  0  0  0
  -17.8542   15.1532  -21.7226 C   0  0  0  0  0  0  0  0  0  0  0  0
  -17.1301   15.7433  -20.7089 N   0  0  0  0  0  0  0  0  0  0  0  0
  -17.6498   16.3906  -19.6895 C   0  0  0  0  0  0  0  0  0  0  0  0
  -18.9840   16.4965  -19.6098 N   0  0  0  0  0  0  0  0  0  0  0  0
  -21.1639   16.0086  -20.3812 N   0  0  0  0  0  0  0  0  0  0  0  0
  -21.5468   15.3724  -19.5857 H   0  0  0  0  0  0  0  0  0  0  0  0
  -22.1684   16.7881  -21.0193 C   0  0  0  0  0  0  0  0  0  0  0  0
  -21.4435   18.0496  -21.5218 C   0  0  0  0  0  0  0  0  0  0  0  0
  -22.3671   19.1650  -21.8983 C   0  0  0  0  0  0  0  0  0  0  0  0
  -23.6259   18.4372  -26.9395 C   0  0  0  0  0  0  0  0  0  0  0  0
  -23.9975   18.6761  -25.5631 N   0  0  0  0  0  0  0  0  0  0  0  0
  -23.4070   17.7202  -24.6662 C   0  0  0  0  0  0  0  0  0  0  0  0
  -22.1008   18.2542  -24.1337 C   0  0  0  0  0  0  0  0  0  0  0  0
  -22.2684   19.4006  -23.3200 N   0  0  0  0  0  0  0  0  0  0  0  0
  -23.4591   20.1503  -23.7081 C   0  0  0  0  0  0  0  0  0  0  0  0
  -23.7338   20.0346  -25.1731 C   0  0  0  0  0  0  0  0  0  0  0  0
  -18.0828   12.2576  -22.1056 N   0  0  0  0  0  0  0  0  0  0  0  0
  -18.9908   11.8928  -22.4763 H   0  0  0  0  0  0  0  0  0  0  0  0
  -17.7233   11.8513  -20.8175 C   0  0  0  0  0  0  0  0  0  0  0  0
  -18.4936   12.3321  -19.7659 C   0  0  0  0  0  0  0  0  0  0  0  0
  -18.0990   12.1046  -18.4393 C   0  0  0  0  0  0  0  0  0  0  0  0
  -16.9744   11.4111  -18.1946 C   0  0  0  0  0  0  0  0  0  0  0  0
  -16.1917   10.9184  -19.2377 C   0  0  0  0  0  0  0  0  0  0  0  0
  -16.5938   11.1571  -20.5500 C   0  0  0  0  0  0  0  0  0  0  0  0
  -15.7010   10.6118  -21.6135 C   0  0  0  0  0  0  0  0  0  0  0  0
  -18.9455   12.7792  -17.4163 C   0  0  0  0  0  0  0  0  0  0  0  0
  -19.2400   12.1447  -16.3891 O   0  0  0  0  0  0  0  0  0  0  0  0
  -19.3638   14.0794  -17.6817 N   0  0  0  0  0  0  0  0  0  0  0  0
  -18.9872   14.4966  -18.6178 H   0  0  0  0  0  0  0  0  0  0  0  0
  -20.1781   14.9564  -16.9591 C   0  0  0  0  0  0  0  0  0  0  0  0
  -21.5573   14.6844  -16.8261 C   0  0  0  0  0  0  0  0  0  0  0  0
  -22.3704   15.4959  -16.0941 C   0  0  0  0  0  0  0  0  0  0  0  0
  -21.8804   16.6242  -15.4538 C   0  0  0  0  0  0  0  0  0  0  0  0
  -20.5289   16.9022  -15.5784 C   0  0  0  0  0  0  0  0  0  0  0  0
  -19.7075   16.0684  -16.3227 C   0  0  0  0  0  0  0  0  0  0  0  0
  -19.9923   18.1080  -14.8859 C   0  0  0  0  0  0  0  0  0  0  0  0
  -20.9168   19.1500  -15.0467 F   0  0  0  0  0  0  0  0  0  0  0  0
  -18.7881   18.4552  -15.4839 F   0  0  0  0  0  0  0  0  0  0  0  0
  -19.7563   17.8707  -13.5618 F   0  0  0  0  0  0  0  0  0  0  0  0
 21 22  1  0  0  0
 22 23  1  0  0  0
 23 24  1  0  0  0
 24 25  1  0  0  0
 25 20  1  0  0  0
 20 19  1  0  0  0
 19 18  1  0  0  0
 18 16  1  0  0  0
 16 10  1  0  0  0
 10 11  2  0  0  0
 11 12  1  0  0  0
 12 13  2  0  0  0
 13 14  1  0  0  0
 14 15  2  0  0  0
 12  1  1  0  0  0
  1  2  1  0  0  0
  2 28  1  0  0  0
 28 30  1  0  0  0
 30 31  2  0  0  0
 31 32  1  0  0  0
 32 33  2  0  0  0
 33 34  1  0  0  0
 34 35  2  0  0  0
 35 36  1  0  0  0
 32 37  1  0  0  0
 37 38  2  0  0  0
 37 39  1  0  0  0
 39 41  1  0  0  0
 41 42  2  0  0  0
 42 43  1  0  0  0
 43 44  2  0  0  0
 44 45  1  0  0  0
 45 46  2  0  0  0
 45 47  1  0  0  0
 47 48  1  0  0  0
 47 49  1  0  0  0
 47 50  1  0  0  0
  2  3  2  0  0  0
  3  4  1  0  0  0
  4  5  2  0  0  0
  5  6  1  0  0  0
  6  7  2  0  0  0
  7  8  1  0  0  0
  8  9  2  0  0  0
 25 26  1  0  0  0
 26 27  1  0  0  0
 27 22  1  0  0  0
 15 10  1  0  0  0
  9  1  1  0  0  0
 35 30  1  0  0  0
 46 41  1  0  0  0
  9  4  1  0  0  0
 16 17  1  0  0  0
 28 29  1  0  0  0
 39 40  1  0  0  0
M  END
> <minimizedAffinity>
-9.20572

> <CNNscore>
0.0584165752

> <CNNaffinity>
7.1079115868

> <CNN_VS>
0.4152198434

> <CNNaffinity_variance>
0.7051448822

$$$$
[H]OC1([H])C([H])([H])C([H])([H])N(C([H])([H])C([H])([H])c2c([H])c([H])c(-n3c([H])c(-c4c([H])c([H])c([H])c(OC([H])([H])[H])c4[H])c4c(N([H])[H])nc([H])nc43)c([H])c2[H])C([H])([H])C1([H])[H]


 36 40  0  0  0  0  0  0  0  0999 V2000
  -16.5619   13.5759  -22.4157 C   0  0  0  0  0  0  0  0  0  0  0  0
  -17.5246   14.3432  -21.7433 C   0  0  0  0  0  0  0  0  0  0  0  0
  -17.9428   13.5991  -20.7127 N   0  0  0  0  0  0  0  0  0  0  0  0
  -17.2996   12.4119  -20.7007 C   0  0  0  0  0  0  0  0  0  0  0  0
  -17.3941   11.3453  -19.8657 N   0  0  0  0  0  0  0  0  0  0  0  0
  -16.6492   10.2612  -20.0674 C   0  0  0  0  0  0  0  0  0  0  0  0
  -15.7995   10.2207  -21.1023 N   0  0  0  0  0  0  0  0  0  0  0  0
  -15.6766   11.2588  -21.9533 C   0  0  0  0  0  0  0  0  0  0  0  0
  -14.7879   11.1743  -23.0522 N   0  0  0  0  0  0  0  0  0  0  0  0
  -16.4278   12.3900  -21.7722 C   0  0  0  0  0  0  0  0  0  0  0  0
  -13.7695   11.1091  -22.8526 H   0  0  0  0  0  0  0  0  0  0  0  0
  -15.1788   11.1798  -24.0150 H   0  0  0  0  0  0  0  0  0  0  0  0
  -15.9397   14.5532  -25.9403 C   0  0  0  0  0  0  0  0  0  0  0  0
  -14.6106   14.9046  -25.9029 C   0  0  0  0  0  0  0  0  0  0  0  0
  -13.8975   14.8349  -24.7294 C   0  0  0  0  0  0  0  0  0  0  0  0
  -14.5044   14.4120  -23.5739 C   0  0  0  0  0  0  0  0  0  0  0  0
  -15.8319   14.0540  -23.5831 C   0  0  0  0  0  0  0  0  0  0  0  0
  -16.5522   14.1289  -24.7873 C   0  0  0  0  0  0  0  0  0  0  0  0
  -16.1296   15.3733  -28.2213 C   0  0  0  0  0  0  0  0  0  0  0  0
  -16.6631   14.6274  -27.1444 O   0  0  0  0  0  0  0  0  0  0  0  0
  -18.9155   13.9241  -19.7307 C   0  0  0  0  0  0  0  0  0  0  0  0
  -20.2473   13.9673  -20.0613 C   0  0  0  0  0  0  0  0  0  0  0  0
  -21.2294   14.2844  -19.1350 C   0  0  0  0  0  0  0  0  0  0  0  0
  -20.8874   14.5695  -17.8342 C   0  0  0  0  0  0  0  0  0  0  0  0
  -19.5585   14.5312  -17.4833 C   0  0  0  0  0  0  0  0  0  0  0  0
  -18.5855   14.2109  -18.4267 C   0  0  0  0  0  0  0  0  0  0  0  0
  -21.9450   14.9205  -16.8178 C   0  0  0  0  0  0  0  0  0  0  0  0
  -22.3681   16.3325  -17.0837 C   0  0  0  0  0  0  0  0  0  0  0  0
  -21.2568   17.1802  -17.4729 N   0  0  0  0  0  0  0  0  0  0  0  0
  -21.6851   18.1584  -18.4795 C   0  0  0  0  0  0  0  0  0  0  0  0
  -20.4095   18.7386  -19.0639 C   0  0  0  0  0  0  0  0  0  0  0  0
  -19.5883   19.4368  -18.0034 C   0  0  0  0  0  0  0  0  0  0  0  0
  -18.2890   19.5316  -18.4969 O   0  0  0  0  0  0  0  0  0  0  0  0
  -19.5325   18.6493  -16.7184 C   0  0  0  0  0  0  0  0  0  0  0  0
  -20.8227   18.0052  -16.3356 C   0  0  0  0  0  0  0  0  0  0  0  0
  -17.9710   20.4595  -18.4585 H   0  0  0  0  0  0  0  0  0  0  0  0
 19 20  1  0  0  0
 20 13  1  0  0  0
 13 14  2  0  0  0
 14 15  1  0  0  0
 15 16  2  0  0  0
 16 17  1  0  0  0
 17 18  2  0  0  0
 17  1  1  0  0  0
  1  2  2  0  0  0
  2  3  1  0  0  0
  3 21  1  0  0  0
 21 22  2  0  0  0
 22 23  1  0  0  0
 23 24  2  0  0  0
 24 27  1  0  0  0
 27 28  1  0  0  0
 28 29  1  0  0  0
 29 30  1  0  0  0
 30 31  1  0  0  0
 31 32  1  0  0  0
 32 33  1  0  0  0
 32 34  1  0  0  0
 34 35  1  0  0  0
 24 25  1  0  0  0
 25 26  2  0  0  0
  3  4  1  0  0  0
  4  5  2  0  0  0
  5  6  1  0  0  0
  6  7  2  0  0  0
  7  8  1  0  0  0
  8  9  1  0  0  0
  8 10  2  0  0  0
 18 13  1  0  0  0
 10  1  1  0  0  0
 26 21  1  0  0  0
 10  4  1  0  0  0
 35 29  1  0  0  0
 33 36  1  0  0  0
  9 11  1  0  0  0
  9 12  1  0  0  0
M  END
> <minimizedAffinity>
-9.11705

> <CNNscore>
0.9650936127

> <CNNaffinity>
7.8174924850

> <CNN_VS>
7.5446119308

> <CNNaffinity_variance>
0.0671030134

$$$$
[H]OC1([H])C([H])([H])C([H])([H])N(C([H])([H])C([H])([H])c2c([H])c([H])c(-n3c([H])c(-c4c([H])c([H])c([H])c(OC([H])([H])[H])c4[H])c4c(N([H])[H])nc([H])nc43)c([H])c2[H])C([H])([H])C1([H])[H]


 36 40  0  0  0  0  0  0  0  0999 V2000
  -16.5890   13.5107  -22.1271 C   0  0  0  0  0  0  0  0  0  0  0  0
  -17.4601   14.3123  -21.3746 C   0  0  0  0  0  0  0  0  0  0  0  0
  -17.8441   13.5691  -20.3302 N   0  0  0  0  0  0  0  0  0  0  0  0
  -17.2658   12.3502  -20.3849 C   0  0  0  0  0  0  0  0  0  0  0  0
  -17.3582   11.2723  -19.5642 N   0  0  0  0  0  0  0  0  0  0  0  0
  -16.6880   10.1556  -19.8373 C   0  0  0  0  0  0  0  0  0  0  0  0
  -15.9162   10.0932  -20.9306 N   0  0  0  0  0  0  0  0  0  0  0  0
  -15.7981   11.1414  -21.7696 C   0  0  0  0  0  0  0  0  0  0  0  0
  -14.9942   11.0345  -22.9303 N   0  0  0  0  0  0  0  0  0  0  0  0
  -16.4735   12.3059  -21.5158 C   0  0  0  0  0  0  0  0  0  0  0  0
  -13.9693   10.9123  -22.8047 H   0  0  0  0  0  0  0  0  0  0  0  0
  -15.4507   11.0808  -23.8626 H   0  0  0  0  0  0  0  0  0  0  0  0
  -16.0863   14.2824  -25.7212 C   0  0  0  0  0  0  0  0  0  0  0  0
  -14.8024   14.7750  -25.7248 C   0  0  0  0  0  0  0  0  0  0  0  0
  -14.0820   14.8695  -24.5574 C   0  0  0  0  0  0  0  0  0  0  0  0
  -14.6365   14.4719  -23.3671 C   0  0  0  0  0  0  0  0  0  0  0  0
  -15.9181   13.9751  -23.3349 C   0  0  0  0  0  0  0  0  0  0  0  0
  -16.6463   13.8827  -24.5331 C   0  0  0  0  0  0  0  0  0  0  0  0
  -16.4272   14.9795  -28.0253 C   0  0  0  0  0  0  0  0  0  0  0  0
  -16.8174   14.1889  -26.9192 O   0  0  0  0  0  0  0  0  0  0  0  0
  -18.7270   13.9231  -19.2761 C   0  0  0  0  0  0  0  0  0  0  0  0
  -19.8016   13.1239  -18.9735 C   0  0  0  0  0  0  0  0  0  0  0  0
  -20.6908   13.4344  -17.9556 C   0  0  0  0  0  0  0  0  0  0  0  0
  -20.5152   14.5743  -17.2072 C   0  0  0  0  0  0  0  0  0  0  0  0
  -19.4444   15.3877  -17.4947 C   0  0  0  0  0  0  0  0  0  0  0  0
  -18.5615   15.0605  -18.5207 C   0  0  0  0  0  0  0  0  0  0  0  0
  -21.4773   14.9263  -16.1003 C   0  0  0  0  0  0  0  0  0  0  0  0
  -21.6064   16.4184  -16.0792 C   0  0  0  0  0  0  0  0  0  0  0  0
  -21.3579   16.9777  -14.7638 N   0  0  0  0  0  0  0  0  0  0  0  0
  -20.3079   18.0007  -14.8308 C   0  0  0  0  0  0  0  0  0  0  0  0
  -19.8853   18.2568  -13.3951 C   0  0  0  0  0  0  0  0  0  0  0  0
  -21.0397   18.7761  -12.5679 C   0  0  0  0  0  0  0  0  0  0  0  0
  -20.7095   18.5569  -11.2323 O   0  0  0  0  0  0  0  0  0  0  0  0
  -22.3206   18.0315  -12.8498 C   0  0  0  0  0  0  0  0  0  0  0  0
  -22.5412   17.7111  -14.2902 C   0  0  0  0  0  0  0  0  0  0  0  0
  -20.7881   19.3878  -10.7155 H   0  0  0  0  0  0  0  0  0  0  0  0
 19 20  1  0  0  0
 20 13  1  0  0  0
 13 14  2  0  0  0
 14 15  1  0  0  0
 15 16  2  0  0  0
 16 17  1  0  0  0
 17 18  2  0  0  0
 17  1  1  0  0  0
  1  2  2  0  0  0
  2  3  1  0  0  0
  3 21  1  0  0  0
 21 22  2  0  0  0
 22 23  1  0  0  0
 23 24  2  0  0  0
 24 27  1  0  0  0
 27 28  1  0  0  0
 28 29  1  0  0  0
 29 30  1  0  0  0
 30 31  1  0  0  0
 31 32  1  0  0  0
 32 33  1  0  0  0
 32 34  1  0  0  0
 34 35  1  0  0  0
 24 25  1  0  0  0
 25 26  2  0  0  0
  3  4  1  0  0  0
  4  5  2  0  0  0
  5  6  1  0  0  0
  6  7  2  0  0  0
  7  8  1  0  0  0
  8  9  1  0  0  0
  8 10  2  0  0  0
 18 13  1  0  0  0
 10  1  1  0  0  0
 26 21  1  0  0  0
 10  4  1  0  0  0
 35 29  1  0  0  0
 33 36  1  0  0  0
  9 11  1  0  0  0
  9 12  1  0  0  0
M  END
> <minimizedAffinity>
-8.60096

> <CNNscore>
0.9541329741

> <CNNaffinity>
7.5785598755

> <CNN_VS>
7.2309536934

> <CNNaffinity_variance>
0.1013319045

$$$$
[H]OC1([H])C([H])([H])C([H])([H])N(C([H])([H])C([H])([H])c2c([H])c([H])c(-n3c([H])c(-c4c([H])c([H])c([H])c(OC([H])([H])[H])c4[H])c4c(N([H])[H])nc([H])nc43)c([H])c2[H])C([H])([H])C1([H])[H]


 36 40  0  0  0  0  0  0  0  0999 V2000
  -17.6604   13.2528  -21.5698 C   0  0  0  0  0  0  0  0  0  0  0  0
  -18.6086   13.5550  -20.5813 C   0  0  0  0  0  0  0  0  0  0  0  0
  -18.5137   12.5860  -19.6633 N   0  0  0  0  0  0  0  0  0  0  0  0
  -17.5633   11.6954  -20.0190 C   0  0  0  0  0  0  0  0  0  0  0  0
  -17.1226   10.5606  -19.4173 N   0  0  0  0  0  0  0  0  0  0  0  0
  -16.1626    9.8282  -19.9766 C   0  0  0  0  0  0  0  0  0  0  0  0
  -15.6264   10.2124  -21.1426 N   0  0  0  0  0  0  0  0  0  0  0  0
  -16.0363   11.3322  -21.7709 C   0  0  0  0  0  0  0  0  0  0  0  0
  -15.4670   11.6969  -23.0149 N   0  0  0  0  0  0  0  0  0  0  0  0
  -17.0214   12.1090  -21.2206 C   0  0  0  0  0  0  0  0  0  0  0  0
  -14.4598   11.9545  -23.0341 H   0  0  0  0  0  0  0  0  0  0  0  0
  -16.0691   11.6952  -23.8619 H   0  0  0  0  0  0  0  0  0  0  0  0
  -15.7681   15.2141  -24.0874 C   0  0  0  0  0  0  0  0  0  0  0  0
  -16.7806   15.7077  -24.8763 C   0  0  0  0  0  0  0  0  0  0  0  0
  -18.0943   15.4055  -24.6054 C   0  0  0  0  0  0  0  0  0  0  0  0
  -18.4151   14.6036  -23.5394 C   0  0  0  0  0  0  0  0  0  0  0  0
  -17.4227   14.0971  -22.7339 C   0  0  0  0  0  0  0  0  0  0  0  0
  -16.0831   14.4114  -23.0191 C   0  0  0  0  0  0  0  0  0  0  0  0
  -13.8896   15.1719  -25.6303 C   0  0  0  0  0  0  0  0  0  0  0  0
  -14.4264   15.5271  -24.3708 O   0  0  0  0  0  0  0  0  0  0  0  0
  -19.2616   12.4323  -18.4662 C   0  0  0  0  0  0  0  0  0  0  0  0
  -20.0113   13.4738  -17.9781 C   0  0  0  0  0  0  0  0  0  0  0  0
  -20.7526   13.3682  -16.8108 C   0  0  0  0  0  0  0  0  0  0  0  0
  -20.7562   12.1928  -16.0975 C   0  0  0  0  0  0  0  0  0  0  0  0
  -20.0118   11.1378  -16.5703 C   0  0  0  0  0  0  0  0  0  0  0  0
  -19.2731   11.2617  -17.7443 C   0  0  0  0  0  0  0  0  0  0  0  0
  -21.5543   12.0658  -14.8240 C   0  0  0  0  0  0  0  0  0  0  0  0
  -21.4564   10.6398  -14.3766 C   0  0  0  0  0  0  0  0  0  0  0  0
  -21.0445   10.5206  -12.9906 N   0  0  0  0  0  0  0  0  0  0  0  0
  -19.5807   10.4961  -12.8902 C   0  0  0  0  0  0  0  0  0  0  0  0
  -19.2689   10.0216  -11.4820 C   0  0  0  0  0  0  0  0  0  0  0  0
  -19.8269   10.9722  -10.4468 C   0  0  0  0  0  0  0  0  0  0  0  0
  -19.8984   10.2661   -9.2480 O   0  0  0  0  0  0  0  0  0  0  0  0
  -21.2218   11.4310  -10.7905 C   0  0  0  0  0  0  0  0  0  0  0  0
  -21.4339   11.7226  -12.2383 C   0  0  0  0  0  0  0  0  0  0  0  0
  -19.4388   10.7541   -8.5309 H   0  0  0  0  0  0  0  0  0  0  0  0
 19 20  1  0  0  0
 20 13  1  0  0  0
 13 14  2  0  0  0
 14 15  1  0  0  0
 15 16  2  0  0  0
 16 17  1  0  0  0
 17 18  2  0  0  0
 17  1  1  0  0  0
  1  2  2  0  0  0
  2  3  1  0  0  0
  3 21  1  0  0  0
 21 22  2  0  0  0
 22 23  1  0  0  0
 23 24  2  0  0  0
 24 27  1  0  0  0
 27 28  1  0  0  0
 28 29  1  0  0  0
 29 30  1  0  0  0
 30 31  1  0  0  0
 31 32  1  0  0  0
 32 33  1  0  0  0
 32 34  1  0  0  0
 34 35  1  0  0  0
 24 25  1  0  0  0
 25 26  2  0  0  0
  3  4  1  0  0  0
  4  5  2  0  0  0
  5  6  1  0  0  0
  6  7  2  0  0  0
  7  8  1  0  0  0
  8  9  1  0  0  0
  8 10  2  0  0  0
 18 13  1  0  0  0
 10  1  1  0  0  0
 26 21  1  0  0  0
 10  4  1  0  0  0
 35 29  1  0  0  0
 33 36  1  0  0  0
  9 11  1  0  0  0
  9 12  1  0  0  0
M  END
> <minimizedAffinity>
-8.78216

> <CNNscore>
0.9476808310

> <CNNaffinity>
7.3005232811

> <CNN_VS>
6.9185657501

> <CNNaffinity_variance>
0.0566276684

$$$$
[H]OC1([H])C([H])([H])C([H])([H])N(C([H])([H])C([H])([H])c2c([H])c([H])c(-n3c([H])c(-c4c([H])c([H])c([H])c(OC([H])([H])[H])c4[H])c4c(N([H])[H])nc([H])nc43)c([H])c2[H])C([H])([H])C1([H])[H]


 36 40  0  0  0  0  0  0  0  0999 V2000
  -17.2890   12.9941  -22.2346 C   0  0  0  0  0  0  0  0  0  0  0  0
  -18.2237   13.6760  -21.4417 C   0  0  0  0  0  0  0  0  0  0  0  0
  -18.2088   13.0755  -20.2459 N   0  0  0  0  0  0  0  0  0  0  0  0
  -17.3210   12.0581  -20.2439 C   0  0  0  0  0  0  0  0  0  0  0  0
  -16.9697   11.1719  -19.2770 N   0  0  0  0  0  0  0  0  0  0  0  0
  -16.0589   10.2326  -19.5197 C   0  0  0  0  0  0  0  0  0  0  0  0
  -15.4838   10.1597  -20.7275 N   0  0  0  0  0  0  0  0  0  0  0  0
  -15.8052   11.0209  -21.7133 C   0  0  0  0  0  0  0  0  0  0  0  0
  -15.1977   10.9010  -22.9866 N   0  0  0  0  0  0  0  0  0  0  0  0
  -16.7378   12.0004  -21.4949 C   0  0  0  0  0  0  0  0  0  0  0  0
  -14.1744   11.0716  -23.0572 H   0  0  0  0  0  0  0  0  0  0  0  0
  -15.7890   10.6482  -23.8028 H   0  0  0  0  0  0  0  0  0  0  0  0
  -15.5352   14.6616  -25.0469 C   0  0  0  0  0  0  0  0  0  0  0  0
  -16.2613   14.2227  -26.1292 C   0  0  0  0  0  0  0  0  0  0  0  0
  -17.3290   13.3728  -25.9619 C   0  0  0  0  0  0  0  0  0  0  0  0
  -17.6868   12.9485  -24.7072 C   0  0  0  0  0  0  0  0  0  0  0  0
  -16.9785   13.3723  -23.6076 C   0  0  0  0  0  0  0  0  0  0  0  0
  -15.8887   14.2406  -23.7889 C   0  0  0  0  0  0  0  0  0  0  0  0
  -14.2917   16.1964  -26.4645 C   0  0  0  0  0  0  0  0  0  0  0  0
  -14.4438   15.5308  -25.2257 O   0  0  0  0  0  0  0  0  0  0  0  0
  -18.9788   13.3886  -19.0948 C   0  0  0  0  0  0  0  0  0  0  0  0
  -20.3444   13.4989  -19.1826 C   0  0  0  0  0  0  0  0  0  0  0  0
  -21.1337   13.8072  -18.0849 C   0  0  0  0  0  0  0  0  0  0  0  0
  -20.5567   14.0145  -16.8542 C   0  0  0  0  0  0  0  0  0  0  0  0
  -19.1901   13.9082  -16.7457 C   0  0  0  0  0  0  0  0  0  0  0  0
  -18.4129   13.5979  -17.8588 C   0  0  0  0  0  0  0  0  0  0  0  0
  -21.4029   14.3551  -15.6531 C   0  0  0  0  0  0  0  0  0  0  0  0
  -22.0544   13.0875  -15.1925 C   0  0  0  0  0  0  0  0  0  0  0  0
  -21.1150   11.9865  -15.0912 N   0  0  0  0  0  0  0  0  0  0  0  0
  -20.9401   11.5880  -13.6897 C   0  0  0  0  0  0  0  0  0  0  0  0
  -19.7080   10.7012  -13.6608 C   0  0  0  0  0  0  0  0  0  0  0  0
  -19.9005    9.4669  -14.5130 C   0  0  0  0  0  0  0  0  0  0  0  0
  -18.6304    8.9663  -14.7903 O   0  0  0  0  0  0  0  0  0  0  0  0
  -20.5640    9.7839  -15.8297 C   0  0  0  0  0  0  0  0  0  0  0  0
  -21.6656   10.7859  -15.7377 C   0  0  0  0  0  0  0  0  0  0  0  0
  -18.5709    8.0178  -14.5445 H   0  0  0  0  0  0  0  0  0  0  0  0
 19 20  1  0  0  0
 20 13  1  0  0  0
 13 14  2  0  0  0
 14 15  1  0  0  0
 15 16  2  0  0  0
 16 17  1  0  0  0
 17 18  2  0  0  0
 17  1  1  0  0  0
  1  2  2  0  0  0
  2  3  1  0  0  0
  3 21  1  0  0  0
 21 22  2  0  0  0
 22 23  1  0  0  0
 23 24  2  0  0  0
 24 27  1  0  0  0
 27 28  1  0  0  0
 28 29  1  0  0  0
 29 30  1  0  0  0
 30 31  1  0  0  0
 31 32  1  0  0  0
 32 33  1  0  0  0
 32 34  1  0  0  0
 34 35  1  0  0  0
 24 25  1  0  0  0
 25 26  2  0  0  0
  3  4  1  0  0  0
  4  5  2  0  0  0
  5  6  1  0  0  0
  6  7  2  0  0  0
  7  8  1  0  0  0
  8  9  1  0  0  0
  8 10  2  0  0  0
 18 13  1  0  0  0
 10  1  1  0  0  0
 26 21  1  0  0  0
 10  4  1  0  0  0
 35 29  1  0  0  0
 33 36  1  0  0  0
  9 11  1  0  0  0
  9 12  1  0  0  0
M  END
> <minimizedAffinity>
-8.95321

> <CNNscore>
0.9404839873

> <CNNaffinity>
7.4878664017

> <CNN_VS>
7.0422186852

> <CNNaffinity_variance>
0.1471111178

$$$$
[H]OC1([H])C([H])([H])C([H])([H])N(C([H])([H])C([H])([H])c2c([H])c([H])c(-n3c([H])c(-c4c([H])c([H])c([H])c(OC([H])([H])[H])c4[H])c4c(N([H])[H])nc([H])nc43)c([H])c2[H])C([H])([H])C1([H])[H]


 36 40  0  0  0  0  0  0  0  0999 V2000
  -17.3869   13.1164  -22.1332 C   0  0  0  0  0  0  0  0  0  0  0  0
  -18.2921   13.9314  -21.4375 C   0  0  0  0  0  0  0  0  0  0  0  0
  -18.3262   13.4664  -20.1832 N   0  0  0  0  0  0  0  0  0  0  0  0
  -17.4969   12.4089  -20.0530 C   0  0  0  0  0  0  0  0  0  0  0  0
  -17.2083   11.6169  -18.9885 N   0  0  0  0  0  0  0  0  0  0  0  0
  -16.3484   10.6086  -19.1097 C   0  0  0  0  0  0  0  0  0  0  0  0
  -15.7628   10.3719  -20.2912 N   0  0  0  0  0  0  0  0  0  0  0  0
  -16.0228   11.1352  -21.3712 C   0  0  0  0  0  0  0  0  0  0  0  0
  -15.4066   10.8429  -22.6120 N   0  0  0  0  0  0  0  0  0  0  0  0
  -16.9018   12.1819  -21.2790 C   0  0  0  0  0  0  0  0  0  0  0  0
  -14.3745   10.9489  -22.6815 H   0  0  0  0  0  0  0  0  0  0  0  0
  -16.0006   10.5340  -23.4066 H   0  0  0  0  0  0  0  0  0  0  0  0
  -15.4758   14.3211  -25.0764 C   0  0  0  0  0  0  0  0  0  0  0  0
  -16.2366   13.8445  -26.1182 C   0  0  0  0  0  0  0  0  0  0  0  0
  -17.3798   13.1188  -25.8799 C   0  0  0  0  0  0  0  0  0  0  0  0
  -17.7796   12.8585  -24.5935 C   0  0  0  0  0  0  0  0  0  0  0  0
  -17.0381   13.3236  -23.5332 C   0  0  0  0  0  0  0  0  0  0  0  0
  -15.8712   14.0640  -23.7871 C   0  0  0  0  0  0  0  0  0  0  0  0
  -14.3172   16.0320  -26.3577 C   0  0  0  0  0  0  0  0  0  0  0  0
  -14.3072   15.0625  -25.3278 O   0  0  0  0  0  0  0  0  0  0  0  0
  -19.0922   13.9459  -19.0880 C   0  0  0  0  0  0  0  0  0  0  0  0
  -20.4401   13.6941  -19.0212 C   0  0  0  0  0  0  0  0  0  0  0  0
  -21.2261   14.1472  -17.9724 C   0  0  0  0  0  0  0  0  0  0  0  0
  -20.6638   14.8754  -16.9507 C   0  0  0  0  0  0  0  0  0  0  0  0
  -19.3149   15.1378  -16.9992 C   0  0  0  0  0  0  0  0  0  0  0  0
  -18.5408   14.6750  -18.0603 C   0  0  0  0  0  0  0  0  0  0  0  0
  -21.5079   15.3782  -15.8064 C   0  0  0  0  0  0  0  0  0  0  0  0
  -21.0427   16.7652  -15.4849 C   0  0  0  0  0  0  0  0  0  0  0  0
  -22.0516   17.7682  -15.7698 N   0  0  0  0  0  0  0  0  0  0  0  0
  -21.8658   18.3145  -17.1190 C   0  0  0  0  0  0  0  0  0  0  0  0
  -22.7199   19.5683  -17.1807 C   0  0  0  0  0  0  0  0  0  0  0  0
  -24.1819   19.2472  -16.9664 C   0  0  0  0  0  0  0  0  0  0  0  0
  -24.8058   20.4362  -16.5952 O   0  0  0  0  0  0  0  0  0  0  0  0
  -24.3876   18.2554  -15.8489 C   0  0  0  0  0  0  0  0  0  0  0  0
  -23.3854   17.1507  -15.8152 C   0  0  0  0  0  0  0  0  0  0  0  0
  -25.5794   20.6159  -17.1721 H   0  0  0  0  0  0  0  0  0  0  0  0
 19 20  1  0  0  0
 20 13  1  0  0  0
 13 14  2  0  0  0
 14 15  1  0  0  0
 15 16  2  0  0  0
 16 17  1  0  0  0
 17 18  2  0  0  0
 17  1  1  0  0  0
  1  2  2  0  0  0
  2  3  1  0  0  0
  3 21  1  0  0  0
 21 22  2  0  0  0
 22 23  1  0  0  0
 23 24  2  0  0  0
 24 27  1  0  0  0
 27 28  1  0  0  0
 28 29  1  0  0  0
 29 30  1  0  0  0
 30 31  1  0  0  0
 31 32  1  0  0  0
 32 33  1  0  0  0
 32 34  1  0  0  0
 34 35  1  0  0  0
 24 25  1  0  0  0
 25 26  2  0  0  0
  3  4  1  0  0  0
  4  5  2  0  0  0
  5  6  1  0  0  0
  6  7  2  0  0  0
  7  8  1  0  0  0
  8  9  1  0  0  0
  8 10  2  0  0  0
 18 13  1  0  0  0
 10  1  1  0  0  0
 26 21  1  0  0  0
 10  4  1  0  0  0
 35 29  1  0  0  0
 33 36  1  0  0  0
  9 11  1  0  0  0
  9 12  1  0  0  0
M  END
> <minimizedAffinity>
-7.85737

> <CNNscore>
0.9107375145

> <CNNaffinity>
7.4521651268

> <CNN_VS>
6.7869663239

> <CNNaffinity_variance>
0.1405772418

$$$$
[H]OC1([H])C([H])([H])C([H])([H])N(C([H])([H])C([H])([H])c2c([H])c([H])c(-n3c([H])c(-c4c([H])c([H])c([H])c(OC([H])([H])[H])c4[H])c4c(N([H])[H])nc([H])nc43)c([H])c2[H])C([H])([H])C1([H])[H]


 36 40  0  0  0  0  0  0  0  0999 V2000
  -17.7915   13.4350  -21.4062 C   0  0  0  0  0  0  0  0  0  0  0  0
  -18.6138   13.2093  -20.2924 C   0  0  0  0  0  0  0  0  0  0  0  0
  -18.2130   12.0486  -19.7607 N   0  0  0  0  0  0  0  0  0  0  0  0
  -17.1896   11.5344  -20.4758 C   0  0  0  0  0  0  0  0  0  0  0  0
  -16.4726   10.3909  -20.3273 N   0  0  0  0  0  0  0  0  0  0  0  0
  -15.4986   10.0881  -21.1819 C   0  0  0  0  0  0  0  0  0  0  0  0
  -15.2229   10.9172  -22.1975 N   0  0  0  0  0  0  0  0  0  0  0  0
  -15.9115   12.0616  -22.3788 C   0  0  0  0  0  0  0  0  0  0  0  0
  -15.6122   12.9037  -23.4770 N   0  0  0  0  0  0  0  0  0  0  0  0
  -16.9189   12.4030  -21.5155 C   0  0  0  0  0  0  0  0  0  0  0  0
  -14.6796   13.3630  -23.5001 H   0  0  0  0  0  0  0  0  0  0  0  0
  -16.3282   13.0342  -24.2187 H   0  0  0  0  0  0  0  0  0  0  0  0
  -17.6604   17.0264  -22.3283 C   0  0  0  0  0  0  0  0  0  0  0  0
  -18.0384   16.9900  -23.6500 C   0  0  0  0  0  0  0  0  0  0  0  0
  -18.3361   15.7962  -24.2638 C   0  0  0  0  0  0  0  0  0  0  0  0
  -18.2599   14.6190  -23.5632 C   0  0  0  0  0  0  0  0  0  0  0  0
  -17.8852   14.6266  -22.2403 C   0  0  0  0  0  0  0  0  0  0  0  0
  -17.5827   15.8517  -21.6221 C   0  0  0  0  0  0  0  0  0  0  0  0
  -17.2764   18.3043  -20.2959 C   0  0  0  0  0  0  0  0  0  0  0  0
  -17.3570   18.2514  -21.7071 O   0  0  0  0  0  0  0  0  0  0  0  0
  -18.7296   11.3786  -18.6204 C   0  0  0  0  0  0  0  0  0  0  0  0
  -19.6286   12.0071  -17.7947 C   0  0  0  0  0  0  0  0  0  0  0  0
  -20.1544   11.3915  -16.6688 C   0  0  0  0  0  0  0  0  0  0  0  0
  -19.7814   10.1087  -16.3437 C   0  0  0  0  0  0  0  0  0  0  0  0
  -18.8821    9.4621  -17.1586 C   0  0  0  0  0  0  0  0  0  0  0  0
  -18.3641   10.0957  -18.2853 C   0  0  0  0  0  0  0  0  0  0  0  0
  -20.3419    9.4291  -15.1195 C   0  0  0  0  0  0  0  0  0  0  0  0
  -20.3047   10.4241  -14.0006 C   0  0  0  0  0  0  0  0  0  0  0  0
  -19.3927   10.0339  -12.9419 N   0  0  0  0  0  0  0  0  0  0  0  0
  -19.7909   10.6466  -11.6693 C   0  0  0  0  0  0  0  0  0  0  0  0
  -18.6062   10.4724  -10.7358 C   0  0  0  0  0  0  0  0  0  0  0  0
  -18.2942    9.0098  -10.5125 C   0  0  0  0  0  0  0  0  0  0  0  0
  -16.9836    8.9439  -10.0447 O   0  0  0  0  0  0  0  0  0  0  0  0
  -18.3634    8.2127  -11.7909 C   0  0  0  0  0  0  0  0  0  0  0  0
  -19.4936    8.5887  -12.6894 C   0  0  0  0  0  0  0  0  0  0  0  0
  -16.9399    8.4315   -9.2085 H   0  0  0  0  0  0  0  0  0  0  0  0
 19 20  1  0  0  0
 20 13  1  0  0  0
 13 14  2  0  0  0
 14 15  1  0  0  0
 15 16  2  0  0  0
 16 17  1  0  0  0
 17 18  2  0  0  0
 17  1  1  0  0  0
  1  2  2  0  0  0
  2  3  1  0  0  0
  3 21  1  0  0  0
 21 22  2  0  0  0
 22 23  1  0  0  0
 23 24  2  0  0  0
 24 27  1  0  0  0
 27 28  1  0  0  0
 28 29  1  0  0  0
 29 30  1  0  0  0
 30 31  1  0  0  0
 31 32  1  0  0  0
 32 33  1  0  0  0
 32 34  1  0  0  0
 34 35  1  0  0  0
 24 25  1  0  0  0
 25 26  2  0  0  0
  3  4  1  0  0  0
  4  5  2  0  0  0
  5  6  1  0  0  0
  6  7  2  0  0  0
  7  8  1  0  0  0
  8  9  1  0  0  0
  8 10  2  0  0  0
 18 13  1  0  0  0
 10  1  1  0  0  0
 26 21  1  0  0  0
 10  4  1  0  0  0
 35 29  1  0  0  0
 33 36  1  0  0  0
  9 11  1  0  0  0
  9 12  1  0  0  0
M  END
> <minimizedAffinity>
-8.99139

> <CNNscore>
0.9083307981

> <CNNaffinity>
7.3718705177

> <CNN_VS>
6.6960968971

> <CNNaffinity_variance>
0.1054329872

$$$$
[H]OC1([H])C([H])([H])C([H])([H])N(C([H])([H])C([H])([H])c2c([H])c([H])c(-n3c([H])c(-c4c([H])c([H])c([H])c(OC([H])([H])[H])c4[H])c4c(N([H])[H])nc([H])nc43)c([H])c2[H])C([H])([H])C1([H])[H]


 36 40  0  0  0  0  0  0  0  0999 V2000
  -17.5064   12.9963  -22.0114 C   0  0  0  0  0  0  0  0  0  0  0  0
  -18.5022   13.6371  -21.2595 C   0  0  0  0  0  0  0  0  0  0  0  0
  -18.4881   13.0609  -20.0519 N   0  0  0  0  0  0  0  0  0  0  0  0
  -17.5434   12.0974  -20.0038 C   0  0  0  0  0  0  0  0  0  0  0  0
  -17.1702   11.2514  -19.0094 N   0  0  0  0  0  0  0  0  0  0  0  0
  -16.1997   10.3626  -19.2069 C   0  0  0  0  0  0  0  0  0  0  0  0
  -15.5857   10.3009  -20.3960 N   0  0  0  0  0  0  0  0  0  0  0  0
  -15.9271   11.1233  -21.4079 C   0  0  0  0  0  0  0  0  0  0  0  0
  -15.2760   11.0154  -22.6606 N   0  0  0  0  0  0  0  0  0  0  0  0
  -16.9208   12.0505  -21.2362 C   0  0  0  0  0  0  0  0  0  0  0  0
  -14.2627   11.2442  -22.7054 H   0  0  0  0  0  0  0  0  0  0  0  0
  -15.8273   10.7133  -23.4880 H   0  0  0  0  0  0  0  0  0  0  0  0
  -16.0467   14.9494  -24.8079 C   0  0  0  0  0  0  0  0  0  0  0  0
  -16.4822   14.2396  -25.9023 C   0  0  0  0  0  0  0  0  0  0  0  0
  -17.2525   13.1112  -25.7477 C   0  0  0  0  0  0  0  0  0  0  0  0
  -17.5991   12.6754  -24.4938 C   0  0  0  0  0  0  0  0  0  0  0  0
  -17.1777   13.3664  -23.3823 C   0  0  0  0  0  0  0  0  0  0  0  0
  -16.3906   14.5182  -23.5507 C   0  0  0  0  0  0  0  0  0  0  0  0
  -15.8646   17.3737  -24.8395 C   0  0  0  0  0  0  0  0  0  0  0  0
  -15.2586   16.1026  -24.9737 O   0  0  0  0  0  0  0  0  0  0  0  0
  -19.3087   13.3499  -18.9298 C   0  0  0  0  0  0  0  0  0  0  0  0
  -19.8488   12.3311  -18.1847 C   0  0  0  0  0  0  0  0  0  0  0  0
  -20.6588   12.5685  -17.0844 C   0  0  0  0  0  0  0  0  0  0  0  0
  -20.9478   13.8575  -16.7032 C   0  0  0  0  0  0  0  0  0  0  0  0
  -20.4159   14.8918  -17.4367 C   0  0  0  0  0  0  0  0  0  0  0  0
  -19.6045   14.6349  -18.5389 C   0  0  0  0  0  0  0  0  0  0  0  0
  -21.8311   14.1299  -15.5115 C   0  0  0  0  0  0  0  0  0  0  0  0
  -21.8864   15.6153  -15.3275 C   0  0  0  0  0  0  0  0  0  0  0  0
  -23.2330   16.0929  -15.0754 N   0  0  0  0  0  0  0  0  0  0  0  0
  -24.1121   15.7705  -16.2053 C   0  0  0  0  0  0  0  0  0  0  0  0
  -25.3666   16.6022  -16.0061 C   0  0  0  0  0  0  0  0  0  0  0  0
  -26.0618   16.2450  -14.7117 C   0  0  0  0  0  0  0  0  0  0  0  0
  -26.8982   17.3131  -14.3950 O   0  0  0  0  0  0  0  0  0  0  0  0
  -25.0882   16.0739  -13.5726 C   0  0  0  0  0  0  0  0  0  0  0  0
  -23.8271   15.3677  -13.9425 C   0  0  0  0  0  0  0  0  0  0  0  0
  -27.8157   17.0002  -14.2404 H   0  0  0  0  0  0  0  0  0  0  0  0
 19 20  1  0  0  0
 20 13  1  0  0  0
 13 14  2  0  0  0
 14 15  1  0  0  0
 15 16  2  0  0  0
 16 17  1  0  0  0
 17 18  2  0  0  0
 17  1  1  0  0  0
  1  2  2  0  0  0
  2  3  1  0  0  0
  3 21  1  0  0  0
 21 22  2  0  0  0
 22 23  1  0  0  0
 23 24  2  0  0  0
 24 27  1  0  0  0
 27 28  1  0  0  0
 28 29  1  0  0  0
 29 30  1  0  0  0
 30 31  1  0  0  0
 31 32  1  0  0  0
 32 33  1  0  0  0
 32 34  1  0  0  0
 34 35  1  0  0  0
 24 25  1  0  0  0
 25 26  2  0  0  0
  3  4  1  0  0  0
  4  5  2  0  0  0
  5  6  1  0  0  0
  6  7  2  0  0  0
  7  8  1  0  0  0
  8  9  1  0  0  0
  8 10  2  0  0  0
 18 13  1  0  0  0
 10  1  1  0  0  0
 26 21  1  0  0  0
 10  4  1  0  0  0
 35 29  1  0  0  0
 33 36  1  0  0  0
  9 11  1  0  0  0
  9 12  1  0  0  0
M  END
> <minimizedAffinity>
-7.48432

> <CNNscore>
0.9057583213

> <CNNaffinity>
7.2349481583

> <CNN_VS>
6.5531144142

> <CNNaffinity_variance>
0.1448440999

$$$$
[H]OC1([H])C([H])([H])C([H])([H])N(C([H])([H])C([H])([H])c2c([H])c([H])c(-n3c([H])c(-c4c([H])c([H])c([H])c(OC([H])([H])[H])c4[H])c4c(N([H])[H])nc([H])nc43)c([H])c2[H])C([H])([H])C1([H])[H]


 36 40  0  0  0  0  0  0  0  0999 V2000
  -17.7196   13.5259  -21.5568 C   0  0  0  0  0  0  0  0  0  0  0  0
  -18.4843   13.2178  -20.4220 C   0  0  0  0  0  0  0  0  0  0  0  0
  -18.0172   12.0514  -19.9615 N   0  0  0  0  0  0  0  0  0  0  0  0
  -17.0064   11.6112  -20.7410 C   0  0  0  0  0  0  0  0  0  0  0  0
  -16.2406   10.4918  -20.6750 N   0  0  0  0  0  0  0  0  0  0  0  0
  -15.2931   10.2669  -21.5820 C   0  0  0  0  0  0  0  0  0  0  0  0
  -15.0928   11.1509  -22.5684 N   0  0  0  0  0  0  0  0  0  0  0  0
  -15.8318   12.2738  -22.6682 C   0  0  0  0  0  0  0  0  0  0  0  0
  -15.6120   13.1754  -23.7375 N   0  0  0  0  0  0  0  0  0  0  0  0
  -16.8137   12.5356  -21.7495 C   0  0  0  0  0  0  0  0  0  0  0  0
  -14.6995   13.6723  -23.7774 H   0  0  0  0  0  0  0  0  0  0  0  0
  -16.3635   13.3102  -24.4424 H   0  0  0  0  0  0  0  0  0  0  0  0
  -17.7451   17.1561  -22.3224 C   0  0  0  0  0  0  0  0  0  0  0  0
  -18.1945   17.1649  -23.6221 C   0  0  0  0  0  0  0  0  0  0  0  0
  -18.4906   15.9899  -24.2719 C   0  0  0  0  0  0  0  0  0  0  0  0
  -18.3412   14.7866  -23.6300 C   0  0  0  0  0  0  0  0  0  0  0  0
  -17.8942   14.7489  -22.3303 C   0  0  0  0  0  0  0  0  0  0  0  0
  -17.5939   15.9550  -21.6749 C   0  0  0  0  0  0  0  0  0  0  0  0
  -17.4260   18.3867  -20.2499 C   0  0  0  0  0  0  0  0  0  0  0  0
  -17.4437   18.3621  -21.6640 O   0  0  0  0  0  0  0  0  0  0  0  0
  -18.4587   11.3110  -18.8333 C   0  0  0  0  0  0  0  0  0  0  0  0
  -19.3636   11.8563  -17.9565 C   0  0  0  0  0  0  0  0  0  0  0  0
  -19.8177   11.1701  -16.8403 C   0  0  0  0  0  0  0  0  0  0  0  0
  -19.3641    9.8991  -16.5775 C   0  0  0  0  0  0  0  0  0  0  0  0
  -18.4576    9.3353  -17.4441 C   0  0  0  0  0  0  0  0  0  0  0  0
  -18.0122   10.0391  -18.5602 C   0  0  0  0  0  0  0  0  0  0  0  0
  -19.8462    9.1434  -15.3645 C   0  0  0  0  0  0  0  0  0  0  0  0
  -19.7544   10.0734  -14.1940 C   0  0  0  0  0  0  0  0  0  0  0  0
  -21.0453   10.3204  -13.5796 N   0  0  0  0  0  0  0  0  0  0  0  0
  -21.1412    9.6271  -12.2898 C   0  0  0  0  0  0  0  0  0  0  0  0
  -22.6115    9.6540  -11.9121 C   0  0  0  0  0  0  0  0  0  0  0  0
  -23.1124   11.0724  -11.7578 C   0  0  0  0  0  0  0  0  0  0  0  0
  -24.5007   11.0235  -11.8618 O   0  0  0  0  0  0  0  0  0  0  0  0
  -22.6040   11.9765  -12.8527 C   0  0  0  0  0  0  0  0  0  0  0  0
  -21.1799   11.7427  -13.2313 C   0  0  0  0  0  0  0  0  0  0  0  0
  -24.9213   11.4606  -11.0900 H   0  0  0  0  0  0  0  0  0  0  0  0
 19 20  1  0  0  0
 20 13  1  0  0  0
 13 14  2  0  0  0
 14 15  1  0  0  0
 15 16  2  0  0  0
 16 17  1  0  0  0
 17 18  2  0  0  0
 17  1  1  0  0  0
  1  2  2  0  0  0
  2  3  1  0  0  0
  3 21  1  0  0  0
 21 22  2  0  0  0
 22 23  1  0  0  0
 23 24  2  0  0  0
 24 27  1  0  0  0
 27 28  1  0  0  0
 28 29  1  0  0  0
 29 30  1  0  0  0
 30 31  1  0  0  0
 31 32  1  0  0  0
 32 33  1  0  0  0
 32 34  1  0  0  0
 34 35  1  0  0  0
 24 25  1  0  0  0
 25 26  2  0  0  0
  3  4  1  0  0  0
  4  5  2  0  0  0
  5  6  1  0  0  0
  6  7  2  0  0  0
  7  8  1  0  0  0
  8  9  1  0  0  0
  8 10  2  0  0  0
 18 13  1  0  0  0
 10  1  1  0  0  0
 26 21  1  0  0  0
 10  4  1  0  0  0
 35 29  1  0  0  0
 33 36  1  0  0  0
  9 11  1  0  0  0
  9 12  1  0  0  0
M  END
> <minimizedAffinity>
-8.28329

> <CNNscore>
0.8966234922

> <CNNaffinity>
7.3160233498

> <CNN_VS>
6.5597186089

> <CNNaffinity_variance>
0.1197330952

$$$$
[H]OC1([H])C([H])([H])C([H])([H])N(C([H])([H])C([H])([H])c2c([H])c([H])c(-n3c([H])c(-c4c([H])c([H])c([H])c(OC([H])([H])[H])c4[H])c4c(N([H])[H])nc([H])nc43)c([H])c2[H])C([H])([H])C1([H])[H]


 36 40  0  0  0  0  0  0  0  0999 V2000
  -17.7988   13.4977  -21.5600 C   0  0  0  0  0  0  0  0  0  0  0  0
  -18.7313   13.6766  -20.5275 C   0  0  0  0  0  0  0  0  0  0  0  0
  -18.5921   12.6253  -19.7114 N   0  0  0  0  0  0  0  0  0  0  0  0
  -17.6287   11.7991  -20.1722 C   0  0  0  0  0  0  0  0  0  0  0  0
  -17.1471   10.6229  -19.6942 N   0  0  0  0  0  0  0  0  0  0  0  0
  -16.1827    9.9743  -20.3422 C   0  0  0  0  0  0  0  0  0  0  0  0
  -15.6827   10.4846  -21.4755 N   0  0  0  0  0  0  0  0  0  0  0  0
  -16.1338   11.6494  -21.9821 C   0  0  0  0  0  0  0  0  0  0  0  0
  -15.6020   12.1489  -23.1955 N   0  0  0  0  0  0  0  0  0  0  0  0
  -17.1245   12.3425  -21.3381 C   0  0  0  0  0  0  0  0  0  0  0  0
  -14.6020   12.4336  -23.2097 H   0  0  0  0  0  0  0  0  0  0  0  0
  -16.2230   12.2141  -24.0261 H   0  0  0  0  0  0  0  0  0  0  0  0
  -16.0078   15.6320  -24.0100 C   0  0  0  0  0  0  0  0  0  0  0  0
  -17.0504   16.2696  -24.6405 C   0  0  0  0  0  0  0  0  0  0  0  0
  -18.3526   16.0110  -24.2829 C   0  0  0  0  0  0  0  0  0  0  0  0
  -18.6316   15.1090  -23.2874 C   0  0  0  0  0  0  0  0  0  0  0  0
  -17.6083   14.4578  -22.6400 C   0  0  0  0  0  0  0  0  0  0  0  0
  -16.2809   14.7286  -23.0129 C   0  0  0  0  0  0  0  0  0  0  0  0
  -13.9907   14.9711  -25.1955 C   0  0  0  0  0  0  0  0  0  0  0  0
  -14.6781   15.9013  -24.3814 O   0  0  0  0  0  0  0  0  0  0  0  0
  -19.3085   12.3356  -18.5202 C   0  0  0  0  0  0  0  0  0  0  0  0
  -19.1059   11.1490  -17.8601 C   0  0  0  0  0  0  0  0  0  0  0  0
  -19.7872   10.8241  -16.6968 C   0  0  0  0  0  0  0  0  0  0  0  0
  -20.7022   11.7006  -16.1630 C   0  0  0  0  0  0  0  0  0  0  0  0
  -20.9189   12.8947  -16.8094 C   0  0  0  0  0  0  0  0  0  0  0  0
  -20.2259   13.2045  -17.9769 C   0  0  0  0  0  0  0  0  0  0  0  0
  -21.4535   11.3579  -14.9010 C   0  0  0  0  0  0  0  0  0  0  0  0
  -20.6845   10.2784  -14.2033 C   0  0  0  0  0  0  0  0  0  0  0  0
  -21.5152    9.1397  -13.8594 N   0  0  0  0  0  0  0  0  0  0  0  0
  -21.0481    7.9348  -14.5546 C   0  0  0  0  0  0  0  0  0  0  0  0
  -22.1641    6.9150  -14.4136 C   0  0  0  0  0  0  0  0  0  0  0  0
  -22.4264    6.5862  -12.9611 C   0  0  0  0  0  0  0  0  0  0  0  0
  -23.7013    6.0282  -12.8978 O   0  0  0  0  0  0  0  0  0  0  0  0
  -22.4232    7.8178  -12.0906 C   0  0  0  0  0  0  0  0  0  0  0  0
  -21.3639    8.8108  -12.4341 C   0  0  0  0  0  0  0  0  0  0  0  0
  -23.6776    5.1625  -12.4356 H   0  0  0  0  0  0  0  0  0  0  0  0
 19 20  1  0  0  0
 20 13  1  0  0  0
 13 14  2  0  0  0
 14 15  1  0  0  0
 15 16  2  0  0  0
 16 17  1  0  0  0
 17 18  2  0  0  0
 17  1  1  0  0  0
  1  2  2  0  0  0
  2  3  1  0  0  0
  3 21  1  0  0  0
 21 22  2  0  0  0
 22 23  1  0  0  0
 23 24  2  0  0  0
 24 27  1  0  0  0
 27 28  1  0  0  0
 28 29  1  0  0  0
 29 30  1  0  0  0
 30 31  1  0  0  0
 31 32  1  0  0  0
 32 33  1  0  0  0
 32 34  1  0  0  0
 34 35  1  0  0  0
 24 25  1  0  0  0
 25 26  2  0  0  0
  3  4  1  0  0  0
  4  5  2  0  0  0
  5  6  1  0  0  0
  6  7  2  0  0  0
  7  8  1  0  0  0
  8  9  1  0  0  0
  8 10  2  0  0  0
 18 13  1  0  0  0
 10  1  1  0  0  0
 26 21  1  0  0  0
 10  4  1  0  0  0
 35 29  1  0  0  0
 33 36  1  0  0  0
  9 11  1  0  0  0
  9 12  1  0  0  0
M  END
> <minimizedAffinity>
-8.51426

> <CNNscore>
0.8804473877

> <CNNaffinity>
7.2295227051

> <CNN_VS>
6.3652143478

> <CNNaffinity_variance>
0.1137039214

$$$$
[H]c1c([H])c(Cl)c(-c2c([H])c(C([H])([H])[H])c3nc(N([H])c4c([H])c([H])c(OC([H])([H])C([H])([H])N5C([H])([H])C([H])([H])C([H])([H])C5([H])[H])c([H])c4[H])nnc3c2[H])c(Cl)c1[H]


 35 39  0  0  0  0  0  0  0  0999 V2000
  -19.2472   13.9387  -20.7298 C   0  0  0  0  0  0  0  0  0  0  0  0
  -18.1541   13.4325  -21.5988 C   0  0  0  0  0  0  0  0  0  0  0  0
  -17.8488   14.0707  -22.7827 C   0  0  0  0  0  0  0  0  0  0  0  0
  -16.8471   13.6423  -23.6207 C   0  0  0  0  0  0  0  0  0  0  0  0
  -16.1359   12.5260  -23.2361 C   0  0  0  0  0  0  0  0  0  0  0  0
  -16.4381   11.8754  -22.0421 C   0  0  0  0  0  0  0  0  0  0  0  0
  -15.7577   10.7871  -21.6488 N   0  0  0  0  0  0  0  0  0  0  0  0
  -16.0297   10.1692  -20.5330 N   0  0  0  0  0  0  0  0  0  0  0  0
  -17.0272   10.5867  -19.6848 C   0  0  0  0  0  0  0  0  0  0  0  0
  -17.6995   11.6569  -20.0679 N   0  0  0  0  0  0  0  0  0  0  0  0
  -17.4412   12.3063  -21.2042 C   0  0  0  0  0  0  0  0  0  0  0  0
  -16.5310   14.3292  -24.8834 C   0  0  0  0  0  0  0  0  0  0  0  0
  -15.8608   15.5354  -24.8851 C   0  0  0  0  0  0  0  0  0  0  0  0
  -15.3748   16.3069  -23.3914 Cl  0  0  0  0  0  0  0  0  0  0  0  0
  -15.5631   16.1580  -26.0842 C   0  0  0  0  0  0  0  0  0  0  0  0
  -15.9352   15.5765  -27.2924 C   0  0  0  0  0  0  0  0  0  0  0  0
  -16.6029   14.3767  -27.3135 C   0  0  0  0  0  0  0  0  0  0  0  0
  -16.8889   13.7743  -26.1032 C   0  0  0  0  0  0  0  0  0  0  0  0
  -17.7424   12.2376  -26.1066 Cl  0  0  0  0  0  0  0  0  0  0  0  0
  -17.1800    9.8222  -18.5157 N   0  0  0  0  0  0  0  0  0  0  0  0
  -16.4064    9.1262  -18.2228 H   0  0  0  0  0  0  0  0  0  0  0  0
  -18.2770    9.8665  -17.6638 C   0  0  0  0  0  0  0  0  0  0  0  0
  -19.1233   10.9233  -17.5358 C   0  0  0  0  0  0  0  0  0  0  0  0
  -20.1767   10.9169  -16.6567 C   0  0  0  0  0  0  0  0  0  0  0  0
  -20.4470    9.8117  -15.8312 C   0  0  0  0  0  0  0  0  0  0  0  0
  -19.6071    8.7421  -15.9500 C   0  0  0  0  0  0  0  0  0  0  0  0
  -18.5573    8.7685  -16.8355 C   0  0  0  0  0  0  0  0  0  0  0  0
  -21.5287    9.8815  -14.9752 O   0  0  0  0  0  0  0  0  0  0  0  0
  -21.5549    9.8873  -13.5998 C   0  0  0  0  0  0  0  0  0  0  0  0
  -20.5346   10.7855  -13.0071 C   0  0  0  0  0  0  0  0  0  0  0  0
  -19.4972   10.0930  -12.2811 N   0  0  0  0  0  0  0  0  0  0  0  0
  -19.3624   10.4513  -10.9099 C   0  0  0  0  0  0  0  0  0  0  0  0
  -18.3480    9.4414  -10.3993 C   0  0  0  0  0  0  0  0  0  0  0  0
  -18.3969    8.2962  -11.4093 C   0  0  0  0  0  0  0  0  0  0  0  0
  -19.6235    8.6721  -12.2555 C   0  0  0  0  0  0  0  0  0  0  0  0
  1  2  1  0  0  0
  2  3  2  0  0  0
  3  4  1  0  0  0
  4  5  2  0  0  0
  5  6  1  0  0  0
  6  7  2  0  0  0
  7  8  1  0  0  0
  8  9  2  0  0  0
  9 20  1  0  0  0
 20 22  1  0  0  0
 22 23  2  0  0  0
 23 24  1  0  0  0
 24 25  2  0  0  0
 25 28  1  0  0  0
 28 29  1  0  0  0
 29 30  1  0  0  0
 30 31  1  0  0  0
 31 32  1  0  0  0
 32 33  1  0  0  0
 33 34  1  0  0  0
 34 35  1  0  0  0
 25 26  1  0  0  0
 26 27  2  0  0  0
  9 10  1  0  0  0
 10 11  2  0  0  0
  4 12  1  0  0  0
 12 13  2  0  0  0
 13 14  1  0  0  0
 13 15  1  0  0  0
 15 16  2  0  0  0
 16 17  1  0  0  0
 17 18  2  0  0  0
 18 19  1  0  0  0
 11  2  1  0  0  0
 18 12  1  0  0  0
 11  6  1  0  0  0
 27 22  1  0  0  0
 35 31  1  0  0  0
 20 21  1  0  0  0
M  END
> <minimizedAffinity>
-10.21536

> <CNNscore>
0.9882383347

> <CNNaffinity>
8.0842332840

> <CNN_VS>
7.9891490936

> <CNNaffinity_variance>
0.0828513876

$$$$
[H]c1c([H])c(Cl)c(-c2c([H])c(C([H])([H])[H])c3nc(N([H])c4c([H])c([H])c(OC([H])([H])C([H])([H])N5C([H])([H])C([H])([H])C([H])([H])C5([H])[H])c([H])c4[H])nnc3c2[H])c(Cl)c1[H]


 35 39  0  0  0  0  0  0  0  0999 V2000
  -19.2737   13.9164  -20.6623 C   0  0  0  0  0  0  0  0  0  0  0  0
  -18.1739   13.4023  -21.5182 C   0  0  0  0  0  0  0  0  0  0  0  0
  -17.8605   14.0288  -22.7063 C   0  0  0  0  0  0  0  0  0  0  0  0
  -16.8524   13.5928  -23.5326 C   0  0  0  0  0  0  0  0  0  0  0  0
  -16.1432   12.4810  -23.1317 C   0  0  0  0  0  0  0  0  0  0  0  0
  -16.4536   11.8422  -21.9334 C   0  0  0  0  0  0  0  0  0  0  0  0
  -15.7753   10.7585  -21.5242 N   0  0  0  0  0  0  0  0  0  0  0  0
  -16.0549   10.1516  -20.4043 N   0  0  0  0  0  0  0  0  0  0  0  0
  -17.0588   10.5768  -19.5676 C   0  0  0  0  0  0  0  0  0  0  0  0
  -17.7291   11.6425  -19.9663 N   0  0  0  0  0  0  0  0  0  0  0  0
  -17.4630   12.2807  -21.1072 C   0  0  0  0  0  0  0  0  0  0  0  0
  -16.5277   14.2672  -24.7999 C   0  0  0  0  0  0  0  0  0  0  0  0
  -15.8055   15.4430  -24.8118 C   0  0  0  0  0  0  0  0  0  0  0  0
  -15.2615   16.1901  -23.3258 Cl  0  0  0  0  0  0  0  0  0  0  0  0
  -15.5009   16.0539  -26.0152 C   0  0  0  0  0  0  0  0  0  0  0  0
  -15.9182   15.4910  -27.2175 C   0  0  0  0  0  0  0  0  0  0  0  0
  -16.6379   14.3216  -27.2284 C   0  0  0  0  0  0  0  0  0  0  0  0
  -16.9298   13.7304  -26.0140 C   0  0  0  0  0  0  0  0  0  0  0  0
  -17.8496   12.2325  -26.0044 Cl  0  0  0  0  0  0  0  0  0  0  0  0
  -17.2195    9.8240  -18.3920 N   0  0  0  0  0  0  0  0  0  0  0  0
  -16.4245    9.1724  -18.0572 H   0  0  0  0  0  0  0  0  0  0  0  0
  -18.3501    9.8264  -17.5840 C   0  0  0  0  0  0  0  0  0  0  0  0
  -19.2034   10.8755  -17.4392 C   0  0  0  0  0  0  0  0  0  0  0  0
  -20.2914   10.8260  -16.6048 C   0  0  0  0  0  0  0  0  0  0  0  0
  -20.5922    9.6819  -15.8455 C   0  0  0  0  0  0  0  0  0  0  0  0
  -19.7457    8.6196  -15.9820 C   0  0  0  0  0  0  0  0  0  0  0  0
  -18.6611    8.6894  -16.8219 C   0  0  0  0  0  0  0  0  0  0  0  0
  -21.7078    9.7096  -15.0315 O   0  0  0  0  0  0  0  0  0  0  0  0
  -22.9975    9.3159  -15.3039 C   0  0  0  0  0  0  0  0  0  0  0  0
  -23.8564    9.2776  -14.0957 C   0  0  0  0  0  0  0  0  0  0  0  0
  -24.9295   10.2426  -14.1105 N   0  0  0  0  0  0  0  0  0  0  0  0
  -24.5305   11.6068  -14.0308 C   0  0  0  0  0  0  0  0  0  0  0  0
  -25.8368   12.3502  -14.2558 C   0  0  0  0  0  0  0  0  0  0  0  0
  -26.7475   11.3362  -14.9459 C   0  0  0  0  0  0  0  0  0  0  0  0
  -25.7681   10.1954  -15.2638 C   0  0  0  0  0  0  0  0  0  0  0  0
  1  2  1  0  0  0
  2  3  2  0  0  0
  3  4  1  0  0  0
  4  5  2  0  0  0
  5  6  1  0  0  0
  6  7  2  0  0  0
  7  8  1  0  0  0
  8  9  2  0  0  0
  9 20  1  0  0  0
 20 22  1  0  0  0
 22 23  2  0  0  0
 23 24  1  0  0  0
 24 25  2  0  0  0
 25 28  1  0  0  0
 28 29  1  0  0  0
 29 30  1  0  0  0
 30 31  1  0  0  0
 31 32  1  0  0  0
 32 33  1  0  0  0
 33 34  1  0  0  0
 34 35  1  0  0  0
 25 26  1  0  0  0
 26 27  2  0  0  0
  9 10  1  0  0  0
 10 11  2  0  0  0
  4 12  1  0  0  0
 12 13  2  0  0  0
 13 14  1  0  0  0
 13 15  1  0  0  0
 15 16  2  0  0  0
 16 17  1  0  0  0
 17 18  2  0  0  0
 18 19  1  0  0  0
 11  2  1  0  0  0
 18 12  1  0  0  0
 11  6  1  0  0  0
 27 22  1  0  0  0
 35 31  1  0  0  0
 20 21  1  0  0  0
M  END
> <minimizedAffinity>
-9.74135

> <CNNscore>
0.9846019745

> <CNNaffinity>
7.8781614304

> <CNN_VS>
7.7568531036

> <CNNaffinity_variance>
0.0289018750

$$$$
[H]c1c([H])c(Cl)c(-c2c([H])c(C([H])([H])[H])c3nc(N([H])c4c([H])c([H])c(OC([H])([H])C([H])([H])N5C([H])([H])C([H])([H])C([H])([H])C5([H])[H])c([H])c4[H])nnc3c2[H])c(Cl)c1[H]


 35 39  0  0  0  0  0  0  0  0999 V2000
  -19.2684   13.9290  -20.7236 C   0  0  0  0  0  0  0  0  0  0  0  0
  -18.1696   13.4156  -21.5811 C   0  0  0  0  0  0  0  0  0  0  0  0
  -17.8575   14.0430  -22.7690 C   0  0  0  0  0  0  0  0  0  0  0  0
  -16.8504   13.6076  -23.5968 C   0  0  0  0  0  0  0  0  0  0  0  0
  -16.1407   12.4955  -23.1976 C   0  0  0  0  0  0  0  0  0  0  0  0
  -16.4497   11.8558  -21.9994 C   0  0  0  0  0  0  0  0  0  0  0  0
  -15.7710   10.7717  -21.5918 N   0  0  0  0  0  0  0  0  0  0  0  0
  -16.0493   10.1640  -20.4721 N   0  0  0  0  0  0  0  0  0  0  0  0
  -17.0522   10.5885  -19.6339 C   0  0  0  0  0  0  0  0  0  0  0  0
  -17.7230   11.6546  -20.0310 N   0  0  0  0  0  0  0  0  0  0  0  0
  -17.4582   12.2936  -21.1718 C   0  0  0  0  0  0  0  0  0  0  0  0
  -16.5270   14.2830  -24.8639 C   0  0  0  0  0  0  0  0  0  0  0  0
  -15.8186   15.4671  -24.8749 C   0  0  0  0  0  0  0  0  0  0  0  0
  -15.2909   16.2238  -23.3878 Cl  0  0  0  0  0  0  0  0  0  0  0  0
  -15.5150   16.0788  -26.0780 C   0  0  0  0  0  0  0  0  0  0  0  0
  -15.9196   15.5085  -27.2812 C   0  0  0  0  0  0  0  0  0  0  0  0
  -16.6255   14.3308  -27.2931 C   0  0  0  0  0  0  0  0  0  0  0  0
  -16.9166   13.7389  -26.0789 C   0  0  0  0  0  0  0  0  0  0  0  0
  -17.8189   12.2303  -26.0706 Cl  0  0  0  0  0  0  0  0  0  0  0  0
  -17.2117    9.8348  -18.4587 N   0  0  0  0  0  0  0  0  0  0  0  0
  -16.4272    9.1629  -18.1397 H   0  0  0  0  0  0  0  0  0  0  0  0
  -18.3283    9.8611  -17.6319 C   0  0  0  0  0  0  0  0  0  0  0  0
  -19.1898   10.9072  -17.5173 C   0  0  0  0  0  0  0  0  0  0  0  0
  -20.2629   10.8832  -16.6627 C   0  0  0  0  0  0  0  0  0  0  0  0
  -20.5389    9.7699  -15.8500 C   0  0  0  0  0  0  0  0  0  0  0  0
  -19.6839    8.7110  -15.9556 C   0  0  0  0  0  0  0  0  0  0  0  0
  -18.6145    8.7550  -16.8166 C   0  0  0  0  0  0  0  0  0  0  0  0
  -21.6407    9.8219  -15.0187 O   0  0  0  0  0  0  0  0  0  0  0  0
  -21.7020   10.0498  -13.6634 C   0  0  0  0  0  0  0  0  0  0  0  0
  -20.6517   10.9818  -13.1869 C   0  0  0  0  0  0  0  0  0  0  0  0
  -21.0688   11.8207  -12.0891 N   0  0  0  0  0  0  0  0  0  0  0  0
  -22.4428   12.1933  -12.0879 C   0  0  0  0  0  0  0  0  0  0  0  0
  -22.5981   12.8913  -10.7468 C   0  0  0  0  0  0  0  0  0  0  0  0
  -21.4214   12.3921   -9.9100 C   0  0  0  0  0  0  0  0  0  0  0  0
  -20.8611   11.2648  -10.7916 C   0  0  0  0  0  0  0  0  0  0  0  0
  1  2  1  0  0  0
  2  3  2  0  0  0
  3  4  1  0  0  0
  4  5  2  0  0  0
  5  6  1  0  0  0
  6  7  2  0  0  0
  7  8  1  0  0  0
  8  9  2  0  0  0
  9 20  1  0  0  0
 20 22  1  0  0  0
 22 23  2  0  0  0
 23 24  1  0  0  0
 24 25  2  0  0  0
 25 28  1  0  0  0
 28 29  1  0  0  0
 29 30  1  0  0  0
 30 31  1  0  0  0
 31 32  1  0  0  0
 32 33  1  0  0  0
 33 34  1  0  0  0
 34 35  1  0  0  0
 25 26  1  0  0  0
 26 27  2  0  0  0
  9 10  1  0  0  0
 10 11  2  0  0  0
  4 12  1  0  0  0
 12 13  2  0  0  0
 13 14  1  0  0  0
 13 15  1  0  0  0
 15 16  2  0  0  0
 16 17  1  0  0  0
 17 18  2  0  0  0
 18 19  1  0  0  0
 11  2  1  0  0  0
 18 12  1  0  0  0
 11  6  1  0  0  0
 27 22  1  0  0  0
 35 31  1  0  0  0
 20 21  1  0  0  0
M  END
> <minimizedAffinity>
-10.05737

> <CNNscore>
0.9818280935

> <CNNaffinity>
7.9412002563

> <CNN_VS>
7.7968935966

> <CNNaffinity_variance>
0.1081035733

$$$$
[H]c1c([H])c(Cl)c(-c2c([H])c(C([H])([H])[H])c3nc(N([H])c4c([H])c([H])c(OC([H])([H])C([H])([H])N5C([H])([H])C([H])([H])C([H])([H])C5([H])[H])c([H])c4[H])nnc3c2[H])c(Cl)c1[H]


 35 39  0  0  0  0  0  0  0  0999 V2000
  -19.2385   13.9801  -20.7031 C   0  0  0  0  0  0  0  0  0  0  0  0
  -18.1454   13.4414  -21.5523 C   0  0  0  0  0  0  0  0  0  0  0  0
  -17.8317   14.0421  -22.7535 C   0  0  0  0  0  0  0  0  0  0  0  0
  -16.8296   13.5828  -23.5744 C   0  0  0  0  0  0  0  0  0  0  0  0
  -16.1268   12.4741  -23.1541 C   0  0  0  0  0  0  0  0  0  0  0  0
  -16.4376   11.8612  -21.9423 C   0  0  0  0  0  0  0  0  0  0  0  0
  -15.7655   10.7810  -21.5142 N   0  0  0  0  0  0  0  0  0  0  0  0
  -16.0455   10.1983  -20.3816 N   0  0  0  0  0  0  0  0  0  0  0  0
  -17.0435   10.6470  -19.5501 C   0  0  0  0  0  0  0  0  0  0  0  0
  -17.7076   11.7094  -19.9675 N   0  0  0  0  0  0  0  0  0  0  0  0
  -17.4410   12.3230  -21.1216 C   0  0  0  0  0  0  0  0  0  0  0  0
  -16.5045   14.2298  -24.8558 C   0  0  0  0  0  0  0  0  0  0  0  0
  -16.9270   13.6857  -26.0514 C   0  0  0  0  0  0  0  0  0  0  0  0
  -17.8491   12.1990  -26.0975 Cl  0  0  0  0  0  0  0  0  0  0  0  0
  -16.6205   14.3169  -27.2438 C   0  0  0  0  0  0  0  0  0  0  0  0
  -15.8871   15.4996  -27.2476 C   0  0  0  0  0  0  0  0  0  0  0  0
  -15.4568   16.0581  -26.0693 C   0  0  0  0  0  0  0  0  0  0  0  0
  -15.7753   15.4092  -24.8916 C   0  0  0  0  0  0  0  0  0  0  0  0
  -15.2350   16.1068  -23.3713 Cl  0  0  0  0  0  0  0  0  0  0  0  0
  -17.2055    9.9186  -18.3594 N   0  0  0  0  0  0  0  0  0  0  0  0
  -16.3916    9.3150  -17.9828 H   0  0  0  0  0  0  0  0  0  0  0  0
  -18.3597    9.8882  -17.5861 C   0  0  0  0  0  0  0  0  0  0  0  0
  -19.2443   10.9140  -17.4641 C   0  0  0  0  0  0  0  0  0  0  0  0
  -20.3555   10.8327  -16.6633 C   0  0  0  0  0  0  0  0  0  0  0  0
  -20.6489    9.6781  -15.9172 C   0  0  0  0  0  0  0  0  0  0  0  0
  -19.7711    8.6390  -16.0312 C   0  0  0  0  0  0  0  0  0  0  0  0
  -18.6636    8.7404  -16.8375 C   0  0  0  0  0  0  0  0  0  0  0  0
  -21.7890    9.6734  -15.1375 O   0  0  0  0  0  0  0  0  0  0  0  0
  -23.0867    9.3824  -15.4897 C   0  0  0  0  0  0  0  0  0  0  0  0
  -24.0835   10.0086  -14.5879 C   0  0  0  0  0  0  0  0  0  0  0  0
  -24.6609    9.0956  -13.6309 N   0  0  0  0  0  0  0  0  0  0  0  0
  -24.0317    9.0643  -12.3542 C   0  0  0  0  0  0  0  0  0  0  0  0
  -24.9629    8.1766  -11.5450 C   0  0  0  0  0  0  0  0  0  0  0  0
  -26.2896    8.2127  -12.3017 C   0  0  0  0  0  0  0  0  0  0  0  0
  -26.0369    9.3248  -13.3317 C   0  0  0  0  0  0  0  0  0  0  0  0
  1  2  1  0  0  0
  2  3  2  0  0  0
  3  4  1  0  0  0
  4  5  2  0  0  0
  5  6  1  0  0  0
  6  7  2  0  0  0
  7  8  1  0  0  0
  8  9  2  0  0  0
  9 20  1  0  0  0
 20 22  1  0  0  0
 22 23  2  0  0  0
 23 24  1  0  0  0
 24 25  2  0  0  0
 25 28  1  0  0  0
 28 29  1  0  0  0
 29 30  1  0  0  0
 30 31  1  0  0  0
 31 32  1  0  0  0
 32 33  1  0  0  0
 33 34  1  0  0  0
 34 35  1  0  0  0
 25 26  1  0  0  0
 26 27  2  0  0  0
  9 10  1  0  0  0
 10 11  2  0  0  0
  4 12  1  0  0  0
 12 13  2  0  0  0
 13 14  1  0  0  0
 13 15  1  0  0  0
 15 16  2  0  0  0
 16 17  1  0  0  0
 17 18  2  0  0  0
 18 19  1  0  0  0
 11  2  1  0  0  0
 18 12  1  0  0  0
 11  6  1  0  0  0
 27 22  1  0  0  0
 35 31  1  0  0  0
 20 21  1  0  0  0
M  END
> <minimizedAffinity>
-9.55556

> <CNNscore>
0.9818055034

> <CNNaffinity>
7.7946205139

> <CNN_VS>
7.6528015137

> <CNNaffinity_variance>
0.0957249776

$$$$
[H]c1c([H])c(Cl)c(-c2c([H])c(C([H])([H])[H])c3nc(N([H])c4c([H])c([H])c(OC([H])([H])C([H])([H])N5C([H])([H])C([H])([H])C([H])([H])C5([H])[H])c([H])c4[H])nnc3c2[H])c(Cl)c1[H]


 35 39  0  0  0  0  0  0  0  0999 V2000
  -19.2667   13.9424  -20.6158 C   0  0  0  0  0  0  0  0  0  0  0  0
  -18.1762   13.4189  -21.4778 C   0  0  0  0  0  0  0  0  0  0  0  0
  -17.8779   14.0302  -22.6776 C   0  0  0  0  0  0  0  0  0  0  0  0
  -16.8789   13.5849  -23.5100 C   0  0  0  0  0  0  0  0  0  0  0  0
  -16.1630   12.4797  -23.1029 C   0  0  0  0  0  0  0  0  0  0  0  0
  -16.4581   11.8562  -21.8927 C   0  0  0  0  0  0  0  0  0  0  0  0
  -15.7731   10.7791  -21.4774 N   0  0  0  0  0  0  0  0  0  0  0  0
  -16.0384   10.1866  -20.3463 N   0  0  0  0  0  0  0  0  0  0  0  0
  -17.0331   10.6211  -19.5035 C   0  0  0  0  0  0  0  0  0  0  0  0
  -17.7100   11.6804  -19.9083 N   0  0  0  0  0  0  0  0  0  0  0  0
  -17.4585   12.3039  -21.0605 C   0  0  0  0  0  0  0  0  0  0  0  0
  -16.5703   14.2431  -24.7898 C   0  0  0  0  0  0  0  0  0  0  0  0
  -15.8517   15.4206  -24.8256 C   0  0  0  0  0  0  0  0  0  0  0  0
  -15.2933   16.1893  -23.3560 Cl  0  0  0  0  0  0  0  0  0  0  0  0
  -15.5624   16.0161  -26.0404 C   0  0  0  0  0  0  0  0  0  0  0  0
  -15.9914   15.4360  -27.2303 C   0  0  0  0  0  0  0  0  0  0  0  0
  -16.7078   14.2645  -27.2174 C   0  0  0  0  0  0  0  0  0  0  0  0
  -16.9843   13.6889  -25.9920 C   0  0  0  0  0  0  0  0  0  0  0  0
  -17.8995   12.1887  -25.9520 Cl  0  0  0  0  0  0  0  0  0  0  0  0
  -17.1787    9.8836  -18.3163 N   0  0  0  0  0  0  0  0  0  0  0  0
  -16.3510    9.2976  -17.9419 H   0  0  0  0  0  0  0  0  0  0  0  0
  -18.3324    9.8224  -17.5441 C   0  0  0  0  0  0  0  0  0  0  0  0
  -19.2629   10.8100  -17.4519 C   0  0  0  0  0  0  0  0  0  0  0  0
  -20.3714   10.7006  -16.6508 C   0  0  0  0  0  0  0  0  0  0  0  0
  -20.6142    9.5551  -15.8732 C   0  0  0  0  0  0  0  0  0  0  0  0
  -19.6898    8.5541  -15.9569 C   0  0  0  0  0  0  0  0  0  0  0  0
  -18.5860    8.6832  -16.7642 C   0  0  0  0  0  0  0  0  0  0  0  0
  -21.7550    9.5203  -15.0952 O   0  0  0  0  0  0  0  0  0  0  0  0
  -22.8359    8.6724  -15.1678 C   0  0  0  0  0  0  0  0  0  0  0  0
  -22.7801    7.5794  -14.1672 C   0  0  0  0  0  0  0  0  0  0  0  0
  -22.5448    6.2752  -14.7388 N   0  0  0  0  0  0  0  0  0  0  0  0
  -22.4315    6.2372  -16.1574 C   0  0  0  0  0  0  0  0  0  0  0  0
  -22.0098    4.8009  -16.4200 C   0  0  0  0  0  0  0  0  0  0  0  0
  -21.4340    4.3153  -15.0908 C   0  0  0  0  0  0  0  0  0  0  0  0
  -21.3635    5.6193  -14.2807 C   0  0  0  0  0  0  0  0  0  0  0  0
  1  2  1  0  0  0
  2  3  2  0  0  0
  3  4  1  0  0  0
  4  5  2  0  0  0
  5  6  1  0  0  0
  6  7  2  0  0  0
  7  8  1  0  0  0
  8  9  2  0  0  0
  9 20  1  0  0  0
 20 22  1  0  0  0
 22 23  2  0  0  0
 23 24  1  0  0  0
 24 25  2  0  0  0
 25 28  1  0  0  0
 28 29  1  0  0  0
 29 30  1  0  0  0
 30 31  1  0  0  0
 31 32  1  0  0  0
 32 33  1  0  0  0
 33 34  1  0  0  0
 34 35  1  0  0  0
 25 26  1  0  0  0
 26 27  2  0  0  0
  9 10  1  0  0  0
 10 11  2  0  0  0
  4 12  1  0  0  0
 12 13  2  0  0  0
 13 14  1  0  0  0
 13 15  1  0  0  0
 15 16  2  0  0  0
 16 17  1  0  0  0
 17 18  2  0  0  0
 18 19  1  0  0  0
 11  2  1  0  0  0
 18 12  1  0  0  0
 11  6  1  0  0  0
 27 22  1  0  0  0
 35 31  1  0  0  0
 20 21  1  0  0  0
M  END
> <minimizedAffinity>
-10.18006

> <CNNscore>
0.9805456400

> <CNNaffinity>
8.0390729904

> <CNN_VS>
7.8826780319

> <CNNaffinity_variance>
0.0505030081

$$$$
[H]c1c([H])c(Cl)c(-c2c([H])c(C([H])([H])[H])c3nc(N([H])c4c([H])c([H])c(OC([H])([H])C([H])([H])N5C([H])([H])C([H])([H])C([H])([H])C5([H])[H])c([H])c4[H])nnc3c2[H])c(Cl)c1[H]


 35 39  0  0  0  0  0  0  0  0999 V2000
  -19.2890   13.9493  -20.6229 C   0  0  0  0  0  0  0  0  0  0  0  0
  -18.1912   13.4253  -21.4752 C   0  0  0  0  0  0  0  0  0  0  0  0
  -17.8780   14.0402  -22.6694 C   0  0  0  0  0  0  0  0  0  0  0  0
  -16.8717   13.5947  -23.4928 C   0  0  0  0  0  0  0  0  0  0  0  0
  -16.1640   12.4854  -23.0824 C   0  0  0  0  0  0  0  0  0  0  0  0
  -16.4741   11.8584  -21.8778 C   0  0  0  0  0  0  0  0  0  0  0  0
  -15.7972   10.7773  -21.4593 N   0  0  0  0  0  0  0  0  0  0  0  0
  -16.0766   10.1814  -20.3335 N   0  0  0  0  0  0  0  0  0  0  0  0
  -17.0787   10.6161  -19.4996 C   0  0  0  0  0  0  0  0  0  0  0  0
  -17.7477   11.6793  -19.9075 N   0  0  0  0  0  0  0  0  0  0  0  0
  -17.4818   12.3063  -21.0546 C   0  0  0  0  0  0  0  0  0  0  0  0
  -16.5473   14.2567  -24.7667 C   0  0  0  0  0  0  0  0  0  0  0  0
  -16.9443   13.7105  -25.9701 C   0  0  0  0  0  0  0  0  0  0  0  0
  -17.8320   12.2038  -26.0352 Cl  0  0  0  0  0  0  0  0  0  0  0  0
  -16.6390   14.3558  -27.1552 C   0  0  0  0  0  0  0  0  0  0  0  0
  -15.9326   15.5546  -27.1440 C   0  0  0  0  0  0  0  0  0  0  0  0
  -15.5279   16.1155  -25.9577 C   0  0  0  0  0  0  0  0  0  0  0  0
  -15.8446   15.4524  -24.7875 C   0  0  0  0  0  0  0  0  0  0  0  0
  -15.3369   16.1526  -23.2572 Cl  0  0  0  0  0  0  0  0  0  0  0  0
  -17.2394    9.8746  -18.3169 N   0  0  0  0  0  0  0  0  0  0  0  0
  -16.4256    9.2658  -17.9486 H   0  0  0  0  0  0  0  0  0  0  0  0
  -18.3923    9.8369  -17.5419 C   0  0  0  0  0  0  0  0  0  0  0  0
  -19.2981   10.8464  -17.4411 C   0  0  0  0  0  0  0  0  0  0  0  0
  -20.4068   10.7593  -16.6376 C   0  0  0  0  0  0  0  0  0  0  0  0
  -20.6756    9.6153  -15.8663 C   0  0  0  0  0  0  0  0  0  0  0  0
  -19.7763    8.5924  -15.9587 C   0  0  0  0  0  0  0  0  0  0  0  0
  -18.6717    8.6995  -16.7682 C   0  0  0  0  0  0  0  0  0  0  0  0
  -21.8148    9.6036  -15.0854 O   0  0  0  0  0  0  0  0  0  0  0  0
  -22.0485   10.2093  -13.8726 C   0  0  0  0  0  0  0  0  0  0  0  0
  -23.3678   10.8834  -13.8090 C   0  0  0  0  0  0  0  0  0  0  0  0
  -23.3464   12.2538  -14.2612 N   0  0  0  0  0  0  0  0  0  0  0  0
  -24.5264   13.0060  -13.9992 C   0  0  0  0  0  0  0  0  0  0  0  0
  -24.1244   14.4121  -14.4127 C   0  0  0  0  0  0  0  0  0  0  0  0
  -22.5969   14.4036  -14.3863 C   0  0  0  0  0  0  0  0  0  0  0  0
  -22.2990   13.0538  -13.7148 C   0  0  0  0  0  0  0  0  0  0  0  0
  1  2  1  0  0  0
  2  3  2  0  0  0
  3  4  1  0  0  0
  4  5  2  0  0  0
  5  6  1  0  0  0
  6  7  2  0  0  0
  7  8  1  0  0  0
  8  9  2  0  0  0
  9 20  1  0  0  0
 20 22  1  0  0  0
 22 23  2  0  0  0
 23 24  1  0  0  0
 24 25  2  0  0  0
 25 28  1  0  0  0
 28 29  1  0  0  0
 29 30  1  0  0  0
 30 31  1  0  0  0
 31 32  1  0  0  0
 32 33  1  0  0  0
 33 34  1  0  0  0
 34 35  1  0  0  0
 25 26  1  0  0  0
 26 27  2  0  0  0
  9 10  1  0  0  0
 10 11  2  0  0  0
  4 12  1  0  0  0
 12 13  2  0  0  0
 13 14  1  0  0  0
 13 15  1  0  0  0
 15 16  2  0  0  0
 16 17  1  0  0  0
 17 18  2  0  0  0
 18 19  1  0  0  0
 11  2  1  0  0  0
 18 12  1  0  0  0
 11  6  1  0  0  0
 27 22  1  0  0  0
 35 31  1  0  0  0
 20 21  1  0  0  0
M  END
> <minimizedAffinity>
-9.71455

> <CNNscore>
0.9735950232

> <CNNaffinity>
7.9443426132

> <CNN_VS>
7.7345724106

> <CNNaffinity_variance>
0.0464560352

$$$$
[H]c1c([H])c(Cl)c(-c2c([H])c(C([H])([H])[H])c3nc(N([H])c4c([H])c([H])c(OC([H])([H])C([H])([H])N5C([H])([H])C([H])([H])C([H])([H])C5([H])[H])c([H])c4[H])nnc3c2[H])c(Cl)c1[H]


 35 39  0  0  0  0  0  0  0  0999 V2000
  -15.3197   10.1482  -21.5368 C   0  0  0  0  0  0  0  0  0  0  0  0
  -16.2186   11.3188  -21.3699 C   0  0  0  0  0  0  0  0  0  0  0  0
  -16.1753   12.3675  -22.2646 C   0  0  0  0  0  0  0  0  0  0  0  0
  -16.9860   13.4720  -22.1544 C   0  0  0  0  0  0  0  0  0  0  0  0
  -17.8680   13.5053  -21.0957 C   0  0  0  0  0  0  0  0  0  0  0  0
  -17.9178   12.4503  -20.1874 C   0  0  0  0  0  0  0  0  0  0  0  0
  -18.7694   12.4624  -19.1499 N   0  0  0  0  0  0  0  0  0  0  0  0
  -18.8270   11.4811  -18.2929 N   0  0  0  0  0  0  0  0  0  0  0  0
  -18.0239   10.3703  -18.3911 C   0  0  0  0  0  0  0  0  0  0  0  0
  -17.1841   10.3541  -19.4102 N   0  0  0  0  0  0  0  0  0  0  0  0
  -17.1056   11.3451  -20.2999 C   0  0  0  0  0  0  0  0  0  0  0  0
  -16.9300   14.5871  -23.1134 C   0  0  0  0  0  0  0  0  0  0  0  0
  -16.5697   15.8551  -22.7052 C   0  0  0  0  0  0  0  0  0  0  0  0
  -16.1823   16.1953  -21.0329 Cl  0  0  0  0  0  0  0  0  0  0  0  0
  -16.5119   16.8862  -23.6257 C   0  0  0  0  0  0  0  0  0  0  0  0
  -16.8152   16.6550  -24.9640 C   0  0  0  0  0  0  0  0  0  0  0  0
  -17.1761   15.4010  -25.3915 C   0  0  0  0  0  0  0  0  0  0  0  0
  -17.2267   14.3875  -24.4535 C   0  0  0  0  0  0  0  0  0  0  0  0
  -17.6857   12.7740  -24.9788 Cl  0  0  0  0  0  0  0  0  0  0  0  0
  -18.2228    9.3960  -17.3982 N   0  0  0  0  0  0  0  0  0  0  0  0
  -17.4520    8.6644  -17.1999 H   0  0  0  0  0  0  0  0  0  0  0  0
  -19.3638    9.2670  -16.6155 C   0  0  0  0  0  0  0  0  0  0  0  0
  -19.7172    8.1467  -15.9302 C   0  0  0  0  0  0  0  0  0  0  0  0
  -20.8721    8.0717  -15.1931 C   0  0  0  0  0  0  0  0  0  0  0  0
  -21.7643    9.1540  -15.1006 C   0  0  0  0  0  0  0  0  0  0  0  0
  -21.4219   10.2864  -15.7816 C   0  0  0  0  0  0  0  0  0  0  0  0
  -20.2616   10.3413  -16.5148 C   0  0  0  0  0  0  0  0  0  0  0  0
  -22.9040    9.0007  -14.3356 O   0  0  0  0  0  0  0  0  0  0  0  0
  -23.4464    9.8480  -13.3972 C   0  0  0  0  0  0  0  0  0  0  0  0
  -22.9301    9.6003  -12.0293 C   0  0  0  0  0  0  0  0  0  0  0  0
  -23.9466    9.2079  -11.0830 N   0  0  0  0  0  0  0  0  0  0  0  0
  -23.4781    8.5222   -9.9267 C   0  0  0  0  0  0  0  0  0  0  0  0
  -24.7287    8.4213   -9.0690 C   0  0  0  0  0  0  0  0  0  0  0  0
  -25.6573    9.5092   -9.6059 C   0  0  0  0  0  0  0  0  0  0  0  0
  -24.7269   10.2797  -10.5558 C   0  0  0  0  0  0  0  0  0  0  0  0
  1  2  1  0  0  0
  2  3  2  0  0  0
  3  4  1  0  0  0
  4  5  2  0  0  0
  5  6  1  0  0  0
  6  7  2  0  0  0
  7  8  1  0  0  0
  8  9  2  0  0  0
  9 20  1  0  0  0
 20 22  1  0  0  0
 22 23  2  0  0  0
 23 24  1  0  0  0
 24 25  2  0  0  0
 25 28  1  0  0  0
 28 29  1  0  0  0
 29 30  1  0  0  0
 30 31  1  0  0  0
 31 32  1  0  0  0
 32 33  1  0  0  0
 33 34  1  0  0  0
 34 35  1  0  0  0
 25 26  1  0  0  0
 26 27  2  0  0  0
  9 10  1  0  0  0
 10 11  2  0  0  0
  4 12  1  0  0  0
 12 13  2  0  0  0
 13 14  1  0  0  0
 13 15  1  0  0  0
 15 16  2  0  0  0
 16 17  1  0  0  0
 17 18  2  0  0  0
 18 19  1  0  0  0
 11  2  1  0  0  0
 18 12  1  0  0  0
 11  6  1  0  0  0
 27 22  1  0  0  0
 35 31  1  0  0  0
 20 21  1  0  0  0
M  END
> <minimizedAffinity>
-7.82866

> <CNNscore>
0.6712430716

> <CNNaffinity>
7.1199088097

> <CNN_VS>
4.7791895866

> <CNNaffinity_variance>
0.2619160414

$$$$
[H]c1c([H])c(Cl)c(-c2c([H])c(C([H])([H])[H])c3nc(N([H])c4c([H])c([H])c(OC([H])([H])C([H])([H])N5C([H])([H])C([H])([H])C([H])([H])C5([H])[H])c([H])c4[H])nnc3c2[H])c(Cl)c1[H]


 35 39  0  0  0  0  0  0  0  0999 V2000
  -19.7023   14.9123  -20.8170 C   0  0  0  0  0  0  0  0  0  0  0  0
  -18.6465   14.1779  -21.5601 C   0  0  0  0  0  0  0  0  0  0  0  0
  -18.2068   14.6341  -22.7851 C   0  0  0  0  0  0  0  0  0  0  0  0
  -17.2328   13.9914  -23.5113 C   0  0  0  0  0  0  0  0  0  0  0  0
  -16.6920   12.8459  -22.9679 C   0  0  0  0  0  0  0  0  0  0  0  0
  -17.1307   12.3782  -21.7312 C   0  0  0  0  0  0  0  0  0  0  0  0
  -16.6172   11.2652  -21.1840 N   0  0  0  0  0  0  0  0  0  0  0  0
  -17.0181   10.8171  -20.0268 N   0  0  0  0  0  0  0  0  0  0  0  0
  -17.9898   11.4497  -19.2891 C   0  0  0  0  0  0  0  0  0  0  0  0
  -18.4982   12.5450  -19.8238 N   0  0  0  0  0  0  0  0  0  0  0  0
  -18.1058   13.0236  -21.0056 C   0  0  0  0  0  0  0  0  0  0  0  0
  -16.7725   14.4853  -24.8191 C   0  0  0  0  0  0  0  0  0  0  0  0
  -16.0181   15.6367  -24.9159 C   0  0  0  0  0  0  0  0  0  0  0  0
  -15.5923   16.5660  -23.4955 Cl  0  0  0  0  0  0  0  0  0  0  0  0
  -15.5857   16.0765  -26.1543 C   0  0  0  0  0  0  0  0  0  0  0  0
  -15.9062   15.3656  -27.3068 C   0  0  0  0  0  0  0  0  0  0  0  0
  -16.6558   14.2174  -27.2331 C   0  0  0  0  0  0  0  0  0  0  0  0
  -17.0760   13.7983  -25.9852 C   0  0  0  0  0  0  0  0  0  0  0  0
  -18.0363   12.3307  -25.8673 Cl  0  0  0  0  0  0  0  0  0  0  0  0
  -18.2944   10.8482  -18.0562 N   0  0  0  0  0  0  0  0  0  0  0  0
  -17.7038   10.0141  -17.7038 H   0  0  0  0  0  0  0  0  0  0  0  0
  -19.3285   11.2289  -17.2095 C   0  0  0  0  0  0  0  0  0  0  0  0
  -19.6479   12.5132  -16.8965 C   0  0  0  0  0  0  0  0  0  0  0  0
  -20.6666   12.8257  -16.0321 C   0  0  0  0  0  0  0  0  0  0  0  0
  -21.4463   11.8322  -15.4149 C   0  0  0  0  0  0  0  0  0  0  0  0
  -21.1389   10.5380  -15.7210 C   0  0  0  0  0  0  0  0  0  0  0  0
  -20.1144   10.2457  -16.5882 C   0  0  0  0  0  0  0  0  0  0  0  0
  -22.4561   12.2282  -14.5597 O   0  0  0  0  0  0  0  0  0  0  0  0
  -22.7454   13.4812  -14.0710 C   0  0  0  0  0  0  0  0  0  0  0  0
  -23.8143   14.1666  -14.8369 C   0  0  0  0  0  0  0  0  0  0  0  0
  -23.6719   15.6021  -14.8828 N   0  0  0  0  0  0  0  0  0  0  0  0
  -22.6260   16.1419  -14.0818 C   0  0  0  0  0  0  0  0  0  0  0  0
  -22.6181   17.6068  -14.4865 C   0  0  0  0  0  0  0  0  0  0  0  0
  -23.3178   17.6391  -15.8442 C   0  0  0  0  0  0  0  0  0  0  0  0
  -23.4273   16.1434  -16.1800 C   0  0  0  0  0  0  0  0  0  0  0  0
  1  2  1  0  0  0
  2  3  2  0  0  0
  3  4  1  0  0  0
  4  5  2  0  0  0
  5  6  1  0  0  0
  6  7  2  0  0  0
  7  8  1  0  0  0
  8  9  2  0  0  0
  9 20  1  0  0  0
 20 22  1  0  0  0
 22 23  2  0  0  0
 23 24  1  0  0  0
 24 25  2  0  0  0
 25 28  1  0  0  0
 28 29  1  0  0  0
 29 30  1  0  0  0
 30 31  1  0  0  0
 31 32  1  0  0  0
 32 33  1  0  0  0
 33 34  1  0  0  0
 34 35  1  0  0  0
 25 26  1  0  0  0
 26 27  2  0  0  0
  9 10  1  0  0  0
 10 11  2  0  0  0
  4 12  1  0  0  0
 12 13  2  0  0  0
 13 14  1  0  0  0
 13 15  1  0  0  0
 15 16  2  0  0  0
 16 17  1  0  0  0
 17 18  2  0  0  0
 18 19  1  0  0  0
 11  2  1  0  0  0
 18 12  1  0  0  0
 11  6  1  0  0  0
 27 22  1  0  0  0
 35 31  1  0  0  0
 20 21  1  0  0  0
M  END
> <minimizedAffinity>
-8.64593

> <CNNscore>
0.6348553300

> <CNNaffinity>
7.4777007103

> <CNN_VS>
4.7472581863

> <CNNaffinity_variance>
0.3455508351

$$$$
[H]c1c([H])c(Cl)c(-c2c([H])c(C([H])([H])[H])c3nc(N([H])c4c([H])c([H])c(OC([H])([H])C([H])([H])N5C([H])([H])C([H])([H])C([H])([H])C5([H])[H])c([H])c4[H])nnc3c2[H])c(Cl)c1[H]


 35 39  0  0  0  0  0  0  0  0999 V2000
  -15.3818   10.1449  -21.3851 C   0  0  0  0  0  0  0  0  0  0  0  0
  -16.3160   11.2911  -21.2450 C   0  0  0  0  0  0  0  0  0  0  0  0
  -16.2783   12.3383  -22.1418 C   0  0  0  0  0  0  0  0  0  0  0  0
  -17.1210   13.4207  -22.0557 C   0  0  0  0  0  0  0  0  0  0  0  0
  -18.0302   13.4328  -21.0199 C   0  0  0  0  0  0  0  0  0  0  0  0
  -18.0746   12.3792  -20.1096 C   0  0  0  0  0  0  0  0  0  0  0  0
  -18.9524   12.3710  -19.0941 N   0  0  0  0  0  0  0  0  0  0  0  0
  -19.0052   11.3907  -18.2357 N   0  0  0  0  0  0  0  0  0  0  0  0
  -18.1702   10.3018  -18.3099 C   0  0  0  0  0  0  0  0  0  0  0  0
  -17.3046   10.3057  -19.3073 N   0  0  0  0  0  0  0  0  0  0  0  0
  -17.2303   11.2962  -20.1979 C   0  0  0  0  0  0  0  0  0  0  0  0
  -17.0708   14.5345  -23.0166 C   0  0  0  0  0  0  0  0  0  0  0  0
  -17.3861   14.3382  -24.3455 C   0  0  0  0  0  0  0  0  0  0  0  0
  -17.8407   12.7593  -24.9479 Cl  0  0  0  0  0  0  0  0  0  0  0  0
  -17.3440   15.4018  -25.2294 C   0  0  0  0  0  0  0  0  0  0  0  0
  -16.9849   16.6718  -24.7882 C   0  0  0  0  0  0  0  0  0  0  0  0
  -16.6672   16.8891  -23.4701 C   0  0  0  0  0  0  0  0  0  0  0  0
  -16.7165   15.8113  -22.6067 C   0  0  0  0  0  0  0  0  0  0  0  0
  -16.3143   16.0668  -20.9147 Cl  0  0  0  0  0  0  0  0  0  0  0  0
  -18.3679    9.3250  -17.3191 N   0  0  0  0  0  0  0  0  0  0  0  0
  -17.6376    8.5395  -17.1844 H   0  0  0  0  0  0  0  0  0  0  0  0
  -19.4595    9.2590  -16.4616 C   0  0  0  0  0  0  0  0  0  0  0  0
  -19.9081    8.1273  -15.8555 C   0  0  0  0  0  0  0  0  0  0  0  0
  -21.0095    8.1209  -15.0373 C   0  0  0  0  0  0  0  0  0  0  0  0
  -21.7444    9.2899  -14.7740 C   0  0  0  0  0  0  0  0  0  0  0  0
  -21.3048   10.4346  -15.3738 C   0  0  0  0  0  0  0  0  0  0  0  0
  -20.2004   10.4200  -16.1905 C   0  0  0  0  0  0  0  0  0  0  0  0
  -22.8391    9.2017  -13.9363 O   0  0  0  0  0  0  0  0  0  0  0  0
  -23.1270    9.9172  -12.7972 C   0  0  0  0  0  0  0  0  0  0  0  0
  -24.5817   10.1258  -12.5990 C   0  0  0  0  0  0  0  0  0  0  0  0
  -25.3568   10.0280  -13.8125 N   0  0  0  0  0  0  0  0  0  0  0  0
  -26.4559    9.1242  -13.7685 C   0  0  0  0  0  0  0  0  0  0  0  0
  -27.1574    9.3875  -15.0908 C   0  0  0  0  0  0  0  0  0  0  0  0
  -26.6735   10.7719  -15.5190 C   0  0  0  0  0  0  0  0  0  0  0  0
  -25.9354   11.2531  -14.2599 C   0  0  0  0  0  0  0  0  0  0  0  0
  1  2  1  0  0  0
  2  3  2  0  0  0
  3  4  1  0  0  0
  4  5  2  0  0  0
  5  6  1  0  0  0
  6  7  2  0  0  0
  7  8  1  0  0  0
  8  9  2  0  0  0
  9 20  1  0  0  0
 20 22  1  0  0  0
 22 23  2  0  0  0
 23 24  1  0  0  0
 24 25  2  0  0  0
 25 28  1  0  0  0
 28 29  1  0  0  0
 29 30  1  0  0  0
 30 31  1  0  0  0
 31 32  1  0  0  0
 32 33  1  0  0  0
 33 34  1  0  0  0
 34 35  1  0  0  0
 25 26  1  0  0  0
 26 27  2  0  0  0
  9 10  1  0  0  0
 10 11  2  0  0  0
  4 12  1  0  0  0
 12 13  2  0  0  0
 13 14  1  0  0  0
 13 15  1  0  0  0
 15 16  2  0  0  0
 16 17  1  0  0  0
 17 18  2  0  0  0
 18 19  1  0  0  0
 11  2  1  0  0  0
 18 12  1  0  0  0
 11  6  1  0  0  0
 27 22  1  0  0  0
 35 31  1  0  0  0
 20 21  1  0  0  0
M  END
> <minimizedAffinity>
-8.10489

> <CNNscore>
0.6211993694

> <CNNaffinity>
7.1500458717

> <CNN_VS>
4.4416041374

> <CNNaffinity_variance>
0.2340877950

$$$$
[H]c1nc2c([H])c(OC([H])([H])[H])c(OC([H])([H])[H])c([H])c2c(Oc2c([H])c([H])c3c(C(=O)N([H])C4([H])C([H])([H])C4([H])[H])c([H])c([H])c([H])c3c2[H])c1[H]


 32 36  0  0  0  0  0  0  0  0999 V2000
  -18.6824   13.1527  -19.6514 C   0  0  0  0  0  0  0  0  0  0  0  0
  -19.6452   13.5841  -18.7697 C   0  0  0  0  0  0  0  0  0  0  0  0
  -20.1178   12.8440  -17.7075 C   0  0  0  0  0  0  0  0  0  0  0  0
  -19.6282   11.5765  -17.4652 C   0  0  0  0  0  0  0  0  0  0  0  0
  -20.0454   10.8117  -16.4034 C   0  0  0  0  0  0  0  0  0  0  0  0
  -19.4795    9.5369  -16.1782 C   0  0  0  0  0  0  0  0  0  0  0  0
  -18.5145    9.0843  -17.0422 C   0  0  0  0  0  0  0  0  0  0  0  0
  -18.1138    9.8612  -18.0989 C   0  0  0  0  0  0  0  0  0  0  0  0
  -18.6599   11.1267  -18.3380 C   0  0  0  0  0  0  0  0  0  0  0  0
  -18.1875   11.8732  -19.4047 C   0  0  0  0  0  0  0  0  0  0  0  0
  -21.1296   11.1941  -15.5427 C   0  0  0  0  0  0  0  0  0  0  0  0
  -22.2369   10.5615  -15.7942 O   0  0  0  0  0  0  0  0  0  0  0  0
  -21.1929   12.1202  -14.5093 N   0  0  0  0  0  0  0  0  0  0  0  0
  -20.4081   12.7320  -14.2042 H   0  0  0  0  0  0  0  0  0  0  0  0
  -22.4394   12.3343  -13.7646 C   0  0  0  0  0  0  0  0  0  0  0  0
  -22.3315   12.6093  -12.2637 C   0  0  0  0  0  0  0  0  0  0  0  0
  -22.7844   13.6594  -13.2212 C   0  0  0  0  0  0  0  0  0  0  0  0
  -18.2142   13.9037  -20.7139 O   0  0  0  0  0  0  0  0  0  0  0  0
  -16.3206   15.3765  -25.1019 C   0  0  0  0  0  0  0  0  0  0  0  0
  -15.8118   14.1245  -24.8132 C   0  0  0  0  0  0  0  0  0  0  0  0
  -16.1419   13.4290  -23.6632 C   0  0  0  0  0  0  0  0  0  0  0  0
  -15.6139   12.2159  -23.4050 N   0  0  0  0  0  0  0  0  0  0  0  0
  -15.9299   11.5632  -22.2835 C   0  0  0  0  0  0  0  0  0  0  0  0
  -16.7883   12.0791  -21.3565 C   0  0  0  0  0  0  0  0  0  0  0  0
  -17.3439   13.3513  -21.6268 C   0  0  0  0  0  0  0  0  0  0  0  0
  -17.0217   14.0328  -22.7793 C   0  0  0  0  0  0  0  0  0  0  0  0
  -17.5317   15.3032  -23.0786 C   0  0  0  0  0  0  0  0  0  0  0  0
  -17.1978   15.9870  -24.2249 C   0  0  0  0  0  0  0  0  0  0  0  0
  -15.9788   15.4152  -27.4905 C   0  0  0  0  0  0  0  0  0  0  0  0
  -15.9956   16.0718  -26.2437 O   0  0  0  0  0  0  0  0  0  0  0  0
  -17.7087   17.2512  -24.5203 O   0  0  0  0  0  0  0  0  0  0  0  0
  -17.9202   18.2575  -23.5563 C   0  0  0  0  0  0  0  0  0  0  0  0
 29 30  1  0  0  0
 30 19  1  0  0  0
 19 20  2  0  0  0
 20 21  1  0  0  0
 21 22  2  0  0  0
 22 23  1  0  0  0
 23 24  2  0  0  0
 24 25  1  0  0  0
 25 18  1  0  0  0
 18  1  1  0  0  0
  1  2  2  0  0  0
  2  3  1  0  0  0
  3  4  2  0  0  0
  4  5  1  0  0  0
  5  6  2  0  0  0
  6  7  1  0  0  0
  7  8  2  0  0  0
  8  9  1  0  0  0
  9 10  2  0  0  0
  5 11  1  0  0  0
 11 12  2  0  0  0
 11 13  1  0  0  0
 13 15  1  0  0  0
 15 16  1  0  0  0
 16 17  1  0  0  0
 25 26  2  0  0  0
 26 27  1  0  0  0
 27 28  2  0  0  0
 28 31  1  0  0  0
 31 32  1  0  0  0
 28 19  1  0  0  0
 26 21  1  0  0  0
 10  1  1  0  0  0
 17 15  1  0  0  0
  9  4  1  0  0  0
 13 14  1  0  0  0
M  END
> <minimizedAffinity>
-8.90031

> <CNNscore>
0.4453250766

> <CNNaffinity>
6.7757978439

> <CNN_VS>
3.0174326897

> <CNNaffinity_variance>
0.0979223102

$$$$
[H]c1nc2c([H])c(OC([H])([H])[H])c(OC([H])([H])[H])c([H])c2c(Oc2c([H])c([H])c3c(C(=O)N([H])C4([H])C([H])([H])C4([H])[H])c([H])c([H])c([H])c3c2[H])c1[H]


 32 36  0  0  0  0  0  0  0  0999 V2000
  -19.3255   12.9566  -19.1918 C   0  0  0  0  0  0  0  0  0  0  0  0
  -18.9690   11.7595  -18.6171 C   0  0  0  0  0  0  0  0  0  0  0  0
  -19.3980   11.3300  -17.3797 C   0  0  0  0  0  0  0  0  0  0  0  0
  -20.2429   12.1147  -16.6212 C   0  0  0  0  0  0  0  0  0  0  0  0
  -20.7211   11.7184  -15.3962 C   0  0  0  0  0  0  0  0  0  0  0  0
  -21.6174   12.5435  -14.6808 C   0  0  0  0  0  0  0  0  0  0  0  0
  -21.9913   13.7423  -15.2339 C   0  0  0  0  0  0  0  0  0  0  0  0
  -21.5000   14.1221  -16.4567 C   0  0  0  0  0  0  0  0  0  0  0  0
  -20.6134   13.3189  -17.1817 C   0  0  0  0  0  0  0  0  0  0  0  0
  -20.1801   13.7473  -18.4254 C   0  0  0  0  0  0  0  0  0  0  0  0
  -20.2705   10.5295  -14.7283 C   0  0  0  0  0  0  0  0  0  0  0  0
  -19.4033   10.7618  -13.7884 O   0  0  0  0  0  0  0  0  0  0  0  0
  -20.5950    9.1930  -14.9238 N   0  0  0  0  0  0  0  0  0  0  0  0
  -21.2439    8.8347  -15.6544 H   0  0  0  0  0  0  0  0  0  0  0  0
  -19.9897    8.1420  -14.0973 C   0  0  0  0  0  0  0  0  0  0  0  0
  -20.9272    7.2634  -13.2672 C   0  0  0  0  0  0  0  0  0  0  0  0
  -20.1656    6.7171  -14.4274 C   0  0  0  0  0  0  0  0  0  0  0  0
  -18.8902   13.3779  -20.4347 O   0  0  0  0  0  0  0  0  0  0  0  0
  -16.1432   14.2853  -24.5141 C   0  0  0  0  0  0  0  0  0  0  0  0
  -15.6963   13.1060  -23.9489 C   0  0  0  0  0  0  0  0  0  0  0  0
  -16.2515   12.5681  -22.8011 C   0  0  0  0  0  0  0  0  0  0  0  0
  -15.7797   11.4237  -22.2674 N   0  0  0  0  0  0  0  0  0  0  0  0
  -16.3155   10.9246  -21.1505 C   0  0  0  0  0  0  0  0  0  0  0  0
  -17.3500   11.5344  -20.5021 C   0  0  0  0  0  0  0  0  0  0  0  0
  -17.8467   12.7345  -21.0618 C   0  0  0  0  0  0  0  0  0  0  0  0
  -17.2986   13.2579  -22.2116 C   0  0  0  0  0  0  0  0  0  0  0  0
  -17.7447   14.4539  -22.7898 C   0  0  0  0  0  0  0  0  0  0  0  0
  -17.1864   14.9809  -23.9316 C   0  0  0  0  0  0  0  0  0  0  0  0
  -14.2771   15.3238  -25.6378 C   0  0  0  0  0  0  0  0  0  0  0  0
  -15.5947   14.8241  -25.6549 O   0  0  0  0  0  0  0  0  0  0  0  0
  -17.6341   16.1713  -24.5053 O   0  0  0  0  0  0  0  0  0  0  0  0
  -17.2462   17.4515  -24.0614 C   0  0  0  0  0  0  0  0  0  0  0  0
 29 30  1  0  0  0
 30 19  1  0  0  0
 19 20  2  0  0  0
 20 21  1  0  0  0
 21 22  2  0  0  0
 22 23  1  0  0  0
 23 24  2  0  0  0
 24 25  1  0  0  0
 25 18  1  0  0  0
 18  1  1  0  0  0
  1  2  2  0  0  0
  2  3  1  0  0  0
  3  4  2  0  0  0
  4  5  1  0  0  0
  5  6  2  0  0  0
  6  7  1  0  0  0
  7  8  2  0  0  0
  8  9  1  0  0  0
  9 10  2  0  0  0
  5 11  1  0  0  0
 11 12  2  0  0  0
 11 13  1  0  0  0
 13 15  1  0  0  0
 15 16  1  0  0  0
 16 17  1  0  0  0
 25 26  2  0  0  0
 26 27  1  0  0  0
 27 28  2  0  0  0
 28 31  1  0  0  0
 31 32  1  0  0  0
 28 19  1  0  0  0
 26 21  1  0  0  0
 10  1  1  0  0  0
 17 15  1  0  0  0
  9  4  1  0  0  0
 13 14  1  0  0  0
M  END
> <minimizedAffinity>
-7.82888

> <CNNscore>
0.3401740789

> <CNNaffinity>
6.6292304993

> <CNN_VS>
2.2550923824

> <CNNaffinity_variance>
0.2988201976

$$$$
[H]c1nc2c([H])c(OC([H])([H])[H])c(OC([H])([H])[H])c([H])c2c(Oc2c([H])c([H])c3c(C(=O)N([H])C4([H])C([H])([H])C4([H])[H])c([H])c([H])c([H])c3c2[H])c1[H]


 32 36  0  0  0  0  0  0  0  0999 V2000
  -19.5785   14.2042  -19.6582 C   0  0  0  0  0  0  0  0  0  0  0  0
  -19.8269   15.2364  -20.5318 C   0  0  0  0  0  0  0  0  0  0  0  0
  -19.8538   16.5682  -20.1780 C   0  0  0  0  0  0  0  0  0  0  0  0
  -19.6240   16.9497  -18.8717 C   0  0  0  0  0  0  0  0  0  0  0  0
  -19.6110   18.2647  -18.4754 C   0  0  0  0  0  0  0  0  0  0  0  0
  -19.3284   18.6010  -17.1327 C   0  0  0  0  0  0  0  0  0  0  0  0
  -19.0740   17.5893  -16.2413 C   0  0  0  0  0  0  0  0  0  0  0  0
  -19.0953   16.2820  -16.6554 C   0  0  0  0  0  0  0  0  0  0  0  0
  -19.3708   15.9283  -17.9805 C   0  0  0  0  0  0  0  0  0  0  0  0
  -19.3449   14.5909  -18.3396 C   0  0  0  0  0  0  0  0  0  0  0  0
  -19.9823   19.3466  -19.3438 C   0  0  0  0  0  0  0  0  0  0  0  0
  -21.1110   19.9044  -19.0208 O   0  0  0  0  0  0  0  0  0  0  0  0
  -19.3504   19.8807  -20.4596 N   0  0  0  0  0  0  0  0  0  0  0  0
  -18.4605   19.5297  -20.8695 H   0  0  0  0  0  0  0  0  0  0  0  0
  -19.9402   21.0074  -21.1924 C   0  0  0  0  0  0  0  0  0  0  0  0
  -19.5214   21.2032  -22.6505 C   0  0  0  0  0  0  0  0  0  0  0  0
  -20.9053   20.7855  -22.2831 C   0  0  0  0  0  0  0  0  0  0  0  0
  -19.5528   12.8708  -20.0235 O   0  0  0  0  0  0  0  0  0  0  0  0
  -16.1555   13.0570  -23.6888 C   0  0  0  0  0  0  0  0  0  0  0  0
  -15.7239   12.1401  -22.7492 C   0  0  0  0  0  0  0  0  0  0  0  0
  -16.4418   11.8481  -21.6028 C   0  0  0  0  0  0  0  0  0  0  0  0
  -15.9828   10.9598  -20.6987 N   0  0  0  0  0  0  0  0  0  0  0  0
  -16.6793   10.6995  -19.5893 C   0  0  0  0  0  0  0  0  0  0  0  0
  -17.8707   11.3069  -19.3167 C   0  0  0  0  0  0  0  0  0  0  0  0
  -18.3538   12.2381  -20.2650 C   0  0  0  0  0  0  0  0  0  0  0  0
  -17.6412   12.5148  -21.4105 C   0  0  0  0  0  0  0  0  0  0  0  0
  -18.0710   13.4443  -22.3669 C   0  0  0  0  0  0  0  0  0  0  0  0
  -17.3501   13.7279  -23.5040 C   0  0  0  0  0  0  0  0  0  0  0  0
  -14.4057   14.3011  -24.7905 C   0  0  0  0  0  0  0  0  0  0  0  0
  -15.4455   13.3507  -24.8300 O   0  0  0  0  0  0  0  0  0  0  0  0
  -17.7820   14.6530  -24.4550 O   0  0  0  0  0  0  0  0  0  0  0  0
  -17.9814   16.0219  -24.1848 C   0  0  0  0  0  0  0  0  0  0  0  0
 29 30  1  0  0  0
 30 19  1  0  0  0
 19 20  2  0  0  0
 20 21  1  0  0  0
 21 22  2  0  0  0
 22 23  1  0  0  0
 23 24  2  0  0  0
 24 25  1  0  0  0
 25 18  1  0  0  0
 18  1  1  0  0  0
  1  2  2  0  0  0
  2  3  1  0  0  0
  3  4  2  0  0  0
  4  5  1  0  0  0
  5  6  2  0  0  0
  6  7  1  0  0  0
  7  8  2  0  0  0
  8  9  1  0  0  0
  9 10  2  0  0  0
  5 11  1  0  0  0
 11 12  2  0  0  0
 11 13  1  0  0  0
 13 15  1  0  0  0
 15 16  1  0  0  0
 16 17  1  0  0  0
 25 26  2  0  0  0
 26 27  1  0  0  0
 27 28  2  0  0  0
 28 31  1  0  0  0
 31 32  1  0  0  0
 28 19  1  0  0  0
 26 21  1  0  0  0
 10  1  1  0  0  0
 17 15  1  0  0  0
  9  4  1  0  0  0
 13 14  1  0  0  0
M  END
> <minimizedAffinity>
-7.24271

> <CNNscore>
0.3232848048

> <CNNaffinity>
6.6582589149

> <CNN_VS>
2.1525139809

> <CNNaffinity_variance>
0.2904787958

$$$$
[H]c1nc2c([H])c(OC([H])([H])[H])c(OC([H])([H])[H])c([H])c2c(Oc2c([H])c([H])c3c(C(=O)N([H])C4([H])C([H])([H])C4([H])[H])c([H])c([H])c([H])c3c2[H])c1[H]


 32 36  0  0  0  0  0  0  0  0999 V2000
  -19.0076   14.0582  -20.9401 C   0  0  0  0  0  0  0  0  0  0  0  0
  -19.8439   14.0288  -19.8492 C   0  0  0  0  0  0  0  0  0  0  0  0
  -19.8196   13.0555  -18.8737 C   0  0  0  0  0  0  0  0  0  0  0  0
  -18.9159   12.0149  -18.9463 C   0  0  0  0  0  0  0  0  0  0  0  0
  -18.8326   11.0377  -17.9848 C   0  0  0  0  0  0  0  0  0  0  0  0
  -17.8598   10.0184  -18.0879 C   0  0  0  0  0  0  0  0  0  0  0  0
  -17.0107   10.0267  -19.1658 C   0  0  0  0  0  0  0  0  0  0  0  0
  -17.1120   11.0090  -20.1175 C   0  0  0  0  0  0  0  0  0  0  0  0
  -18.0667   12.0280  -20.0328 C   0  0  0  0  0  0  0  0  0  0  0  0
  -18.0942   13.0077  -21.0114 C   0  0  0  0  0  0  0  0  0  0  0  0
  -19.7703   10.9233  -16.9032 C   0  0  0  0  0  0  0  0  0  0  0  0
  -20.1367    9.6993  -16.6641 O   0  0  0  0  0  0  0  0  0  0  0  0
  -20.3492   11.8891  -16.0897 N   0  0  0  0  0  0  0  0  0  0  0  0
  -20.1900   12.9145  -16.1708 H   0  0  0  0  0  0  0  0  0  0  0  0
  -21.2965   11.5151  -15.0329 C   0  0  0  0  0  0  0  0  0  0  0  0
  -20.8261   11.6361  -13.5824 C   0  0  0  0  0  0  0  0  0  0  0  0
  -21.8818   12.5302  -14.1400 C   0  0  0  0  0  0  0  0  0  0  0  0
  -19.0395   15.0402  -21.9131 O   0  0  0  0  0  0  0  0  0  0  0  0
  -15.7759   15.3663  -25.6883 C   0  0  0  0  0  0  0  0  0  0  0  0
  -15.4042   16.2787  -24.7192 C   0  0  0  0  0  0  0  0  0  0  0  0
  -16.1025   16.4402  -23.5355 C   0  0  0  0  0  0  0  0  0  0  0  0
  -15.7212   17.3519  -22.6187 N   0  0  0  0  0  0  0  0  0  0  0  0
  -16.4140   17.5072  -21.4875 C   0  0  0  0  0  0  0  0  0  0  0  0
  -17.5238   16.7651  -21.2041 C   0  0  0  0  0  0  0  0  0  0  0  0
  -17.9241   15.8074  -22.1647 C   0  0  0  0  0  0  0  0  0  0  0  0
  -17.2174   15.6422  -23.3351 C   0  0  0  0  0  0  0  0  0  0  0  0
  -17.5887   14.7208  -24.3233 C   0  0  0  0  0  0  0  0  0  0  0  0
  -16.8878   14.5672  -25.4973 C   0  0  0  0  0  0  0  0  0  0  0  0
  -15.6350   15.6648  -28.0788 C   0  0  0  0  0  0  0  0  0  0  0  0
  -15.0850   15.2020  -26.8666 O   0  0  0  0  0  0  0  0  0  0  0  0
  -17.2597   13.6477  -26.4785 O   0  0  0  0  0  0  0  0  0  0  0  0
  -17.5803   12.3014  -26.2117 C   0  0  0  0  0  0  0  0  0  0  0  0
 29 30  1  0  0  0
 30 19  1  0  0  0
 19 20  2  0  0  0
 20 21  1  0  0  0
 21 22  2  0  0  0
 22 23  1  0  0  0
 23 24  2  0  0  0
 24 25  1  0  0  0
 25 18  1  0  0  0
 18  1  1  0  0  0
  1  2  2  0  0  0
  2  3  1  0  0  0
  3  4  2  0  0  0
  4  5  1  0  0  0
  5  6  2  0  0  0
  6  7  1  0  0  0
  7  8  2  0  0  0
  8  9  1  0  0  0
  9 10  2  0  0  0
  5 11  1  0  0  0
 11 12  2  0  0  0
 11 13  1  0  0  0
 13 15  1  0  0  0
 15 16  1  0  0  0
 16 17  1  0  0  0
 25 26  2  0  0  0
 26 27  1  0  0  0
 27 28  2  0  0  0
 28 31  1  0  0  0
 31 32  1  0  0  0
 28 19  1  0  0  0
 26 21  1  0  0  0
 10  1  1  0  0  0
 17 15  1  0  0  0
  9  4  1  0  0  0
 13 14  1  0  0  0
M  END
> <minimizedAffinity>
-9.14461

> <CNNscore>
0.3171350658

> <CNNaffinity>
6.6173362732

> <CNN_VS>
2.0985894203

> <CNNaffinity_variance>
0.0583010092

$$$$
[H]c1nc2c([H])c(OC([H])([H])[H])c(OC([H])([H])[H])c([H])c2c(Oc2c([H])c([H])c3c(C(=O)N([H])C4([H])C([H])([H])C4([H])[H])c([H])c([H])c([H])c3c2[H])c1[H]


 32 36  0  0  0  0  0  0  0  0999 V2000
  -19.0239   12.1805  -17.3050 C   0  0  0  0  0  0  0  0  0  0  0  0
  -19.3339   10.8440  -17.3949 C   0  0  0  0  0  0  0  0  0  0  0  0
  -20.3843   10.2410  -16.7370 C   0  0  0  0  0  0  0  0  0  0  0  0
  -21.2134   10.9802  -15.9178 C   0  0  0  0  0  0  0  0  0  0  0  0
  -22.2898   10.4318  -15.2645 C   0  0  0  0  0  0  0  0  0  0  0  0
  -23.1307   11.2440  -14.4713 C   0  0  0  0  0  0  0  0  0  0  0  0
  -22.8447   12.5820  -14.3675 C   0  0  0  0  0  0  0  0  0  0  0  0
  -21.7630   13.1103  -15.0245 C   0  0  0  0  0  0  0  0  0  0  0  0
  -20.9196   12.3237  -15.8162 C   0  0  0  0  0  0  0  0  0  0  0  0
  -19.8629   12.9262  -16.4787 C   0  0  0  0  0  0  0  0  0  0  0  0
  -22.5608    9.0216  -15.2514 C   0  0  0  0  0  0  0  0  0  0  0  0
  -23.6545    8.6996  -15.8756 O   0  0  0  0  0  0  0  0  0  0  0  0
  -21.8645    7.9626  -14.6827 N   0  0  0  0  0  0  0  0  0  0  0  0
  -20.9920    8.0513  -14.1223 H   0  0  0  0  0  0  0  0  0  0  0  0
  -22.3536    6.5845  -14.8093 C   0  0  0  0  0  0  0  0  0  0  0  0
  -21.4950    5.5964  -15.6008 C   0  0  0  0  0  0  0  0  0  0  0  0
  -21.6757    5.4695  -14.1257 C   0  0  0  0  0  0  0  0  0  0  0  0
  -17.9680   12.7761  -17.9701 O   0  0  0  0  0  0  0  0  0  0  0  0
  -17.8736   13.9427  -22.8322 C   0  0  0  0  0  0  0  0  0  0  0  0
  -17.1959   12.7502  -22.6635 C   0  0  0  0  0  0  0  0  0  0  0  0
  -17.0407   12.1454  -21.4285 C   0  0  0  0  0  0  0  0  0  0  0  0
  -16.3590   10.9898  -21.2977 N   0  0  0  0  0  0  0  0  0  0  0  0
  -16.2042   10.4256  -20.0972 C   0  0  0  0  0  0  0  0  0  0  0  0
  -16.7184   10.9778  -18.9600 C   0  0  0  0  0  0  0  0  0  0  0  0
  -17.4348   12.1895  -19.0961 C   0  0  0  0  0  0  0  0  0  0  0  0
  -17.5972   12.7799  -20.3296 C   0  0  0  0  0  0  0  0  0  0  0  0
  -18.2812   13.9896  -20.5089 C   0  0  0  0  0  0  0  0  0  0  0  0
  -18.4305   14.5834  -21.7411 C   0  0  0  0  0  0  0  0  0  0  0  0
  -16.9470   15.2196  -24.6583 C   0  0  0  0  0  0  0  0  0  0  0  0
  -18.0306   14.5480  -24.0577 O   0  0  0  0  0  0  0  0  0  0  0  0
  -19.1136   15.7873  -21.9160 O   0  0  0  0  0  0  0  0  0  0  0  0
  -18.9913   16.8925  -21.0500 C   0  0  0  0  0  0  0  0  0  0  0  0
 29 30  1  0  0  0
 30 19  1  0  0  0
 19 20  2  0  0  0
 20 21  1  0  0  0
 21 22  2  0  0  0
 22 23  1  0  0  0
 23 24  2  0  0  0
 24 25  1  0  0  0
 25 18  1  0  0  0
 18  1  1  0  0  0
  1  2  2  0  0  0
  2  3  1  0  0  0
  3  4  2  0  0  0
  4  5  1  0  0  0
  5  6  2  0  0  0
  6  7  1  0  0  0
  7  8  2  0  0  0
  8  9  1  0  0  0
  9 10  2  0  0  0
  5 11  1  0  0  0
 11 12  2  0  0  0
 11 13  1  0  0  0
 13 15  1  0  0  0
 15 16  1  0  0  0
 16 17  1  0  0  0
 25 26  2  0  0  0
 26 27  1  0  0  0
 27 28  2  0  0  0
 28 31  1  0  0  0
 31 32  1  0  0  0
 28 19  1  0  0  0
 26 21  1  0  0  0
 10  1  1  0  0  0
 17 15  1  0  0  0
  9  4  1  0  0  0
 13 14  1  0  0  0
M  END
> <minimizedAffinity>
-7.69466

> <CNNscore>
0.2832235694

> <CNNaffinity>
6.3068389893

> <CNN_VS>
1.7862454653

> <CNNaffinity_variance>
0.2513264120

$$$$
[H]c1nc2c([H])c(OC([H])([H])[H])c(OC([H])([H])[H])c([H])c2c(Oc2c([H])c([H])c3c(C(=O)N([H])C4([H])C([H])([H])C4([H])[H])c([H])c([H])c([H])c3c2[H])c1[H]


 32 36  0  0  0  0  0  0  0  0999 V2000
  -19.1219   14.0911  -20.8327 C   0  0  0  0  0  0  0  0  0  0  0  0
  -19.9590   14.1639  -19.7444 C   0  0  0  0  0  0  0  0  0  0  0  0
  -19.9889   13.2420  -18.7203 C   0  0  0  0  0  0  0  0  0  0  0  0
  -19.1440   12.1507  -18.7367 C   0  0  0  0  0  0  0  0  0  0  0  0
  -19.1152   11.2210  -17.7261 C   0  0  0  0  0  0  0  0  0  0  0  0
  -18.2001   10.1457  -17.7738 C   0  0  0  0  0  0  0  0  0  0  0  0
  -17.3516   10.0518  -18.8480 C   0  0  0  0  0  0  0  0  0  0  0  0
  -17.3981   10.9881  -19.8491 C   0  0  0  0  0  0  0  0  0  0  0  0
  -18.2950   12.0612  -19.8196 C   0  0  0  0  0  0  0  0  0  0  0  0
  -18.2681   12.9894  -20.8472 C   0  0  0  0  0  0  0  0  0  0  0  0
  -20.0582   11.2142  -16.6430 C   0  0  0  0  0  0  0  0  0  0  0  0
  -19.8267   12.1302  -15.7504 O   0  0  0  0  0  0  0  0  0  0  0  0
  -21.1531   10.3976  -16.3901 N   0  0  0  0  0  0  0  0  0  0  0  0
  -21.4545    9.5983  -16.9847 H   0  0  0  0  0  0  0  0  0  0  0  0
  -21.9783   10.5933  -15.1921 C   0  0  0  0  0  0  0  0  0  0  0  0
  -23.3664    9.9507  -15.1735 C   0  0  0  0  0  0  0  0  0  0  0  0
  -22.2720    9.4758  -14.2783 C   0  0  0  0  0  0  0  0  0  0  0  0
  -19.0992   15.0221  -21.8547 O   0  0  0  0  0  0  0  0  0  0  0  0
  -15.7855   15.3102  -25.5892 C   0  0  0  0  0  0  0  0  0  0  0  0
  -15.4097   16.2112  -24.6111 C   0  0  0  0  0  0  0  0  0  0  0  0
  -16.1192   16.3789  -23.4349 C   0  0  0  0  0  0  0  0  0  0  0  0
  -15.7333   17.2793  -22.5089 N   0  0  0  0  0  0  0  0  0  0  0  0
  -16.4368   17.4410  -21.3853 C   0  0  0  0  0  0  0  0  0  0  0  0
  -17.5625   16.7169  -21.1190 C   0  0  0  0  0  0  0  0  0  0  0  0
  -17.9678   15.7710  -22.0892 C   0  0  0  0  0  0  0  0  0  0  0  0
  -17.2501   15.5994  -23.2519 C   0  0  0  0  0  0  0  0  0  0  0  0
  -17.6254   14.6895  -24.2492 C   0  0  0  0  0  0  0  0  0  0  0  0
  -16.9133   14.5296  -25.4156 C   0  0  0  0  0  0  0  0  0  0  0  0
  -15.6024   15.6338  -27.9736 C   0  0  0  0  0  0  0  0  0  0  0  0
  -15.0835   15.1397  -26.7601 O   0  0  0  0  0  0  0  0  0  0  0  0
  -17.2892   13.6215  -26.4058 O   0  0  0  0  0  0  0  0  0  0  0  0
  -17.6274   12.2772  -26.1509 C   0  0  0  0  0  0  0  0  0  0  0  0
 29 30  1  0  0  0
 30 19  1  0  0  0
 19 20  2  0  0  0
 20 21  1  0  0  0
 21 22  2  0  0  0
 22 23  1  0  0  0
 23 24  2  0  0  0
 24 25  1  0  0  0
 25 18  1  0  0  0
 18  1  1  0  0  0
  1  2  2  0  0  0
  2  3  1  0  0  0
  3  4  2  0  0  0
  4  5  1  0  0  0
  5  6  2  0  0  0
  6  7  1  0  0  0
  7  8  2  0  0  0
  8  9  1  0  0  0
  9 10  2  0  0  0
  5 11  1  0  0  0
 11 12  2  0  0  0
 11 13  1  0  0  0
 13 15  1  0  0  0
 15 16  1  0  0  0
 16 17  1  0  0  0
 25 26  2  0  0  0
 26 27  1  0  0  0
 27 28  2  0  0  0
 28 31  1  0  0  0
 31 32  1  0  0  0
 28 19  1  0  0  0
 26 21  1  0  0  0
 10  1  1  0  0  0
 17 15  1  0  0  0
  9  4  1  0  0  0
 13 14  1  0  0  0
M  END
> <minimizedAffinity>
-9.02938

> <CNNscore>
0.2662504315

> <CNNaffinity>
6.5136961937

> <CNN_VS>
1.7342743874

> <CNNaffinity_variance>
0.0672645196

$$$$
[H]c1nc2c([H])c(OC([H])([H])[H])c(OC([H])([H])[H])c([H])c2c(Oc2c([H])c([H])c3c(C(=O)N([H])C4([H])C([H])([H])C4([H])[H])c([H])c([H])c([H])c3c2[H])c1[H]


 32 36  0  0  0  0  0  0  0  0999 V2000
  -19.0899   12.0367  -18.8038 C   0  0  0  0  0  0  0  0  0  0  0  0
  -19.2925   12.9488  -19.8124 C   0  0  0  0  0  0  0  0  0  0  0  0
  -18.4972   13.0628  -20.9322 C   0  0  0  0  0  0  0  0  0  0  0  0
  -17.4089   12.2319  -21.1048 C   0  0  0  0  0  0  0  0  0  0  0  0
  -16.6040   12.2865  -22.2163 C   0  0  0  0  0  0  0  0  0  0  0  0
  -15.5275   11.3831  -22.3611 C   0  0  0  0  0  0  0  0  0  0  0  0
  -15.3055   10.4608  -21.3697 C   0  0  0  0  0  0  0  0  0  0  0  0
  -16.1181   10.4244  -20.2655 C   0  0  0  0  0  0  0  0  0  0  0  0
  -17.1901   11.3084  -20.1042 C   0  0  0  0  0  0  0  0  0  0  0  0
  -17.9914   11.1969  -18.9800 C   0  0  0  0  0  0  0  0  0  0  0  0
  -16.7273   13.3049  -23.2215 C   0  0  0  0  0  0  0  0  0  0  0  0
  -17.4116   12.9262  -24.2596 O   0  0  0  0  0  0  0  0  0  0  0  0
  -16.2358   14.6032  -23.2718 N   0  0  0  0  0  0  0  0  0  0  0  0
  -15.6431   15.0482  -22.5412 H   0  0  0  0  0  0  0  0  0  0  0  0
  -16.5021   15.4653  -24.4295 C   0  0  0  0  0  0  0  0  0  0  0  0
  -17.5137   16.5990  -24.2527 C   0  0  0  0  0  0  0  0  0  0  0  0
  -16.0605   16.8706  -24.4506 C   0  0  0  0  0  0  0  0  0  0  0  0
  -19.8945   11.9297  -17.6843 O   0  0  0  0  0  0  0  0  0  0  0  0
  -21.3140   11.0723  -12.9663 C   0  0  0  0  0  0  0  0  0  0  0  0
  -20.5712    9.9887  -13.3950 C   0  0  0  0  0  0  0  0  0  0  0  0
  -20.0234    9.9109  -14.6634 C   0  0  0  0  0  0  0  0  0  0  0  0
  -19.3178    8.8309  -15.0543 N   0  0  0  0  0  0  0  0  0  0  0  0
  -18.8080    8.7633  -16.2868 C   0  0  0  0  0  0  0  0  0  0  0  0
  -18.9706    9.7649  -17.1994 C   0  0  0  0  0  0  0  0  0  0  0  0
  -19.7098   10.8991  -16.7901 C   0  0  0  0  0  0  0  0  0  0  0  0
  -20.2413   10.9763  -15.5221 C   0  0  0  0  0  0  0  0  0  0  0  0
  -20.9971   12.0706  -15.0803 C   0  0  0  0  0  0  0  0  0  0  0  0
  -21.5377   12.1389  -13.8170 C   0  0  0  0  0  0  0  0  0  0  0  0
  -21.0342   11.4031  -10.5923 C   0  0  0  0  0  0  0  0  0  0  0  0
  -21.8605   11.1543  -11.7064 O   0  0  0  0  0  0  0  0  0  0  0  0
  -22.2884   13.2308  -13.3801 O   0  0  0  0  0  0  0  0  0  0  0  0
  -22.6050   14.3403  -14.1896 C   0  0  0  0  0  0  0  0  0  0  0  0
 29 30  1  0  0  0
 30 19  1  0  0  0
 19 20  2  0  0  0
 20 21  1  0  0  0
 21 22  2  0  0  0
 22 23  1  0  0  0
 23 24  2  0  0  0
 24 25  1  0  0  0
 25 18  1  0  0  0
 18  1  1  0  0  0
  1  2  2  0  0  0
  2  3  1  0  0  0
  3  4  2  0  0  0
  4  5  1  0  0  0
  5  6  2  0  0  0
  6  7  1  0  0  0
  7  8  2  0  0  0
  8  9  1  0  0  0
  9 10  2  0  0  0
  5 11  1  0  0  0
 11 12  2  0  0  0
 11 13  1  0  0  0
 13 15  1  0  0  0
 15 16  1  0  0  0
 16 17  1  0  0  0
 25 26  2  0  0  0
 26 27  1  0  0  0
 27 28  2  0  0  0
 28 31  1  0  0  0
 31 32  1  0  0  0
 28 19  1  0  0  0
 26 21  1  0  0  0
 10  1  1  0  0  0
 17 15  1  0  0  0
  9  4  1  0  0  0
 13 14  1  0  0  0
M  END
> <minimizedAffinity>
-8.76636

> <CNNscore>
0.2161240876

> <CNNaffinity>
5.9183282852

> <CNN_VS>
1.2790932655

> <CNNaffinity_variance>
0.2448968142

$$$$
[H]c1nc2c([H])c(OC([H])([H])[H])c(OC([H])([H])[H])c([H])c2c(Oc2c([H])c([H])c3c(C(=O)N([H])C4([H])C([H])([H])C4([H])[H])c([H])c([H])c([H])c3c2[H])c1[H]


 32 36  0  0  0  0  0  0  0  0999 V2000
  -19.3133   16.0960  -19.3581 C   0  0  0  0  0  0  0  0  0  0  0  0
  -19.7667   16.3131  -18.0783 C   0  0  0  0  0  0  0  0  0  0  0  0
  -21.0095   16.8209  -17.7667 C   0  0  0  0  0  0  0  0  0  0  0  0
  -21.9004   17.1529  -18.7673 C   0  0  0  0  0  0  0  0  0  0  0  0
  -23.1602   17.6342  -18.5076 C   0  0  0  0  0  0  0  0  0  0  0  0
  -24.0469   17.9184  -19.5702 C   0  0  0  0  0  0  0  0  0  0  0  0
  -23.6197   17.7075  -20.8570 C   0  0  0  0  0  0  0  0  0  0  0  0
  -22.3566   17.2299  -21.0961 C   0  0  0  0  0  0  0  0  0  0  0  0
  -21.4645   16.9404  -20.0582 C   0  0  0  0  0  0  0  0  0  0  0  0
  -20.2146   16.4302  -20.3675 C   0  0  0  0  0  0  0  0  0  0  0  0
  -23.6092   17.9776  -17.1874 C   0  0  0  0  0  0  0  0  0  0  0  0
  -24.3662   17.0699  -16.6466 O   0  0  0  0  0  0  0  0  0  0  0  0
  -23.3806   19.1052  -16.4090 N   0  0  0  0  0  0  0  0  0  0  0  0
  -22.8271   19.9354  -16.7051 H   0  0  0  0  0  0  0  0  0  0  0  0
  -23.9602   19.2237  -15.0658 C   0  0  0  0  0  0  0  0  0  0  0  0
  -23.0801   19.8136  -13.9623 C   0  0  0  0  0  0  0  0  0  0  0  0
  -24.2732   20.5407  -14.4845 C   0  0  0  0  0  0  0  0  0  0  0  0
  -18.0645   15.5851  -19.6600 O   0  0  0  0  0  0  0  0  0  0  0  0
  -16.7924   13.3988  -23.9742 C   0  0  0  0  0  0  0  0  0  0  0  0
  -17.0556   12.4052  -23.0505 C   0  0  0  0  0  0  0  0  0  0  0  0
  -17.4398   12.6756  -21.7488 C   0  0  0  0  0  0  0  0  0  0  0  0
  -17.6728   11.6814  -20.8687 N   0  0  0  0  0  0  0  0  0  0  0  0
  -18.0281   11.9579  -19.6114 C   0  0  0  0  0  0  0  0  0  0  0  0
  -18.1721   13.2373  -19.1586 C   0  0  0  0  0  0  0  0  0  0  0  0
  -17.9291   14.2811  -20.0813 C   0  0  0  0  0  0  0  0  0  0  0  0
  -17.5597   14.0055  -21.3791 C   0  0  0  0  0  0  0  0  0  0  0  0
  -17.2893   15.0071  -22.3211 C   0  0  0  0  0  0  0  0  0  0  0  0
  -16.9079   14.7284  -23.6134 C   0  0  0  0  0  0  0  0  0  0  0  0
  -17.3466   12.6308  -26.1938 C   0  0  0  0  0  0  0  0  0  0  0  0
  -16.4102   13.1352  -25.2693 O   0  0  0  0  0  0  0  0  0  0  0  0
  -16.6409   15.7283  -24.5491 O   0  0  0  0  0  0  0  0  0  0  0  0
  -15.4452   16.4737  -24.5820 C   0  0  0  0  0  0  0  0  0  0  0  0
 29 30  1  0  0  0
 30 19  1  0  0  0
 19 20  2  0  0  0
 20 21  1  0  0  0
 21 22  2  0  0  0
 22 23  1  0  0  0
 23 24  2  0  0  0
 24 25  1  0  0  0
 25 18  1  0  0  0
 18  1  1  0  0  0
  1  2  2  0  0  0
  2  3  1  0  0  0
  3  4  2  0  0  0
  4  5  1  0  0  0
  5  6  2  0  0  0
  6  7  1  0  0  0
  7  8  2  0  0  0
  8  9  1  0  0  0
  9 10  2  0  0  0
  5 11  1  0  0  0
 11 12  2  0  0  0
 11 13  1  0  0  0
 13 15  1  0  0  0
 15 16  1  0  0  0
 16 17  1  0  0  0
 25 26  2  0  0  0
 26 27  1  0  0  0
 27 28  2  0  0  0
 28 31  1  0  0  0
 31 32  1  0  0  0
 28 19  1  0  0  0
 26 21  1  0  0  0
 10  1  1  0  0  0
 17 15  1  0  0  0
  9  4  1  0  0  0
 13 14  1  0  0  0
M  END
> <minimizedAffinity>
-6.69982

> <CNNscore>
0.1491134912

> <CNNaffinity>
6.1594457626

> <CNN_VS>
0.9184564352

> <CNNaffinity_variance>
0.3184445500

$$$$
[H]c1nc2c([H])c(OC([H])([H])[H])c(OC([H])([H])[H])c([H])c2c(Oc2c([H])c([H])c3c(C(=O)N([H])C4([H])C([H])([H])C4([H])[H])c([H])c([H])c([H])c3c2[H])c1[H]


 32 36  0  0  0  0  0  0  0  0999 V2000
  -18.0808   17.4872  -22.1226 C   0  0  0  0  0  0  0  0  0  0  0  0
  -18.8163   17.4354  -23.2831 C   0  0  0  0  0  0  0  0  0  0  0  0
  -20.1447   17.7896  -23.3811 C   0  0  0  0  0  0  0  0  0  0  0  0
  -20.8343   18.2323  -22.2705 C   0  0  0  0  0  0  0  0  0  0  0  0
  -22.1495   18.6244  -22.3230 C   0  0  0  0  0  0  0  0  0  0  0  0
  -22.7947   19.1094  -21.1634 C   0  0  0  0  0  0  0  0  0  0  0  0
  -22.0818   19.1739  -19.9929 C   0  0  0  0  0  0  0  0  0  0  0  0
  -20.7703   18.7741  -19.9598 C   0  0  0  0  0  0  0  0  0  0  0  0
  -20.1128   18.2931  -21.0969 C   0  0  0  0  0  0  0  0  0  0  0  0
  -18.7779   17.9360  -21.0022 C   0  0  0  0  0  0  0  0  0  0  0  0
  -22.9658   18.4680  -23.4941 C   0  0  0  0  0  0  0  0  0  0  0  0
  -23.9866   17.6843  -23.3116 O   0  0  0  0  0  0  0  0  0  0  0  0
  -22.8419   18.9988  -24.7718 N   0  0  0  0  0  0  0  0  0  0  0  0
  -22.0664   19.6146  -25.0921 H   0  0  0  0  0  0  0  0  0  0  0  0
  -23.8234   18.6845  -25.8168 C   0  0  0  0  0  0  0  0  0  0  0  0
  -23.3726   18.8051  -27.2736 C   0  0  0  0  0  0  0  0  0  0  0  0
  -23.6832   17.4828  -26.6573 C   0  0  0  0  0  0  0  0  0  0  0  0
  -16.7478   17.1304  -22.0351 O   0  0  0  0  0  0  0  0  0  0  0  0
  -17.1320   12.1600  -21.6377 C   0  0  0  0  0  0  0  0  0  0  0  0
  -16.3465   12.4434  -22.7388 C   0  0  0  0  0  0  0  0  0  0  0  0
  -16.0409   13.7357  -23.1281 C   0  0  0  0  0  0  0  0  0  0  0  0
  -15.2849   13.9763  -24.2179 N   0  0  0  0  0  0  0  0  0  0  0  0
  -15.0109   15.2292  -24.5904 C   0  0  0  0  0  0  0  0  0  0  0  0
  -15.4723   16.3127  -23.9005 C   0  0  0  0  0  0  0  0  0  0  0  0
  -16.2645   16.0615  -22.7562 C   0  0  0  0  0  0  0  0  0  0  0  0
  -16.5544   14.7729  -22.3663 C   0  0  0  0  0  0  0  0  0  0  0  0
  -17.3514   14.4772  -21.2523 C   0  0  0  0  0  0  0  0  0  0  0  0
  -17.6498   13.1888  -20.8729 C   0  0  0  0  0  0  0  0  0  0  0  0
  -16.4738   10.0896  -20.5872 C   0  0  0  0  0  0  0  0  0  0  0  0
  -17.4386   10.8771  -21.2466 O   0  0  0  0  0  0  0  0  0  0  0  0
  -18.4425   12.8982  -19.7622 O   0  0  0  0  0  0  0  0  0  0  0  0
  -17.9428   12.7828  -18.4494 C   0  0  0  0  0  0  0  0  0  0  0  0
 29 30  1  0  0  0
 30 19  1  0  0  0
 19 20  2  0  0  0
 20 21  1  0  0  0
 21 22  2  0  0  0
 22 23  1  0  0  0
 23 24  2  0  0  0
 24 25  1  0  0  0
 25 18  1  0  0  0
 18  1  1  0  0  0
  1  2  2  0  0  0
  2  3  1  0  0  0
  3  4  2  0  0  0
  4  5  1  0  0  0
  5  6  2  0  0  0
  6  7  1  0  0  0
  7  8  2  0  0  0
  8  9  1  0  0  0
  9 10  2  0  0  0
  5 11  1  0  0  0
 11 12  2  0  0  0
 11 13  1  0  0  0
 13 15  1  0  0  0
 15 16  1  0  0  0
 16 17  1  0  0  0
 25 26  2  0  0  0
 26 27  1  0  0  0
 27 28  2  0  0  0
 28 31  1  0  0  0
 31 32  1  0  0  0
 28 19  1  0  0  0
 26 21  1  0  0  0
 10  1  1  0  0  0
 17 15  1  0  0  0
  9  4  1  0  0  0
 13 14  1  0  0  0
M  END
> <minimizedAffinity>
-8.33882

> <CNNscore>
0.1417372972

> <CNNaffinity>
6.2066636086

> <CNN_VS>
0.8797157407

> <CNNaffinity_variance>
0.1079841107

$$$$
[H]c1nc(Oc2c([H])c([H])c(N([H])C(=O)N([H])c3c([H])c([H])c(C([H])([H])N4C([H])([H])C([H])([H])N(C([H])([H])C([H])([H])[H])C([H])([H])C4([H])[H])c(C(F)(F)F)c3[H])c([H])c2[H])c([H])c(N([H])C([H])([H])[H])n1


 41 44  0  0  0  0  0  0  0  0999 V2000
  -18.1342    8.9080  -16.9643 N   0  0  0  0  0  0  0  0  0  0  0  0
  -18.3598   10.0480  -17.7779 C   0  0  0  0  0  0  0  0  0  0  0  0
  -19.3585   10.7852  -17.6563 O   0  0  0  0  0  0  0  0  0  0  0  0
  -17.4044   10.3627  -18.7761 N   0  0  0  0  0  0  0  0  0  0  0  0
  -17.2594    8.3446  -17.1448 H   0  0  0  0  0  0  0  0  0  0  0  0
  -16.5587    9.7276  -18.8589 H   0  0  0  0  0  0  0  0  0  0  0  0
  -20.9364    7.5523  -14.1288 C   0  0  0  0  0  0  0  0  0  0  0  0
  -20.0079    8.4678  -13.7366 C   0  0  0  0  0  0  0  0  0  0  0  0
  -19.0531    8.9328  -14.6568 C   0  0  0  0  0  0  0  0  0  0  0  0
  -19.0035    8.5110  -15.9488 C   0  0  0  0  0  0  0  0  0  0  0  0
  -19.9777    7.5701  -16.3063 C   0  0  0  0  0  0  0  0  0  0  0  0
  -20.9291    7.0841  -15.4497 C   0  0  0  0  0  0  0  0  0  0  0  0
  -21.9169    6.0888  -15.9150 C   0  0  0  0  0  0  0  0  0  0  0  0
  -21.5022    5.6249  -17.1741 F   0  0  0  0  0  0  0  0  0  0  0  0
  -23.1735    6.5827  -16.1187 F   0  0  0  0  0  0  0  0  0  0  0  0
  -21.9076    4.9200  -15.1414 F   0  0  0  0  0  0  0  0  0  0  0  0
  -21.9497    7.0818  -13.1925 C   0  0  0  0  0  0  0  0  0  0  0  0
  -19.1902    6.1966  -10.5515 N   0  0  0  0  0  0  0  0  0  0  0  0
  -20.2453    7.1075  -10.2432 C   0  0  0  0  0  0  0  0  0  0  0  0
  -21.5904    6.7344  -10.8169 C   0  0  0  0  0  0  0  0  0  0  0  0
  -21.5510    6.2242  -12.1419 N   0  0  0  0  0  0  0  0  0  0  0  0
  -20.3626    5.5093  -12.5072 C   0  0  0  0  0  0  0  0  0  0  0  0
  -19.6383    5.0326  -11.2672 C   0  0  0  0  0  0  0  0  0  0  0  0
  -17.9506    8.3130  -10.7216 C   0  0  0  0  0  0  0  0  0  0  0  0
  -18.1601    6.9243  -11.2669 C   0  0  0  0  0  0  0  0  0  0  0  0
  -17.5255   11.4545  -19.6467 C   0  0  0  0  0  0  0  0  0  0  0  0
  -17.5011   11.1552  -21.0134 C   0  0  0  0  0  0  0  0  0  0  0  0
  -17.6426   12.1665  -21.9229 C   0  0  0  0  0  0  0  0  0  0  0  0
  -17.8118   13.4926  -21.5789 C   0  0  0  0  0  0  0  0  0  0  0  0
  -17.8348   13.7754  -20.2392 C   0  0  0  0  0  0  0  0  0  0  0  0
  -17.6924   12.7575  -19.2909 C   0  0  0  0  0  0  0  0  0  0  0  0
  -17.9537   14.5038  -22.5478 O   0  0  0  0  0  0  0  0  0  0  0  0
  -16.9529   14.5655  -23.5204 C   0  0  0  0  0  0  0  0  0  0  0  0
  -17.2565   14.5566  -24.8649 C   0  0  0  0  0  0  0  0  0  0  0  0
  -16.2180   14.6202  -25.7950 C   0  0  0  0  0  0  0  0  0  0  0  0
  -14.9661   14.6873  -25.3229 N   0  0  0  0  0  0  0  0  0  0  0  0
  -14.6614   14.6965  -24.0155 C   0  0  0  0  0  0  0  0  0  0  0  0
  -15.6685   14.6349  -23.1315 N   0  0  0  0  0  0  0  0  0  0  0  0
  -16.4755   14.6142  -27.1854 N   0  0  0  0  0  0  0  0  0  0  0  0
  -15.6673   15.4363  -28.0519 C   0  0  0  0  0  0  0  0  0  0  0  0
  -17.2359   14.0271  -27.5843 H   0  0  0  0  0  0  0  0  0  0  0  0
 24 25  1  0  0  0
 25 18  1  0  0  0
 18 19  1  0  0  0
 19 20  1  0  0  0
 20 21  1  0  0  0
 21 17  1  0  0  0
 17  7  1  0  0  0
  7  8  2  0  0  0
  8  9  1  0  0  0
  9 10  2  0  0  0
 10  1  1  0  0  0
  1  2  1  0  0  0
  2  3  2  0  0  0
  2  4  1  0  0  0
  4 26  1  0  0  0
 26 27  2  0  0  0
 27 28  1  0  0  0
 28 29  2  0  0  0
 29 32  1  0  0  0
 32 33  1  0  0  0
 33 34  2  0  0  0
 34 35  1  0  0  0
 35 39  1  0  0  0
 39 40  1  0  0  0
 35 36  2  0  0  0
 36 37  1  0  0  0
 37 38  2  0  0  0
 29 30  1  0  0  0
 30 31  2  0  0  0
 10 11  1  0  0  0
 11 12  2  0  0  0
 12 13  1  0  0  0
 13 14  1  0  0  0
 13 15  1  0  0  0
 13 16  1  0  0  0
 21 22  1  0  0  0
 22 23  1  0  0  0
 23 18  1  0  0  0
 12  7  1  0  0  0
 31 26  1  0  0  0
 38 33  1  0  0  0
  1  5  1  0  0  0
  4  6  1  0  0  0
 39 41  1  0  0  0
M  END
> <minimizedAffinity>
-8.18292

> <CNNscore>
0.2918102145

> <CNNaffinity>
6.4604134560

> <CNN_VS>
1.8852146864

> <CNNaffinity_variance>
0.0488068275

$$$$
[H]c1nc(Oc2c([H])c([H])c(N([H])C(=O)N([H])c3c([H])c([H])c(C([H])([H])N4C([H])([H])C([H])([H])N(C([H])([H])C([H])([H])[H])C([H])([H])C4([H])[H])c(C(F)(F)F)c3[H])c([H])c2[H])c([H])c(N([H])C([H])([H])[H])n1


 41 44  0  0  0  0  0  0  0  0999 V2000
  -18.1603    8.8135  -16.7769 N   0  0  0  0  0  0  0  0  0  0  0  0
  -18.2351    9.7990  -17.7946 C   0  0  0  0  0  0  0  0  0  0  0  0
  -19.1862   10.5990  -17.9000 O   0  0  0  0  0  0  0  0  0  0  0  0
  -17.1785    9.8767  -18.7358 N   0  0  0  0  0  0  0  0  0  0  0  0
  -17.3151    8.1803  -16.7714 H   0  0  0  0  0  0  0  0  0  0  0  0
  -16.3757    9.1922  -18.6249 H   0  0  0  0  0  0  0  0  0  0  0  0
  -21.2898    8.1580  -14.0369 C   0  0  0  0  0  0  0  0  0  0  0  0
  -20.3015    9.0306  -13.6962 C   0  0  0  0  0  0  0  0  0  0  0  0
  -19.2383    9.2638  -14.5849 C   0  0  0  0  0  0  0  0  0  0  0  0
  -19.1387    8.6535  -15.7962 C   0  0  0  0  0  0  0  0  0  0  0  0
  -20.1773    7.7652  -16.1031 C   0  0  0  0  0  0  0  0  0  0  0  0
  -21.2347    7.5017  -15.2739 C   0  0  0  0  0  0  0  0  0  0  0  0
  -22.2848    6.5453  -15.6808 C   0  0  0  0  0  0  0  0  0  0  0  0
  -21.8164    5.8410  -16.8020 F   0  0  0  0  0  0  0  0  0  0  0  0
  -23.4539    7.1199  -16.0899 F   0  0  0  0  0  0  0  0  0  0  0  0
  -22.4772    5.5254  -14.7388 F   0  0  0  0  0  0  0  0  0  0  0  0
  -22.4127    7.9273  -13.1368 C   0  0  0  0  0  0  0  0  0  0  0  0
  -19.8693    7.1854  -10.2465 N   0  0  0  0  0  0  0  0  0  0  0  0
  -20.7668    8.2933  -10.1768 C   0  0  0  0  0  0  0  0  0  0  0  0
  -22.1467    8.0245  -10.7257 C   0  0  0  0  0  0  0  0  0  0  0  0
  -22.1726    7.2529  -11.9179 N   0  0  0  0  0  0  0  0  0  0  0  0
  -21.1111    6.3017  -12.0765 C   0  0  0  0  0  0  0  0  0  0  0  0
  -20.4904    5.9834  -10.7337 C   0  0  0  0  0  0  0  0  0  0  0  0
  -17.4956    6.7680  -10.7325 C   0  0  0  0  0  0  0  0  0  0  0  0
  -18.7252    7.5805  -11.0449 C   0  0  0  0  0  0  0  0  0  0  0  0
  -17.1480   10.7989  -19.7908 C   0  0  0  0  0  0  0  0  0  0  0  0
  -16.2795   10.4962  -20.8455 C   0  0  0  0  0  0  0  0  0  0  0  0
  -16.2171   11.3355  -21.9233 C   0  0  0  0  0  0  0  0  0  0  0  0
  -16.9684   12.4871  -22.0464 C   0  0  0  0  0  0  0  0  0  0  0  0
  -17.8156   12.7744  -21.0095 C   0  0  0  0  0  0  0  0  0  0  0  0
  -17.8966   11.9306  -19.8973 C   0  0  0  0  0  0  0  0  0  0  0  0
  -16.8735   13.3244  -23.1739 O   0  0  0  0  0  0  0  0  0  0  0  0
  -17.1101   14.6828  -22.9501 C   0  0  0  0  0  0  0  0  0  0  0  0
  -18.2821   15.2842  -23.3561 C   0  0  0  0  0  0  0  0  0  0  0  0
  -18.4676   16.6448  -23.1075 C   0  0  0  0  0  0  0  0  0  0  0  0
  -17.4825   17.3002  -22.4793 N   0  0  0  0  0  0  0  0  0  0  0  0
  -16.3381   16.7226  -22.0805 C   0  0  0  0  0  0  0  0  0  0  0  0
  -16.1719   15.4142  -22.3253 N   0  0  0  0  0  0  0  0  0  0  0  0
  -19.6512   17.3094  -23.5033 N   0  0  0  0  0  0  0  0  0  0  0  0
  -20.2645   18.2490  -22.5972 C   0  0  0  0  0  0  0  0  0  0  0  0
  -20.0791   17.1277  -24.4339 H   0  0  0  0  0  0  0  0  0  0  0  0
 24 25  1  0  0  0
 25 18  1  0  0  0
 18 19  1  0  0  0
 19 20  1  0  0  0
 20 21  1  0  0  0
 21 17  1  0  0  0
 17  7  1  0  0  0
  7  8  2  0  0  0
  8  9  1  0  0  0
  9 10  2  0  0  0
 10  1  1  0  0  0
  1  2  1  0  0  0
  2  3  2  0  0  0
  2  4  1  0  0  0
  4 26  1  0  0  0
 26 27  2  0  0  0
 27 28  1  0  0  0
 28 29  2  0  0  0
 29 32  1  0  0  0
 32 33  1  0  0  0
 33 34  2  0  0  0
 34 35  1  0  0  0
 35 39  1  0  0  0
 39 40  1  0  0  0
 35 36  2  0  0  0
 36 37  1  0  0  0
 37 38  2  0  0  0
 29 30  1  0  0  0
 30 31  2  0  0  0
 10 11  1  0  0  0
 11 12  2  0  0  0
 12 13  1  0  0  0
 13 14  1  0  0  0
 13 15  1  0  0  0
 13 16  1  0  0  0
 21 22  1  0  0  0
 22 23  1  0  0  0
 23 18  1  0  0  0
 12  7  1  0  0  0
 31 26  1  0  0  0
 38 33  1  0  0  0
  1  5  1  0  0  0
  4  6  1  0  0  0
 39 41  1  0  0  0
M  END
> <minimizedAffinity>
-7.70337

> <CNNscore>
0.2850998044

> <CNNaffinity>
6.2440514565

> <CNN_VS>
1.7801778316

> <CNNaffinity_variance>
0.0809248835

$$$$
[H]c1nc(Oc2c([H])c([H])c(N([H])C(=O)N([H])c3c([H])c([H])c(C([H])([H])N4C([H])([H])C([H])([H])N(C([H])([H])C([H])([H])[H])C([H])([H])C4([H])[H])c(C(F)(F)F)c3[H])c([H])c2[H])c([H])c(N([H])C([H])([H])[H])n1


 41 44  0  0  0  0  0  0  0  0999 V2000
  -18.1447    8.7358  -16.7518 N   0  0  0  0  0  0  0  0  0  0  0  0
  -18.3833    9.8548  -17.5905 C   0  0  0  0  0  0  0  0  0  0  0  0
  -19.4113   10.5570  -17.5138 O   0  0  0  0  0  0  0  0  0  0  0  0
  -17.4068   10.1892  -18.5614 N   0  0  0  0  0  0  0  0  0  0  0  0
  -17.2447    8.2018  -16.8943 H   0  0  0  0  0  0  0  0  0  0  0  0
  -16.5366    9.5840  -18.6061 H   0  0  0  0  0  0  0  0  0  0  0  0
  -21.0167    7.3628  -13.9955 C   0  0  0  0  0  0  0  0  0  0  0  0
  -20.0215    8.1755  -13.5447 C   0  0  0  0  0  0  0  0  0  0  0  0
  -19.0424    8.6428  -14.4378 C   0  0  0  0  0  0  0  0  0  0  0  0
  -19.0329    8.3226  -15.7595 C   0  0  0  0  0  0  0  0  0  0  0  0
  -20.0751    7.4851  -16.1772 C   0  0  0  0  0  0  0  0  0  0  0  0
  -21.0529    7.0018  -15.3492 C   0  0  0  0  0  0  0  0  0  0  0  0
  -22.1135    6.1198  -15.8785 C   0  0  0  0  0  0  0  0  0  0  0  0
  -23.2183    6.9224  -16.2071 F   0  0  0  0  0  0  0  0  0  0  0  0
  -22.5958    5.2064  -14.9855 F   0  0  0  0  0  0  0  0  0  0  0  0
  -21.7726    5.5503  -17.1130 F   0  0  0  0  0  0  0  0  0  0  0  0
  -22.0544    6.8931  -13.0861 C   0  0  0  0  0  0  0  0  0  0  0  0
  -22.9322   10.6636  -12.4653 N   0  0  0  0  0  0  0  0  0  0  0  0
  -23.2431   10.0252  -13.7037 C   0  0  0  0  0  0  0  0  0  0  0  0
  -23.7127    8.5964  -13.5779 C   0  0  0  0  0  0  0  0  0  0  0  0
  -23.0106    7.8221  -12.6162 N   0  0  0  0  0  0  0  0  0  0  0  0
  -22.4949    8.5375  -11.4853 C   0  0  0  0  0  0  0  0  0  0  0  0
  -23.2302    9.8494  -11.3181 C   0  0  0  0  0  0  0  0  0  0  0  0
  -21.1588   11.6796  -13.8321 C   0  0  0  0  0  0  0  0  0  0  0  0
  -21.5426   11.0759  -12.5061 C   0  0  0  0  0  0  0  0  0  0  0  0
  -17.5374   11.2630  -19.4528 C   0  0  0  0  0  0  0  0  0  0  0  0
  -17.4885   10.9404  -20.8135 C   0  0  0  0  0  0  0  0  0  0  0  0
  -17.6375   11.9326  -21.7427 C   0  0  0  0  0  0  0  0  0  0  0  0
  -17.8374   13.2609  -21.4245 C   0  0  0  0  0  0  0  0  0  0  0  0
  -17.8842   13.5666  -20.0904 C   0  0  0  0  0  0  0  0  0  0  0  0
  -17.7347   12.5685  -19.1224 C   0  0  0  0  0  0  0  0  0  0  0  0
  -17.9859   14.2520  -22.4130 O   0  0  0  0  0  0  0  0  0  0  0  0
  -17.0035   14.2796  -23.4057 C   0  0  0  0  0  0  0  0  0  0  0  0
  -17.3348   14.3094  -24.7434 C   0  0  0  0  0  0  0  0  0  0  0  0
  -16.3138   14.3363  -25.6944 C   0  0  0  0  0  0  0  0  0  0  0  0
  -15.0506   14.3315  -25.2482 N   0  0  0  0  0  0  0  0  0  0  0  0
  -14.7190   14.3025  -23.9477 C   0  0  0  0  0  0  0  0  0  0  0  0
  -15.7095   14.2769  -23.0434 N   0  0  0  0  0  0  0  0  0  0  0  0
  -16.5998   14.3675  -27.0788 N   0  0  0  0  0  0  0  0  0  0  0  0
  -16.0107   15.4014  -27.8936 C   0  0  0  0  0  0  0  0  0  0  0  0
  -17.2257   13.6573  -27.5101 H   0  0  0  0  0  0  0  0  0  0  0  0
 24 25  1  0  0  0
 25 18  1  0  0  0
 18 19  1  0  0  0
 19 20  1  0  0  0
 20 21  1  0  0  0
 21 17  1  0  0  0
 17  7  1  0  0  0
  7  8  2  0  0  0
  8  9  1  0  0  0
  9 10  2  0  0  0
 10  1  1  0  0  0
  1  2  1  0  0  0
  2  3  2  0  0  0
  2  4  1  0  0  0
  4 26  1  0  0  0
 26 27  2  0  0  0
 27 28  1  0  0  0
 28 29  2  0  0  0
 29 32  1  0  0  0
 32 33  1  0  0  0
 33 34  2  0  0  0
 34 35  1  0  0  0
 35 39  1  0  0  0
 39 40  1  0  0  0
 35 36  2  0  0  0
 36 37  1  0  0  0
 37 38  2  0  0  0
 29 30  1  0  0  0
 30 31  2  0  0  0
 10 11  1  0  0  0
 11 12  2  0  0  0
 12 13  1  0  0  0
 13 14  1  0  0  0
 13 15  1  0  0  0
 13 16  1  0  0  0
 21 22  1  0  0  0
 22 23  1  0  0  0
 23 18  1  0  0  0
 12  7  1  0  0  0
 31 26  1  0  0  0
 38 33  1  0  0  0
  1  5  1  0  0  0
  4  6  1  0  0  0
 39 41  1  0  0  0
M  END
> <minimizedAffinity>
-8.30304

> <CNNscore>
0.2783369422

> <CNNaffinity>
6.4474349022

> <CNN_VS>
1.7945593596

> <CNNaffinity_variance>
0.0883614197

$$$$
[H]c1nc(Oc2c([H])c([H])c(N([H])C(=O)N([H])c3c([H])c([H])c(C([H])([H])N4C([H])([H])C([H])([H])N(C([H])([H])C([H])([H])[H])C([H])([H])C4([H])[H])c(C(F)(F)F)c3[H])c([H])c2[H])c([H])c(N([H])C([H])([H])[H])n1


 41 44  0  0  0  0  0  0  0  0999 V2000
  -18.1631    8.7540  -16.7721 N   0  0  0  0  0  0  0  0  0  0  0  0
  -18.4050    9.8690  -17.6152 C   0  0  0  0  0  0  0  0  0  0  0  0
  -19.4490   10.5496  -17.5623 O   0  0  0  0  0  0  0  0  0  0  0  0
  -17.4127   10.2252  -18.5621 N   0  0  0  0  0  0  0  0  0  0  0  0
  -17.2490    8.2392  -16.8936 H   0  0  0  0  0  0  0  0  0  0  0  0
  -16.5293    9.6384  -18.5866 H   0  0  0  0  0  0  0  0  0  0  0  0
  -21.0709    7.3175  -14.0867 C   0  0  0  0  0  0  0  0  0  0  0  0
  -20.1033    8.1492  -13.6111 C   0  0  0  0  0  0  0  0  0  0  0  0
  -19.1131    8.6381  -14.4801 C   0  0  0  0  0  0  0  0  0  0  0  0
  -19.0660    8.3208  -15.8017 C   0  0  0  0  0  0  0  0  0  0  0  0
  -20.0808    7.4633  -16.2453 C   0  0  0  0  0  0  0  0  0  0  0  0
  -21.0678    6.9587  -15.4414 C   0  0  0  0  0  0  0  0  0  0  0  0
  -22.0976    6.0565  -15.9970 C   0  0  0  0  0  0  0  0  0  0  0  0
  -21.6180    5.5537  -17.2176 F   0  0  0  0  0  0  0  0  0  0  0  0
  -23.2812    6.6624  -16.3071 F   0  0  0  0  0  0  0  0  0  0  0  0
  -22.2626    4.8935  -15.2322 F   0  0  0  0  0  0  0  0  0  0  0  0
  -22.1200    6.8250  -13.2028 C   0  0  0  0  0  0  0  0  0  0  0  0
  -22.7784    3.6017  -11.0697 N   0  0  0  0  0  0  0  0  0  0  0  0
  -21.8569    3.5927  -12.1599 C   0  0  0  0  0  0  0  0  0  0  0  0
  -21.0337    4.8497  -12.3022 C   0  0  0  0  0  0  0  0  0  0  0  0
  -21.7474    6.0567  -12.0763 N   0  0  0  0  0  0  0  0  0  0  0  0
  -22.8345    5.9814  -11.1439 C   0  0  0  0  0  0  0  0  0  0  0  0
  -22.6691    4.7750  -10.2457 C   0  0  0  0  0  0  0  0  0  0  0  0
  -24.1464    2.4627  -12.7656 C   0  0  0  0  0  0  0  0  0  0  0  0
  -24.1139    3.4238  -11.6059 C   0  0  0  0  0  0  0  0  0  0  0  0
  -17.5444   11.2974  -19.4552 C   0  0  0  0  0  0  0  0  0  0  0  0
  -17.5074   10.9710  -20.8155 C   0  0  0  0  0  0  0  0  0  0  0  0
  -17.6582   11.9616  -21.7460 C   0  0  0  0  0  0  0  0  0  0  0  0
  -17.8488   13.2918  -21.4299 C   0  0  0  0  0  0  0  0  0  0  0  0
  -17.8841   13.6011  -20.0963 C   0  0  0  0  0  0  0  0  0  0  0  0
  -17.7326   12.6047  -19.1268 C   0  0  0  0  0  0  0  0  0  0  0  0
  -17.9996   14.2811  -22.4198 O   0  0  0  0  0  0  0  0  0  0  0  0
  -17.0114   14.3164  -23.4065 C   0  0  0  0  0  0  0  0  0  0  0  0
  -17.3347   14.3428  -24.7462 C   0  0  0  0  0  0  0  0  0  0  0  0
  -16.3082   14.3777  -25.6910 C   0  0  0  0  0  0  0  0  0  0  0  0
  -15.0478   14.3837  -25.2372 N   0  0  0  0  0  0  0  0  0  0  0  0
  -14.7239   14.3580  -23.9346 C   0  0  0  0  0  0  0  0  0  0  0  0
  -15.7197   14.3246  -23.0364 N   0  0  0  0  0  0  0  0  0  0  0  0
  -16.5861   14.4058  -27.0771 N   0  0  0  0  0  0  0  0  0  0  0  0
  -15.9464   15.4022  -27.9006 C   0  0  0  0  0  0  0  0  0  0  0  0
  -17.2419   13.7202  -27.5035 H   0  0  0  0  0  0  0  0  0  0  0  0
 24 25  1  0  0  0
 25 18  1  0  0  0
 18 19  1  0  0  0
 19 20  1  0  0  0
 20 21  1  0  0  0
 21 17  1  0  0  0
 17  7  1  0  0  0
  7  8  2  0  0  0
  8  9  1  0  0  0
  9 10  2  0  0  0
 10  1  1  0  0  0
  1  2  1  0  0  0
  2  3  2  0  0  0
  2  4  1  0  0  0
  4 26  1  0  0  0
 26 27  2  0  0  0
 27 28  1  0  0  0
 28 29  2  0  0  0
 29 32  1  0  0  0
 32 33  1  0  0  0
 33 34  2  0  0  0
 34 35  1  0  0  0
 35 39  1  0  0  0
 39 40  1  0  0  0
 35 36  2  0  0  0
 36 37  1  0  0  0
 37 38  2  0  0  0
 29 30  1  0  0  0
 30 31  2  0  0  0
 10 11  1  0  0  0
 11 12  2  0  0  0
 12 13  1  0  0  0
 13 14  1  0  0  0
 13 15  1  0  0  0
 13 16  1  0  0  0
 21 22  1  0  0  0
 22 23  1  0  0  0
 23 18  1  0  0  0
 12  7  1  0  0  0
 31 26  1  0  0  0
 38 33  1  0  0  0
  1  5  1  0  0  0
  4  6  1  0  0  0
 39 41  1  0  0  0
M  END
> <minimizedAffinity>
-7.77314

> <CNNscore>
0.2578822076

> <CNNaffinity>
6.3275732994

> <CNN_VS>
1.6317685843

> <CNNaffinity_variance>
0.1654293090

$$$$
[H]c1nc(Oc2c([H])c([H])c(N([H])C(=O)N([H])c3c([H])c([H])c(C([H])([H])N4C([H])([H])C([H])([H])N(C([H])([H])C([H])([H])[H])C([H])([H])C4([H])[H])c(C(F)(F)F)c3[H])c([H])c2[H])c([H])c(N([H])C([H])([H])[H])n1


 41 44  0  0  0  0  0  0  0  0999 V2000
  -17.4627    9.4684  -18.4010 N   0  0  0  0  0  0  0  0  0  0  0  0
  -18.4790    9.5725  -17.4167 C   0  0  0  0  0  0  0  0  0  0  0  0
  -19.3068   10.5051  -17.3877 O   0  0  0  0  0  0  0  0  0  0  0  0
  -18.5559    8.5687  -16.4194 N   0  0  0  0  0  0  0  0  0  0  0  0
  -16.8074    8.6424  -18.3409 H   0  0  0  0  0  0  0  0  0  0  0  0
  -17.8474    7.7805  -16.4655 H   0  0  0  0  0  0  0  0  0  0  0  0
  -17.1931   12.4553  -21.3567 C   0  0  0  0  0  0  0  0  0  0  0  0
  -16.5854   11.2587  -21.5865 C   0  0  0  0  0  0  0  0  0  0  0  0
  -16.6491   10.2448  -20.6157 C   0  0  0  0  0  0  0  0  0  0  0  0
  -17.3003   10.3942  -19.4311 C   0  0  0  0  0  0  0  0  0  0  0  0
  -17.9098   11.6407  -19.2392 C   0  0  0  0  0  0  0  0  0  0  0  0
  -17.8774   12.6616  -20.1512 C   0  0  0  0  0  0  0  0  0  0  0  0
  -18.5477   13.9460  -19.8611 C   0  0  0  0  0  0  0  0  0  0  0  0
  -19.0518   13.8838  -18.5517 F   0  0  0  0  0  0  0  0  0  0  0  0
  -19.6341   14.2134  -20.6437 F   0  0  0  0  0  0  0  0  0  0  0  0
  -17.6475   15.0181  -19.7906 F   0  0  0  0  0  0  0  0  0  0  0  0
  -17.1585   13.5062  -22.3662 C   0  0  0  0  0  0  0  0  0  0  0  0
  -15.7869   14.9175  -25.7574 N   0  0  0  0  0  0  0  0  0  0  0  0
  -14.9267   14.7204  -24.6354 C   0  0  0  0  0  0  0  0  0  0  0  0
  -15.2184   13.4809  -23.8252 C   0  0  0  0  0  0  0  0  0  0  0  0
  -16.5988   13.2093  -23.6299 N   0  0  0  0  0  0  0  0  0  0  0  0
  -17.4801   13.6375  -24.6771 C   0  0  0  0  0  0  0  0  0  0  0  0
  -16.7068   13.8316  -25.9632 C   0  0  0  0  0  0  0  0  0  0  0  0
  -15.8962   16.9979  -24.4516 C   0  0  0  0  0  0  0  0  0  0  0  0
  -16.4610   16.1905  -25.5913 C   0  0  0  0  0  0  0  0  0  0  0  0
  -19.5072    8.5715  -15.3900 C   0  0  0  0  0  0  0  0  0  0  0  0
  -19.0834    9.0965  -14.1641 C   0  0  0  0  0  0  0  0  0  0  0  0
  -19.9657    9.1583  -13.1212 C   0  0  0  0  0  0  0  0  0  0  0  0
  -21.2756    8.7288  -13.1951 C   0  0  0  0  0  0  0  0  0  0  0  0
  -21.6811    8.2171  -14.3989 C   0  0  0  0  0  0  0  0  0  0  0  0
  -20.7965    8.1444  -15.4795 C   0  0  0  0  0  0  0  0  0  0  0  0
  -22.1518    8.8100  -12.0965 O   0  0  0  0  0  0  0  0  0  0  0  0
  -21.7276    9.6087  -11.0319 C   0  0  0  0  0  0  0  0  0  0  0  0
  -21.8830   10.9781  -11.0548 C   0  0  0  0  0  0  0  0  0  0  0  0
  -21.4415   11.7291   -9.9645 C   0  0  0  0  0  0  0  0  0  0  0  0
  -20.8833   11.0681   -8.9417 N   0  0  0  0  0  0  0  0  0  0  0  0
  -20.7280    9.7350   -8.9110 C   0  0  0  0  0  0  0  0  0  0  0  0
  -21.1564    9.0244   -9.9650 N   0  0  0  0  0  0  0  0  0  0  0  0
  -21.5775   13.1363   -9.9382 N   0  0  0  0  0  0  0  0  0  0  0  0
  -21.1924   13.8560   -8.7493 C   0  0  0  0  0  0  0  0  0  0  0  0
  -21.9495   13.6515  -10.7618 H   0  0  0  0  0  0  0  0  0  0  0  0
 24 25  1  0  0  0
 25 18  1  0  0  0
 18 19  1  0  0  0
 19 20  1  0  0  0
 20 21  1  0  0  0
 21 17  1  0  0  0
 17  7  1  0  0  0
  7  8  2  0  0  0
  8  9  1  0  0  0
  9 10  2  0  0  0
 10  1  1  0  0  0
  1  2  1  0  0  0
  2  3  2  0  0  0
  2  4  1  0  0  0
  4 26  1  0  0  0
 26 27  2  0  0  0
 27 28  1  0  0  0
 28 29  2  0  0  0
 29 32  1  0  0  0
 32 33  1  0  0  0
 33 34  2  0  0  0
 34 35  1  0  0  0
 35 39  1  0  0  0
 39 40  1  0  0  0
 35 36  2  0  0  0
 36 37  1  0  0  0
 37 38  2  0  0  0
 29 30  1  0  0  0
 30 31  2  0  0  0
 10 11  1  0  0  0
 11 12  2  0  0  0
 12 13  1  0  0  0
 13 14  1  0  0  0
 13 15  1  0  0  0
 13 16  1  0  0  0
 21 22  1  0  0  0
 22 23  1  0  0  0
 23 18  1  0  0  0
 12  7  1  0  0  0
 31 26  1  0  0  0
 38 33  1  0  0  0
  1  5  1  0  0  0
  4  6  1  0  0  0
 39 41  1  0  0  0
M  END
> <minimizedAffinity>
-8.89007

> <CNNscore>
0.2405816168

> <CNNaffinity>
6.3725347519

> <CNN_VS>
1.5331146717

> <CNNaffinity_variance>
0.0834050030

$$$$
[H]c1nc(Oc2c([H])c([H])c(N([H])C(=O)N([H])c3c([H])c([H])c(C([H])([H])N4C([H])([H])C([H])([H])N(C([H])([H])C([H])([H])[H])C([H])([H])C4([H])[H])c(C(F)(F)F)c3[H])c([H])c2[H])c([H])c(N([H])C([H])([H])[H])n1


 41 44  0  0  0  0  0  0  0  0999 V2000
  -18.2092    8.6747  -16.5731 N   0  0  0  0  0  0  0  0  0  0  0  0
  -18.4266    9.7274  -17.4989 C   0  0  0  0  0  0  0  0  0  0  0  0
  -19.4345   10.4616  -17.4717 O   0  0  0  0  0  0  0  0  0  0  0  0
  -17.4515    9.9542  -18.5019 N   0  0  0  0  0  0  0  0  0  0  0  0
  -17.3254    8.1063  -16.6786 H   0  0  0  0  0  0  0  0  0  0  0  0
  -16.5984    9.3237  -18.5038 H   0  0  0  0  0  0  0  0  0  0  0  0
  -20.7447    7.9856  -13.2827 C   0  0  0  0  0  0  0  0  0  0  0  0
  -20.7864    7.1134  -14.3275 C   0  0  0  0  0  0  0  0  0  0  0  0
  -19.9595    7.3211  -15.4445 C   0  0  0  0  0  0  0  0  0  0  0  0
  -19.0979    8.3687  -15.5430 C   0  0  0  0  0  0  0  0  0  0  0  0
  -19.0895    9.2386  -14.4452 C   0  0  0  0  0  0  0  0  0  0  0  0
  -19.8743    9.0828  -13.3339 C   0  0  0  0  0  0  0  0  0  0  0  0
  -19.8004   10.0542  -12.2231 C   0  0  0  0  0  0  0  0  0  0  0  0
  -19.1196   11.1911  -12.6884 F   0  0  0  0  0  0  0  0  0  0  0  0
  -19.0816    9.6322  -11.1416 F   0  0  0  0  0  0  0  0  0  0  0  0
  -21.0563   10.5714  -11.8769 F   0  0  0  0  0  0  0  0  0  0  0  0
  -21.5767    7.7673  -12.1059 C   0  0  0  0  0  0  0  0  0  0  0  0
  -20.1747    6.3985   -8.7098 N   0  0  0  0  0  0  0  0  0  0  0  0
  -21.5463    6.7688   -8.8492 C   0  0  0  0  0  0  0  0  0  0  0  0
  -22.1651    6.4131  -10.1790 C   0  0  0  0  0  0  0  0  0  0  0  0
  -21.3250    6.6313  -11.3032 N   0  0  0  0  0  0  0  0  0  0  0  0
  -19.9165    6.4853  -11.0757 C   0  0  0  0  0  0  0  0  0  0  0  0
  -19.6717    5.6561   -9.8339 C   0  0  0  0  0  0  0  0  0  0  0  0
  -20.2779    8.7756   -8.0903 C   0  0  0  0  0  0  0  0  0  0  0  0
  -19.4065    7.6008   -8.4513 C   0  0  0  0  0  0  0  0  0  0  0  0
  -17.5626   10.9545  -19.4774 C   0  0  0  0  0  0  0  0  0  0  0  0
  -17.7672   12.2548  -19.0025 C   0  0  0  0  0  0  0  0  0  0  0  0
  -17.8568   13.2872  -19.8947 C   0  0  0  0  0  0  0  0  0  0  0  0
  -17.7572   13.1326  -21.2629 C   0  0  0  0  0  0  0  0  0  0  0  0
  -17.5566   11.8566  -21.7179 C   0  0  0  0  0  0  0  0  0  0  0  0
  -17.4613   10.7853  -20.8241 C   0  0  0  0  0  0  0  0  0  0  0  0
  -17.8555   14.2231  -22.1474 O   0  0  0  0  0  0  0  0  0  0  0  0
  -16.9185   14.2588  -23.1828 C   0  0  0  0  0  0  0  0  0  0  0  0
  -17.3093   14.3018  -24.5039 C   0  0  0  0  0  0  0  0  0  0  0  0
  -16.3318   14.3363  -25.4995 C   0  0  0  0  0  0  0  0  0  0  0  0
  -15.0500   14.3257  -25.1104 N   0  0  0  0  0  0  0  0  0  0  0  0
  -14.6605   14.2839  -23.8263 C   0  0  0  0  0  0  0  0  0  0  0  0
  -15.6096   14.2510  -22.8789 N   0  0  0  0  0  0  0  0  0  0  0  0
  -16.6795   14.3810  -26.8693 N   0  0  0  0  0  0  0  0  0  0  0  0
  -16.0058   15.3185  -27.7337 C   0  0  0  0  0  0  0  0  0  0  0  0
  -17.4103   13.7491  -27.2548 H   0  0  0  0  0  0  0  0  0  0  0  0
 24 25  1  0  0  0
 25 18  1  0  0  0
 18 19  1  0  0  0
 19 20  1  0  0  0
 20 21  1  0  0  0
 21 17  1  0  0  0
 17  7  1  0  0  0
  7  8  2  0  0  0
  8  9  1  0  0  0
  9 10  2  0  0  0
 10  1  1  0  0  0
  1  2  1  0  0  0
  2  3  2  0  0  0
  2  4  1  0  0  0
  4 26  1  0  0  0
 26 27  2  0  0  0
 27 28  1  0  0  0
 28 29  2  0  0  0
 29 32  1  0  0  0
 32 33  1  0  0  0
 33 34  2  0  0  0
 34 35  1  0  0  0
 35 39  1  0  0  0
 39 40  1  0  0  0
 35 36  2  0  0  0
 36 37  1  0  0  0
 37 38  2  0  0  0
 29 30  1  0  0  0
 30 31  2  0  0  0
 10 11  1  0  0  0
 11 12  2  0  0  0
 12 13  1  0  0  0
 13 14  1  0  0  0
 13 15  1  0  0  0
 13 16  1  0  0  0
 21 22  1  0  0  0
 22 23  1  0  0  0
 23 18  1  0  0  0
 12  7  1  0  0  0
 31 26  1  0  0  0
 38 33  1  0  0  0
  1  5  1  0  0  0
  4  6  1  0  0  0
 39 41  1  0  0  0
M  END
> <minimizedAffinity>
-7.89725

> <CNNscore>
0.2300788760

> <CNNaffinity>
6.1085329056

> <CNN_VS>
1.4054443836

> <CNNaffinity_variance>
0.0767272562

$$$$
[H]c1nc(Oc2c([H])c([H])c(N([H])C(=O)N([H])c3c([H])c([H])c(C([H])([H])N4C([H])([H])C([H])([H])N(C([H])([H])C([H])([H])[H])C([H])([H])C4([H])[H])c(C(F)(F)F)c3[H])c([H])c2[H])c([H])c(N([H])C([H])([H])[H])n1


 41 44  0  0  0  0  0  0  0  0999 V2000
  -18.1448    8.5548  -16.5199 N   0  0  0  0  0  0  0  0  0  0  0  0
  -18.3096    9.5975  -17.4677 C   0  0  0  0  0  0  0  0  0  0  0  0
  -19.3274   10.3165  -17.5197 O   0  0  0  0  0  0  0  0  0  0  0  0
  -17.2676    9.8318  -18.3991 N   0  0  0  0  0  0  0  0  0  0  0  0
  -17.2474    7.9992  -16.5563 H   0  0  0  0  0  0  0  0  0  0  0  0
  -16.4075    9.2143  -18.3340 H   0  0  0  0  0  0  0  0  0  0  0  0
  -21.2227    7.4952  -13.8490 C   0  0  0  0  0  0  0  0  0  0  0  0
  -20.1853    8.2420  -13.3798 C   0  0  0  0  0  0  0  0  0  0  0  0
  -19.1379    8.6039  -14.2438 C   0  0  0  0  0  0  0  0  0  0  0  0
  -19.1014    8.2428  -15.5545 C   0  0  0  0  0  0  0  0  0  0  0  0
  -20.1889    7.4760  -15.9919 C   0  0  0  0  0  0  0  0  0  0  0  0
  -21.2336    7.0960  -15.1924 C   0  0  0  0  0  0  0  0  0  0  0  0
  -22.3386    6.2827  -15.7407 C   0  0  0  0  0  0  0  0  0  0  0  0
  -21.8696    5.6425  -16.8996 F   0  0  0  0  0  0  0  0  0  0  0  0
  -23.4265    6.9987  -16.1505 F   0  0  0  0  0  0  0  0  0  0  0  0
  -22.6747    5.2038  -14.9114 F   0  0  0  0  0  0  0  0  0  0  0  0
  -22.3293    7.1358  -12.9711 C   0  0  0  0  0  0  0  0  0  0  0  0
  -23.4779   10.8596  -13.4041 N   0  0  0  0  0  0  0  0  0  0  0  0
  -24.0399    9.8143  -14.1975 C   0  0  0  0  0  0  0  0  0  0  0  0
  -24.2655    8.5150  -13.4634 C   0  0  0  0  0  0  0  0  0  0  0  0
  -23.2263    8.1507  -12.5664 N   0  0  0  0  0  0  0  0  0  0  0  0
  -22.5099    9.2338  -11.9578 C   0  0  0  0  0  0  0  0  0  0  0  0
  -23.3319   10.5028  -12.0188 C   0  0  0  0  0  0  0  0  0  0  0  0
  -22.0891   10.7832  -15.4315 C   0  0  0  0  0  0  0  0  0  0  0  0
  -22.2220   11.2597  -14.0084 C   0  0  0  0  0  0  0  0  0  0  0  0
  -17.3221   10.8234  -19.3883 C   0  0  0  0  0  0  0  0  0  0  0  0
  -17.7356   12.0912  -18.9643 C   0  0  0  0  0  0  0  0  0  0  0  0
  -17.7859   13.1161  -19.8681 C   0  0  0  0  0  0  0  0  0  0  0  0
  -17.4494   12.9843  -21.2004 C   0  0  0  0  0  0  0  0  0  0  0  0
  -17.0456   11.7401  -21.6057 C   0  0  0  0  0  0  0  0  0  0  0  0
  -16.9860   10.6770  -20.6990 C   0  0  0  0  0  0  0  0  0  0  0  0
  -17.5156   14.0661  -22.0985 O   0  0  0  0  0  0  0  0  0  0  0  0
  -17.5362   15.3393  -21.5240 C   0  0  0  0  0  0  0  0  0  0  0  0
  -18.7135   16.0399  -21.3724 C   0  0  0  0  0  0  0  0  0  0  0  0
  -18.6778   17.3085  -20.7919 C   0  0  0  0  0  0  0  0  0  0  0  0
  -17.4845   17.7816  -20.4089 N   0  0  0  0  0  0  0  0  0  0  0  0
  -16.3331   17.1064  -20.5528 C   0  0  0  0  0  0  0  0  0  0  0  0
  -16.3808   15.8880  -21.1121 N   0  0  0  0  0  0  0  0  0  0  0  0
  -19.8568   18.0684  -20.6135 N   0  0  0  0  0  0  0  0  0  0  0  0
  -20.1671   18.5845  -19.3031 C   0  0  0  0  0  0  0  0  0  0  0  0
  -20.4960   18.2563  -21.4123 H   0  0  0  0  0  0  0  0  0  0  0  0
 24 25  1  0  0  0
 25 18  1  0  0  0
 18 19  1  0  0  0
 19 20  1  0  0  0
 20 21  1  0  0  0
 21 17  1  0  0  0
 17  7  1  0  0  0
  7  8  2  0  0  0
  8  9  1  0  0  0
  9 10  2  0  0  0
 10  1  1  0  0  0
  1  2  1  0  0  0
  2  3  2  0  0  0
  2  4  1  0  0  0
  4 26  1  0  0  0
 26 27  2  0  0  0
 27 28  1  0  0  0
 28 29  2  0  0  0
 29 32  1  0  0  0
 32 33  1  0  0  0
 33 34  2  0  0  0
 34 35  1  0  0  0
 35 39  1  0  0  0
 39 40  1  0  0  0
 35 36  2  0  0  0
 36 37  1  0  0  0
 37 38  2  0  0  0
 29 30  1  0  0  0
 30 31  2  0  0  0
 10 11  1  0  0  0
 11 12  2  0  0  0
 12 13  1  0  0  0
 13 14  1  0  0  0
 13 15  1  0  0  0
 13 16  1  0  0  0
 21 22  1  0  0  0
 22 23  1  0  0  0
 23 18  1  0  0  0
 12  7  1  0  0  0
 31 26  1  0  0  0
 38 33  1  0  0  0
  1  5  1  0  0  0
  4  6  1  0  0  0
 39 41  1  0  0  0
M  END
> <minimizedAffinity>
-7.67605

> <CNNscore>
0.2252838314

> <CNNaffinity>
6.3603372574

> <CNN_VS>
1.4328811169

> <CNNaffinity_variance>
0.0784497634

$$$$
[H]c1nc(Oc2c([H])c([H])c(N([H])C(=O)N([H])c3c([H])c([H])c(C([H])([H])N4C([H])([H])C([H])([H])N(C([H])([H])C([H])([H])[H])C([H])([H])C4([H])[H])c(C(F)(F)F)c3[H])c([H])c2[H])c([H])c(N([H])C([H])([H])[H])n1


 41 44  0  0  0  0  0  0  0  0999 V2000
  -18.5000    8.3275  -16.2012 N   0  0  0  0  0  0  0  0  0  0  0  0
  -18.5518    9.4056  -17.1218 C   0  0  0  0  0  0  0  0  0  0  0  0
  -19.4373   10.2836  -17.0939 O   0  0  0  0  0  0  0  0  0  0  0  0
  -17.5495    9.4874  -18.1202 N   0  0  0  0  0  0  0  0  0  0  0  0
  -17.7118    7.6325  -16.3069 H   0  0  0  0  0  0  0  0  0  0  0  0
  -16.8015    8.7352  -18.1228 H   0  0  0  0  0  0  0  0  0  0  0  0
  -21.0672    7.8910  -12.8923 C   0  0  0  0  0  0  0  0  0  0  0  0
  -21.4980    7.4574  -14.1091 C   0  0  0  0  0  0  0  0  0  0  0  0
  -20.6685    7.5976  -15.2346 C   0  0  0  0  0  0  0  0  0  0  0  0
  -19.4290    8.1542  -15.1758 C   0  0  0  0  0  0  0  0  0  0  0  0
  -19.0289    8.5851  -13.9045 C   0  0  0  0  0  0  0  0  0  0  0  0
  -19.7976    8.4729  -12.7768 C   0  0  0  0  0  0  0  0  0  0  0  0
  -19.2933    8.9590  -11.4758 C   0  0  0  0  0  0  0  0  0  0  0  0
  -17.9416    8.5919  -11.3722 F   0  0  0  0  0  0  0  0  0  0  0  0
  -19.8942    8.3996  -10.3848 F   0  0  0  0  0  0  0  0  0  0  0  0
  -19.2350   10.3579  -11.4108 F   0  0  0  0  0  0  0  0  0  0  0  0
  -21.9059    7.7270  -11.7115 C   0  0  0  0  0  0  0  0  0  0  0  0
  -22.9138   11.1416  -10.0692 N   0  0  0  0  0  0  0  0  0  0  0  0
  -22.4190   11.0808  -11.4068 C   0  0  0  0  0  0  0  0  0  0  0  0
  -22.8934    9.8895  -12.2028 C   0  0  0  0  0  0  0  0  0  0  0  0
  -22.9342    8.6684  -11.4785 N   0  0  0  0  0  0  0  0  0  0  0  0
  -23.1998    8.7773  -10.0733 C   0  0  0  0  0  0  0  0  0  0  0  0
  -23.8621   10.1032   -9.7685 C   0  0  0  0  0  0  0  0  0  0  0  0
  -20.9228   12.3655   -9.3057 C   0  0  0  0  0  0  0  0  0  0  0  0
  -21.7787   11.1334   -9.1670 C   0  0  0  0  0  0  0  0  0  0  0  0
  -17.5040   10.4980  -19.0904 C   0  0  0  0  0  0  0  0  0  0  0  0
  -16.7159   10.2331  -20.2159 C   0  0  0  0  0  0  0  0  0  0  0  0
  -16.6460   11.1612  -21.2179 C   0  0  0  0  0  0  0  0  0  0  0  0
  -17.3142   12.3690  -21.1959 C   0  0  0  0  0  0  0  0  0  0  0  0
  -18.0832   12.6187  -20.0906 C   0  0  0  0  0  0  0  0  0  0  0  0
  -18.1701   11.6844  -19.0538 C   0  0  0  0  0  0  0  0  0  0  0  0
  -17.2147   13.2973  -22.2492 O   0  0  0  0  0  0  0  0  0  0  0  0
  -17.4225   14.6359  -21.9081 C   0  0  0  0  0  0  0  0  0  0  0  0
  -18.6139   15.2712  -22.1854 C   0  0  0  0  0  0  0  0  0  0  0  0
  -18.7690   16.6099  -21.8229 C   0  0  0  0  0  0  0  0  0  0  0  0
  -17.7369   17.2118  -21.2170 N   0  0  0  0  0  0  0  0  0  0  0  0
  -16.5732   16.6009  -20.9433 C   0  0  0  0  0  0  0  0  0  0  0  0
  -16.4366   15.3140  -21.2967 N   0  0  0  0  0  0  0  0  0  0  0  0
  -19.9708   17.3075  -22.0845 N   0  0  0  0  0  0  0  0  0  0  0  0
  -19.9067   18.6976  -22.4632 C   0  0  0  0  0  0  0  0  0  0  0  0
  -20.8920   16.8305  -22.0067 H   0  0  0  0  0  0  0  0  0  0  0  0
 24 25  1  0  0  0
 25 18  1  0  0  0
 18 19  1  0  0  0
 19 20  1  0  0  0
 20 21  1  0  0  0
 21 17  1  0  0  0
 17  7  1  0  0  0
  7  8  2  0  0  0
  8  9  1  0  0  0
  9 10  2  0  0  0
 10  1  1  0  0  0
  1  2  1  0  0  0
  2  3  2  0  0  0
  2  4  1  0  0  0
  4 26  1  0  0  0
 26 27  2  0  0  0
 27 28  1  0  0  0
 28 29  2  0  0  0
 29 32  1  0  0  0
 32 33  1  0  0  0
 33 34  2  0  0  0
 34 35  1  0  0  0
 35 39  1  0  0  0
 39 40  1  0  0  0
 35 36  2  0  0  0
 36 37  1  0  0  0
 37 38  2  0  0  0
 29 30  1  0  0  0
 30 31  2  0  0  0
 10 11  1  0  0  0
 11 12  2  0  0  0
 12 13  1  0  0  0
 13 14  1  0  0  0
 13 15  1  0  0  0
 13 16  1  0  0  0
 21 22  1  0  0  0
 22 23  1  0  0  0
 23 18  1  0  0  0
 12  7  1  0  0  0
 31 26  1  0  0  0
 38 33  1  0  0  0
  1  5  1  0  0  0
  4  6  1  0  0  0
 39 41  1  0  0  0
M  END
> <minimizedAffinity>
-7.51346

> <CNNscore>
0.2132650167

> <CNNaffinity>
6.0756330490

> <CNN_VS>
1.2957199812

> <CNNaffinity_variance>
0.0774522722

$$$$
[H]c1nc(Oc2c([H])c([H])c(N([H])C(=O)N([H])c3c([H])c([H])c(C([H])([H])N4C([H])([H])C([H])([H])N(C([H])([H])C([H])([H])[H])C([H])([H])C4([H])[H])c(C(F)(F)F)c3[H])c([H])c2[H])c([H])c(N([H])C([H])([H])[H])n1


 41 44  0  0  0  0  0  0  0  0999 V2000
  -17.5093    9.3888  -18.4629 N   0  0  0  0  0  0  0  0  0  0  0  0
  -18.4353    9.5655  -17.4027 C   0  0  0  0  0  0  0  0  0  0  0  0
  -19.1538   10.5785  -17.2872 O   0  0  0  0  0  0  0  0  0  0  0  0
  -18.5479    8.5419  -16.4292 N   0  0  0  0  0  0  0  0  0  0  0  0
  -16.9439    8.4968  -18.4739 H   0  0  0  0  0  0  0  0  0  0  0  0
  -17.9333    7.6855  -16.5491 H   0  0  0  0  0  0  0  0  0  0  0  0
  -17.1811   12.4046  -21.3831 C   0  0  0  0  0  0  0  0  0  0  0  0
  -16.5212   11.2308  -21.5858 C   0  0  0  0  0  0  0  0  0  0  0  0
  -16.6031   10.2083  -20.6254 C   0  0  0  0  0  0  0  0  0  0  0  0
  -17.3227   10.3270  -19.4775 C   0  0  0  0  0  0  0  0  0  0  0  0
  -17.9840   11.5507  -19.3125 C   0  0  0  0  0  0  0  0  0  0  0  0
  -17.9369   12.5788  -20.2159 C   0  0  0  0  0  0  0  0  0  0  0  0
  -18.6655   13.8376  -19.9560 C   0  0  0  0  0  0  0  0  0  0  0  0
  -19.2495   13.7433  -18.6822 F   0  0  0  0  0  0  0  0  0  0  0  0
  -19.7080   14.0801  -20.8036 F   0  0  0  0  0  0  0  0  0  0  0  0
  -17.8068   14.9367  -19.8169 F   0  0  0  0  0  0  0  0  0  0  0  0
  -17.1274   13.4633  -22.3835 C   0  0  0  0  0  0  0  0  0  0  0  0
  -15.7687   14.9002  -25.7691 N   0  0  0  0  0  0  0  0  0  0  0  0
  -14.9179   14.7541  -24.6322 C   0  0  0  0  0  0  0  0  0  0  0  0
  -15.1657   13.5111  -23.8127 C   0  0  0  0  0  0  0  0  0  0  0  0
  -16.5352   13.1791  -23.6352 N   0  0  0  0  0  0  0  0  0  0  0  0
  -17.4186   13.5558  -24.7003 C   0  0  0  0  0  0  0  0  0  0  0  0
  -16.6351   13.7714  -25.9767 C   0  0  0  0  0  0  0  0  0  0  0  0
  -16.0411   16.9531  -24.4438 C   0  0  0  0  0  0  0  0  0  0  0  0
  -16.5023   16.1429  -25.6274 C   0  0  0  0  0  0  0  0  0  0  0  0
  -19.4171    8.6096  -15.3317 C   0  0  0  0  0  0  0  0  0  0  0  0
  -20.3312    7.5575  -15.2070 C   0  0  0  0  0  0  0  0  0  0  0  0
  -21.1921    7.5410  -14.1447 C   0  0  0  0  0  0  0  0  0  0  0  0
  -21.2232    8.5122  -13.1642 C   0  0  0  0  0  0  0  0  0  0  0  0
  -20.3246    9.5374  -13.2948 C   0  0  0  0  0  0  0  0  0  0  0  0
  -19.4343    9.5751  -14.3725 C   0  0  0  0  0  0  0  0  0  0  0  0
  -22.1267    8.4574  -12.0863 O   0  0  0  0  0  0  0  0  0  0  0  0
  -23.4826    8.4732  -12.4217 C   0  0  0  0  0  0  0  0  0  0  0  0
  -24.3818    7.6206  -11.8179 C   0  0  0  0  0  0  0  0  0  0  0  0
  -25.7256    7.6780  -12.1902 C   0  0  0  0  0  0  0  0  0  0  0  0
  -26.0720    8.5710  -13.1268 N   0  0  0  0  0  0  0  0  0  0  0  0
  -25.2030    9.4049  -13.7199 C   0  0  0  0  0  0  0  0  0  0  0  0
  -23.9143    9.3400  -13.3534 N   0  0  0  0  0  0  0  0  0  0  0  0
  -26.6881    6.8257  -11.6015 N   0  0  0  0  0  0  0  0  0  0  0  0
  -28.0364    6.8312  -12.1134 C   0  0  0  0  0  0  0  0  0  0  0  0
  -26.4339    6.2007  -10.8098 H   0  0  0  0  0  0  0  0  0  0  0  0
 24 25  1  0  0  0
 25 18  1  0  0  0
 18 19  1  0  0  0
 19 20  1  0  0  0
 20 21  1  0  0  0
 21 17  1  0  0  0
 17  7  1  0  0  0
  7  8  2  0  0  0
  8  9  1  0  0  0
  9 10  2  0  0  0
 10  1  1  0  0  0
  1  2  1  0  0  0
  2  3  2  0  0  0
  2  4  1  0  0  0
  4 26  1  0  0  0
 26 27  2  0  0  0
 27 28  1  0  0  0
 28 29  2  0  0  0
 29 32  1  0  0  0
 32 33  1  0  0  0
 33 34  2  0  0  0
 34 35  1  0  0  0
 35 39  1  0  0  0
 39 40  1  0  0  0
 35 36  2  0  0  0
 36 37  1  0  0  0
 37 38  2  0  0  0
 29 30  1  0  0  0
 30 31  2  0  0  0
 10 11  1  0  0  0
 11 12  2  0  0  0
 12 13  1  0  0  0
 13 14  1  0  0  0
 13 15  1  0  0  0
 13 16  1  0  0  0
 21 22  1  0  0  0
 22 23  1  0  0  0
 23 18  1  0  0  0
 12  7  1  0  0  0
 31 26  1  0  0  0
 38 33  1  0  0  0
  1  5  1  0  0  0
  4  6  1  0  0  0
 39 41  1  0  0  0
M  END
> <minimizedAffinity>
-8.14294

> <CNNscore>
0.2067312449

> <CNNaffinity>
6.3590731621

> <CNN_VS>
1.3146190643

> <CNNaffinity_variance>
0.0466904789

$$$$
[H]c1nc(N([H])C(=O)c2c([H])c([H])c(-c3nc([C@@]4([H])C([H])([H])N(C(=O)C([H])([H])OC([H])([H])[H])C([H])([H])C([H])([H])C4([H])[H])n4c([H])c([H])nc(N([H])[H])c34)c(F)c2[H])c([H])c(C(F)(F)F)c1[H]


 44 48  0  0  0  0  0  0  0  0999 V2000
  -21.1524   11.4332  -15.9999 C   0  0  0  0  0  0  0  0  0  0  0  0
  -20.7344   12.2761  -16.9592 N   0  0  0  0  0  0  0  0  0  0  0  0
  -19.6999   11.7862  -17.6580 C   0  0  0  0  0  0  0  0  0  0  0  0
  -19.4304   10.5534  -17.1211 C   0  0  0  0  0  0  0  0  0  0  0  0
  -18.4929    9.5692  -17.3796 C   0  0  0  0  0  0  0  0  0  0  0  0
  -17.5437    9.7734  -18.4068 N   0  0  0  0  0  0  0  0  0  0  0  0
  -18.4695    8.4237  -16.6393 N   0  0  0  0  0  0  0  0  0  0  0  0
  -19.3600    8.2571  -15.6595 C   0  0  0  0  0  0  0  0  0  0  0  0
  -20.2851    9.2506  -15.4172 C   0  0  0  0  0  0  0  0  0  0  0  0
  -20.3426   10.3807  -16.1134 N   0  0  0  0  0  0  0  0  0  0  0  0
  -17.5952    9.2258  -19.2813 H   0  0  0  0  0  0  0  0  0  0  0  0
  -16.7996   10.4994  -18.2400 H   0  0  0  0  0  0  0  0  0  0  0  0
  -24.9845    9.8760  -13.2834 C   0  0  0  0  0  0  0  0  0  0  0  0
  -25.6629    9.6284  -14.3491 O   0  0  0  0  0  0  0  0  0  0  0  0
  -23.7107   10.4542  -13.4690 N   0  0  0  0  0  0  0  0  0  0  0  0
  -22.9191   10.7989  -12.3461 C   0  0  0  0  0  0  0  0  0  0  0  0
  -21.6252   11.5233  -12.6455 C   0  0  0  0  0  0  0  0  0  0  0  0
  -21.7961   12.4088  -13.8117 C   0  0  0  0  0  0  0  0  0  0  0  0
  -22.2804   11.7192  -15.0670 C   0  0  0  0  0  0  0  0  0  0  0  0
  -23.2760   10.6597  -14.8650 C   0  0  0  0  0  0  0  0  0  0  0  0
  -25.5712    9.5451  -11.9778 C   0  0  0  0  0  0  0  0  0  0  0  0
  -26.3671   10.3590   -9.9974 C   0  0  0  0  0  0  0  0  0  0  0  0
  -26.3517   10.4974  -11.3772 O   0  0  0  0  0  0  0  0  0  0  0  0
  -18.9760   12.4427  -18.7439 C   0  0  0  0  0  0  0  0  0  0  0  0
  -19.0466   11.9623  -20.0266 C   0  0  0  0  0  0  0  0  0  0  0  0
  -18.3843   12.6138  -21.0676 C   0  0  0  0  0  0  0  0  0  0  0  0
  -17.6396   13.7510  -20.8627 C   0  0  0  0  0  0  0  0  0  0  0  0
  -17.5700   14.2385  -19.5614 C   0  0  0  0  0  0  0  0  0  0  0  0
  -18.2289   13.5886  -18.5334 C   0  0  0  0  0  0  0  0  0  0  0  0
  -18.1675   14.0525  -17.2566 F   0  0  0  0  0  0  0  0  0  0  0  0
  -16.9362   14.4363  -21.9542 C   0  0  0  0  0  0  0  0  0  0  0  0
  -16.9365   15.6738  -22.0164 O   0  0  0  0  0  0  0  0  0  0  0  0
  -16.2597   13.6746  -22.9351 N   0  0  0  0  0  0  0  0  0  0  0  0
  -16.2654   12.6044  -22.8716 H   0  0  0  0  0  0  0  0  0  0  0  0
  -15.5486   14.2195  -24.0360 C   0  0  0  0  0  0  0  0  0  0  0  0
  -16.1819   14.3732  -25.2496 C   0  0  0  0  0  0  0  0  0  0  0  0
  -15.5063   14.8955  -26.3285 C   0  0  0  0  0  0  0  0  0  0  0  0
  -14.1882   15.2481  -26.1332 C   0  0  0  0  0  0  0  0  0  0  0  0
  -13.5956   15.0761  -24.9013 C   0  0  0  0  0  0  0  0  0  0  0  0
  -14.2755   14.5683  -23.8744 N   0  0  0  0  0  0  0  0  0  0  0  0
  -16.1470   15.0829  -27.6393 C   0  0  0  0  0  0  0  0  0  0  0  0
  -16.9488   13.9870  -27.9761 F   0  0  0  0  0  0  0  0  0  0  0  0
  -15.1217   15.2018  -28.5922 F   0  0  0  0  0  0  0  0  0  0  0  0
  -16.9585   16.1930  -27.7006 F   0  0  0  0  0  0  0  0  0  0  0  0
 22 23  1  0  0  0
 23 21  1  0  0  0
 21 13  1  0  0  0
 13 14  2  0  0  0
 13 15  1  0  0  0
 15 16  1  0  0  0
 16 17  1  0  0  0
 17 18  1  0  0  0
 18 19  1  0  0  0
 19 20  1  0  0  0
 19  1  1  0  0  0
  1  2  2  0  0  0
  2  3  1  0  0  0
  3 24  1  0  0  0
 24 25  2  0  0  0
 25 26  1  0  0  0
 26 27  2  0  0  0
 27 28  1  0  0  0
 28 29  2  0  0  0
 29 30  1  0  0  0
 27 31  1  0  0  0
 31 32  2  0  0  0
 31 33  1  0  0  0
 33 35  1  0  0  0
 35 36  2  0  0  0
 36 37  1  0  0  0
 37 38  2  0  0  0
 38 39  1  0  0  0
 39 40  2  0  0  0
 37 41  1  0  0  0
 41 42  1  0  0  0
 41 43  1  0  0  0
 41 44  1  0  0  0
  3  4  2  0  0  0
  4  5  1  0  0  0
  5  6  1  0  0  0
  5  7  2  0  0  0
  7  8  1  0  0  0
  8  9  2  0  0  0
  9 10  1  0  0  0
 20 15  1  0  0  0
 10  1  1  0  0  0
 29 24  1  0  0  0
 40 35  1  0  0  0
 10  4  1  0  0  0
 33 34  1  0  0  0
  6 11  1  0  0  0
  6 12  1  0  0  0
M  END
> <minimizedAffinity>
-9.18735

> <CNNscore>
0.2481345981

> <CNNaffinity>
7.0876593590

> <CNN_VS>
1.7586934566

> <CNNaffinity_variance>
0.1601493806

$$$$
[H]c1nc(N([H])C(=O)c2c([H])c([H])c(-c3nc([C@@]4([H])C([H])([H])N(C(=O)C([H])([H])OC([H])([H])[H])C([H])([H])C([H])([H])C4([H])[H])n4c([H])c([H])nc(N([H])[H])c34)c(F)c2[H])c([H])c(C(F)(F)F)c1[H]


 44 48  0  0  0  0  0  0  0  0999 V2000
  -17.8372   13.5601  -21.4931 C   0  0  0  0  0  0  0  0  0  0  0  0
  -18.3930   14.5669  -20.7982 N   0  0  0  0  0  0  0  0  0  0  0  0
  -18.6480   14.2323  -19.5247 C   0  0  0  0  0  0  0  0  0  0  0  0
  -18.2337   12.9325  -19.3847 C   0  0  0  0  0  0  0  0  0  0  0  0
  -18.2365   12.0229  -18.3421 C   0  0  0  0  0  0  0  0  0  0  0  0
  -18.7659   12.4102  -17.0902 N   0  0  0  0  0  0  0  0  0  0  0  0
  -17.7540   10.7599  -18.5239 N   0  0  0  0  0  0  0  0  0  0  0  0
  -17.2774   10.4051  -19.7188 C   0  0  0  0  0  0  0  0  0  0  0  0
  -17.2848   11.3262  -20.7450 C   0  0  0  0  0  0  0  0  0  0  0  0
  -17.7454   12.5651  -20.6111 N   0  0  0  0  0  0  0  0  0  0  0  0
  -18.1406   12.5493  -16.2797 H   0  0  0  0  0  0  0  0  0  0  0  0
  -19.8076   12.5503  -17.0283 H   0  0  0  0  0  0  0  0  0  0  0  0
  -15.8820   16.0807  -25.2764 C   0  0  0  0  0  0  0  0  0  0  0  0
  -16.8904   16.8809  -25.2883 O   0  0  0  0  0  0  0  0  0  0  0  0
  -15.9341   15.0172  -24.3504 N   0  0  0  0  0  0  0  0  0  0  0  0
  -14.8853   14.0663  -24.3046 C   0  0  0  0  0  0  0  0  0  0  0  0
  -15.0912   12.8983  -23.3654 C   0  0  0  0  0  0  0  0  0  0  0  0
  -16.5169   12.5262  -23.3214 C   0  0  0  0  0  0  0  0  0  0  0  0
  -17.4539   13.6470  -22.9319 C   0  0  0  0  0  0  0  0  0  0  0  0
  -17.1123   14.9725  -23.4619 C   0  0  0  0  0  0  0  0  0  0  0  0
  -14.7718   16.3268  -26.2066 C   0  0  0  0  0  0  0  0  0  0  0  0
  -15.8580   15.5408  -28.0559 C   0  0  0  0  0  0  0  0  0  0  0  0
  -14.6866   15.5244  -27.3137 O   0  0  0  0  0  0  0  0  0  0  0  0
  -19.2761   15.0635  -18.5008 C   0  0  0  0  0  0  0  0  0  0  0  0
  -18.5200   15.8716  -17.6905 C   0  0  0  0  0  0  0  0  0  0  0  0
  -19.1264   16.6923  -16.7390 C   0  0  0  0  0  0  0  0  0  0  0  0
  -20.4900   16.7308  -16.5685 C   0  0  0  0  0  0  0  0  0  0  0  0
  -21.2562   15.9119  -17.3920 C   0  0  0  0  0  0  0  0  0  0  0  0
  -20.6495   15.1006  -18.3338 C   0  0  0  0  0  0  0  0  0  0  0  0
  -21.3859   14.2936  -19.1435 F   0  0  0  0  0  0  0  0  0  0  0  0
  -21.1319   17.5884  -15.5644 C   0  0  0  0  0  0  0  0  0  0  0  0
  -22.3642   17.7160  -15.5491 O   0  0  0  0  0  0  0  0  0  0  0  0
  -20.3341   18.2695  -14.6158 N   0  0  0  0  0  0  0  0  0  0  0  0
  -19.2687   18.1517  -14.6376 H   0  0  0  0  0  0  0  0  0  0  0  0
  -20.8355   19.1259  -13.6010 C   0  0  0  0  0  0  0  0  0  0  0  0
  -20.7480   20.4919  -13.7553 C   0  0  0  0  0  0  0  0  0  0  0  0
  -21.2249   21.3367  -12.7795 C   0  0  0  0  0  0  0  0  0  0  0  0
  -21.7820   20.7538  -11.6617 C   0  0  0  0  0  0  0  0  0  0  0  0
  -21.8481   19.3820  -11.5502 C   0  0  0  0  0  0  0  0  0  0  0  0
  -21.3785   18.5891  -12.5121 N   0  0  0  0  0  0  0  0  0  0  0  0
  -21.1575   22.8006  -12.9079 C   0  0  0  0  0  0  0  0  0  0  0  0
  -20.1326   23.1894  -13.7772 F   0  0  0  0  0  0  0  0  0  0  0  0
  -20.8876   23.3199  -11.6309 F   0  0  0  0  0  0  0  0  0  0  0  0
  -22.3157   23.3633  -13.3946 F   0  0  0  0  0  0  0  0  0  0  0  0
 22 23  1  0  0  0
 23 21  1  0  0  0
 21 13  1  0  0  0
 13 14  2  0  0  0
 13 15  1  0  0  0
 15 16  1  0  0  0
 16 17  1  0  0  0
 17 18  1  0  0  0
 18 19  1  0  0  0
 19 20  1  0  0  0
 19  1  1  0  0  0
  1  2  2  0  0  0
  2  3  1  0  0  0
  3 24  1  0  0  0
 24 25  2  0  0  0
 25 26  1  0  0  0
 26 27  2  0  0  0
 27 28  1  0  0  0
 28 29  2  0  0  0
 29 30  1  0  0  0
 27 31  1  0  0  0
 31 32  2  0  0  0
 31 33  1  0  0  0
 33 35  1  0  0  0
 35 36  2  0  0  0
 36 37  1  0  0  0
 37 38  2  0  0  0
 38 39  1  0  0  0
 39 40  2  0  0  0
 37 41  1  0  0  0
 41 42  1  0  0  0
 41 43  1  0  0  0
 41 44  1  0  0  0
  3  4  2  0  0  0
  4  5  1  0  0  0
  5  6  1  0  0  0
  5  7  2  0  0  0
  7  8  1  0  0  0
  8  9  2  0  0  0
  9 10  1  0  0  0
 20 15  1  0  0  0
 10  1  1  0  0  0
 29 24  1  0  0  0
 40 35  1  0  0  0
 10  4  1  0  0  0
 33 34  1  0  0  0
  6 11  1  0  0  0
  6 12  1  0  0  0
M  END
> <minimizedAffinity>
-8.53375

> <CNNscore>
0.2342391461

> <CNNaffinity>
7.1596627235

> <CNN_VS>
1.6770732403

> <CNNaffinity_variance>
0.0068399333

$$$$
[H]c1nc(N([H])C(=O)c2c([H])c([H])c(-c3nc([C@@]4([H])C([H])([H])N(C(=O)C([H])([H])OC([H])([H])[H])C([H])([H])C([H])([H])C4([H])[H])n4c([H])c([H])nc(N([H])[H])c34)c(F)c2[H])c([H])c(C(F)(F)F)c1[H]


 44 48  0  0  0  0  0  0  0  0999 V2000
  -21.0207   11.4854  -15.4510 C   0  0  0  0  0  0  0  0  0  0  0  0
  -20.6437   12.3513  -16.4067 N   0  0  0  0  0  0  0  0  0  0  0  0
  -19.7688   11.8144  -17.2699 C   0  0  0  0  0  0  0  0  0  0  0  0
  -19.5659   10.5247  -16.8499 C   0  0  0  0  0  0  0  0  0  0  0  0
  -18.7822    9.4744  -17.2938 C   0  0  0  0  0  0  0  0  0  0  0  0
  -17.9597    9.6588  -18.4282 N   0  0  0  0  0  0  0  0  0  0  0  0
  -18.7857    8.2807  -16.6335 N   0  0  0  0  0  0  0  0  0  0  0  0
  -19.5526    8.1312  -15.5517 C   0  0  0  0  0  0  0  0  0  0  0  0
  -20.3252    9.1908  -15.1251 C   0  0  0  0  0  0  0  0  0  0  0  0
  -20.3512   10.3692  -15.7379 N   0  0  0  0  0  0  0  0  0  0  0  0
  -18.1843    9.1850  -19.3183 H   0  0  0  0  0  0  0  0  0  0  0  0
  -17.1261   10.2934  -18.3229 H   0  0  0  0  0  0  0  0  0  0  0  0
  -24.6295   14.3207  -13.5998 C   0  0  0  0  0  0  0  0  0  0  0  0
  -23.8069   15.2989  -13.4455 O   0  0  0  0  0  0  0  0  0  0  0  0
  -24.0851   13.1114  -14.0818 N   0  0  0  0  0  0  0  0  0  0  0  0
  -24.9145   11.9736  -14.2369 C   0  0  0  0  0  0  0  0  0  0  0  0
  -24.2152   10.6948  -14.6422 C   0  0  0  0  0  0  0  0  0  0  0  0
  -22.8727   10.6352  -14.0361 C   0  0  0  0  0  0  0  0  0  0  0  0
  -21.9789   11.8120  -14.3557 C   0  0  0  0  0  0  0  0  0  0  0  0
  -22.6451   13.1190  -14.4073 C   0  0  0  0  0  0  0  0  0  0  0  0
  -26.0463   14.5285  -13.2712 C   0  0  0  0  0  0  0  0  0  0  0  0
  -27.4830   14.8198  -15.0230 C   0  0  0  0  0  0  0  0  0  0  0  0
  -26.7424   15.4359  -14.0254 O   0  0  0  0  0  0  0  0  0  0  0  0
  -19.1272   12.4743  -18.4042 C   0  0  0  0  0  0  0  0  0  0  0  0
  -17.7817   12.3331  -18.6302 C   0  0  0  0  0  0  0  0  0  0  0  0
  -17.1792   12.9341  -19.7358 C   0  0  0  0  0  0  0  0  0  0  0  0
  -17.8924   13.6861  -20.6389 C   0  0  0  0  0  0  0  0  0  0  0  0
  -19.2575   13.8274  -20.4098 C   0  0  0  0  0  0  0  0  0  0  0  0
  -19.8494   13.2290  -19.3121 C   0  0  0  0  0  0  0  0  0  0  0  0
  -21.1819   13.3608  -19.0747 F   0  0  0  0  0  0  0  0  0  0  0  0
  -17.2613   14.3252  -21.8004 C   0  0  0  0  0  0  0  0  0  0  0  0
  -17.5429   15.4944  -22.0984 O   0  0  0  0  0  0  0  0  0  0  0  0
  -16.3311   13.5968  -22.5779 N   0  0  0  0  0  0  0  0  0  0  0  0
  -16.0943   12.5859  -22.3108 H   0  0  0  0  0  0  0  0  0  0  0  0
  -15.6590   14.1024  -23.7212 C   0  0  0  0  0  0  0  0  0  0  0  0
  -16.3290   14.1971  -24.9211 C   0  0  0  0  0  0  0  0  0  0  0  0
  -15.6915   14.6806  -26.0405 C   0  0  0  0  0  0  0  0  0  0  0  0
  -14.3728   15.0560  -25.8991 C   0  0  0  0  0  0  0  0  0  0  0  0
  -13.7427   14.9434  -24.6790 C   0  0  0  0  0  0  0  0  0  0  0  0
  -14.3862   14.4721  -23.6120 N   0  0  0  0  0  0  0  0  0  0  0  0
  -16.3721   14.8047  -27.3386 C   0  0  0  0  0  0  0  0  0  0  0  0
  -15.4532   14.8747  -28.3913 F   0  0  0  0  0  0  0  0  0  0  0  0
  -17.1154   15.9963  -27.3084 F   0  0  0  0  0  0  0  0  0  0  0  0
  -17.2104   13.7505  -27.6225 F   0  0  0  0  0  0  0  0  0  0  0  0
 22 23  1  0  0  0
 23 21  1  0  0  0
 21 13  1  0  0  0
 13 14  2  0  0  0
 13 15  1  0  0  0
 15 16  1  0  0  0
 16 17  1  0  0  0
 17 18  1  0  0  0
 18 19  1  0  0  0
 19 20  1  0  0  0
 19  1  1  0  0  0
  1  2  2  0  0  0
  2  3  1  0  0  0
  3 24  1  0  0  0
 24 25  2  0  0  0
 25 26  1  0  0  0
 26 27  2  0  0  0
 27 28  1  0  0  0
 28 29  2  0  0  0
 29 30  1  0  0  0
 27 31  1  0  0  0
 31 32  2  0  0  0
 31 33  1  0  0  0
 33 35  1  0  0  0
 35 36  2  0  0  0
 36 37  1  0  0  0
 37 38  2  0  0  0
 38 39  1  0  0  0
 39 40  2  0  0  0
 37 41  1  0  0  0
 41 42  1  0  0  0
 41 43  1  0  0  0
 41 44  1  0  0  0
  3  4  2  0  0  0
  4  5  1  0  0  0
  5  6  1  0  0  0
  5  7  2  0  0  0
  7  8  1  0  0  0
  8  9  2  0  0  0
  9 10  1  0  0  0
 20 15  1  0  0  0
 10  1  1  0  0  0
 29 24  1  0  0  0
 40 35  1  0  0  0
 10  4  1  0  0  0
 33 34  1  0  0  0
  6 11  1  0  0  0
  6 12  1  0  0  0
M  END
> <minimizedAffinity>
-8.72369

> <CNNscore>
0.1899319291

> <CNNaffinity>
7.1598272324

> <CNN_VS>
1.3598798513

> <CNNaffinity_variance>
0.1392127424

$$$$
[H]c1nc(N([H])C(=O)c2c([H])c([H])c(-c3nc([C@@]4([H])C([H])([H])N(C(=O)C([H])([H])OC([H])([H])[H])C([H])([H])C([H])([H])C4([H])[H])n4c([H])c([H])nc(N([H])[H])c34)c(F)c2[H])c([H])c(C(F)(F)F)c1[H]


 44 48  0  0  0  0  0  0  0  0999 V2000
  -20.0426   11.1761  -16.5947 C   0  0  0  0  0  0  0  0  0  0  0  0
  -20.4666   12.3770  -17.0231 N   0  0  0  0  0  0  0  0  0  0  0  0
  -19.8334   12.7783  -18.1352 C   0  0  0  0  0  0  0  0  0  0  0  0
  -18.9464   11.7798  -18.4469 C   0  0  0  0  0  0  0  0  0  0  0  0
  -18.0078   11.5965  -19.4468 C   0  0  0  0  0  0  0  0  0  0  0  0
  -17.8341   12.6038  -20.4229 N   0  0  0  0  0  0  0  0  0  0  0  0
  -17.2433   10.4672  -19.4801 N   0  0  0  0  0  0  0  0  0  0  0  0
  -17.4063    9.5362  -18.5381 C   0  0  0  0  0  0  0  0  0  0  0  0
  -18.3462    9.7388  -17.5496 C   0  0  0  0  0  0  0  0  0  0  0  0
  -19.1106   10.8231  -17.4799 N   0  0  0  0  0  0  0  0  0  0  0  0
  -18.1393   12.4448  -21.3970 H   0  0  0  0  0  0  0  0  0  0  0  0
  -17.3905   13.5067  -20.1121 H   0  0  0  0  0  0  0  0  0  0  0  0
  -22.2350   11.3543  -12.1618 C   0  0  0  0  0  0  0  0  0  0  0  0
  -21.1910   11.9044  -11.6472 O   0  0  0  0  0  0  0  0  0  0  0  0
  -22.1463   10.9859  -13.5211 N   0  0  0  0  0  0  0  0  0  0  0  0
  -23.2351   10.3345  -14.1507 C   0  0  0  0  0  0  0  0  0  0  0  0
  -22.9980    9.8716  -15.5713 C   0  0  0  0  0  0  0  0  0  0  0  0
  -21.5977    9.4427  -15.7395 C   0  0  0  0  0  0  0  0  0  0  0  0
  -20.5660   10.4877  -15.3796 C   0  0  0  0  0  0  0  0  0  0  0  0
  -20.8873   11.3219  -14.2154 C   0  0  0  0  0  0  0  0  0  0  0  0
  -23.4196   11.1544  -11.3161 C   0  0  0  0  0  0  0  0  0  0  0  0
  -24.5283   10.0798   -9.6328 C   0  0  0  0  0  0  0  0  0  0  0  0
  -23.3259   10.2332  -10.3066 O   0  0  0  0  0  0  0  0  0  0  0  0
  -20.0162   14.0384  -18.8512 C   0  0  0  0  0  0  0  0  0  0  0  0
  -21.0664   14.2087  -19.7168 C   0  0  0  0  0  0  0  0  0  0  0  0
  -21.2594   15.4263  -20.3702 C   0  0  0  0  0  0  0  0  0  0  0  0
  -20.4198   16.4985  -20.1823 C   0  0  0  0  0  0  0  0  0  0  0  0
  -19.3557   16.3253  -19.3027 C   0  0  0  0  0  0  0  0  0  0  0  0
  -19.1695   15.1160  -18.6576 C   0  0  0  0  0  0  0  0  0  0  0  0
  -18.1326   14.9320  -17.7973 F   0  0  0  0  0  0  0  0  0  0  0  0
  -20.6157   17.7797  -20.8723 C   0  0  0  0  0  0  0  0  0  0  0  0
  -21.1933   18.7144  -20.2999 O   0  0  0  0  0  0  0  0  0  0  0  0
  -20.1423   17.9391  -22.1955 N   0  0  0  0  0  0  0  0  0  0  0  0
  -19.6434   17.1239  -22.6813 H   0  0  0  0  0  0  0  0  0  0  0  0
  -20.2733   19.1242  -22.9656 C   0  0  0  0  0  0  0  0  0  0  0  0
  -21.3257   19.2545  -23.8448 C   0  0  0  0  0  0  0  0  0  0  0  0
  -21.4654   20.3945  -24.6025 C   0  0  0  0  0  0  0  0  0  0  0  0
  -20.5139   21.3781  -24.4382 C   0  0  0  0  0  0  0  0  0  0  0  0
  -19.4777   21.2041  -23.5468 C   0  0  0  0  0  0  0  0  0  0  0  0
  -19.3688   20.0890  -22.8260 N   0  0  0  0  0  0  0  0  0  0  0  0
  -22.5779   20.5769  -25.5474 C   0  0  0  0  0  0  0  0  0  0  0  0
  -23.6649   21.2131  -24.9383 F   0  0  0  0  0  0  0  0  0  0  0  0
  -22.9813   19.2991  -25.9693 F   0  0  0  0  0  0  0  0  0  0  0  0
  -22.2468   21.3373  -26.6459 F   0  0  0  0  0  0  0  0  0  0  0  0
 22 23  1  0  0  0
 23 21  1  0  0  0
 21 13  1  0  0  0
 13 14  2  0  0  0
 13 15  1  0  0  0
 15 16  1  0  0  0
 16 17  1  0  0  0
 17 18  1  0  0  0
 18 19  1  0  0  0
 19 20  1  0  0  0
 19  1  1  0  0  0
  1  2  2  0  0  0
  2  3  1  0  0  0
  3 24  1  0  0  0
 24 25  2  0  0  0
 25 26  1  0  0  0
 26 27  2  0  0  0
 27 28  1  0  0  0
 28 29  2  0  0  0
 29 30  1  0  0  0
 27 31  1  0  0  0
 31 32  2  0  0  0
 31 33  1  0  0  0
 33 35  1  0  0  0
 35 36  2  0  0  0
 36 37  1  0  0  0
 37 38  2  0  0  0
 38 39  1  0  0  0
 39 40  2  0  0  0
 37 41  1  0  0  0
 41 42  1  0  0  0
 41 43  1  0  0  0
 41 44  1  0  0  0
  3  4  2  0  0  0
  4  5  1  0  0  0
  5  6  1  0  0  0
  5  7  2  0  0  0
  7  8  1  0  0  0
  8  9  2  0  0  0
  9 10  1  0  0  0
 20 15  1  0  0  0
 10  1  1  0  0  0
 29 24  1  0  0  0
 40 35  1  0  0  0
 10  4  1  0  0  0
 33 34  1  0  0  0
  6 11  1  0  0  0
  6 12  1  0  0  0
M  END
> <minimizedAffinity>
-7.76976

> <CNNscore>
0.1785245240

> <CNNaffinity>
6.8115072250

> <CNN_VS>
1.2160210609

> <CNNaffinity_variance>
0.1261927783

$$$$
[H]c1nc(N([H])C(=O)c2c([H])c([H])c(-c3nc([C@@]4([H])C([H])([H])N(C(=O)C([H])([H])OC([H])([H])[H])C([H])([H])C([H])([H])C4([H])[H])n4c([H])c([H])nc(N([H])[H])c34)c(F)c2[H])c([H])c(C(F)(F)F)c1[H]


 44 48  0  0  0  0  0  0  0  0999 V2000
  -17.0264   12.8863  -21.6450 C   0  0  0  0  0  0  0  0  0  0  0  0
  -17.5957   14.0481  -21.2826 N   0  0  0  0  0  0  0  0  0  0  0  0
  -18.1393   13.9935  -20.0578 C   0  0  0  0  0  0  0  0  0  0  0  0
  -17.9098   12.7219  -19.5982 C   0  0  0  0  0  0  0  0  0  0  0  0
  -18.2254   12.0413  -18.4357 C   0  0  0  0  0  0  0  0  0  0  0  0
  -18.9511   12.7071  -17.4219 N   0  0  0  0  0  0  0  0  0  0  0  0
  -17.8601   10.7367  -18.2762 N   0  0  0  0  0  0  0  0  0  0  0  0
  -17.1937   10.1177  -19.2527 C   0  0  0  0  0  0  0  0  0  0  0  0
  -16.8901   10.8134  -20.4039 C   0  0  0  0  0  0  0  0  0  0  0  0
  -17.2270   12.0835  -20.6001 N   0  0  0  0  0  0  0  0  0  0  0  0
  -18.4916   12.9609  -16.5321 H   0  0  0  0  0  0  0  0  0  0  0  0
  -19.9614   12.9298  -17.6175 H   0  0  0  0  0  0  0  0  0  0  0  0
  -17.0251   13.1645  -26.5858 C   0  0  0  0  0  0  0  0  0  0  0  0
  -17.9205   12.2423  -26.6563 O   0  0  0  0  0  0  0  0  0  0  0  0
  -16.5513   13.4837  -25.2955 N   0  0  0  0  0  0  0  0  0  0  0  0
  -15.5334   14.4556  -25.1353 C   0  0  0  0  0  0  0  0  0  0  0  0
  -15.0084   14.6387  -23.7284 C   0  0  0  0  0  0  0  0  0  0  0  0
  -15.0096   13.3496  -23.0132 C   0  0  0  0  0  0  0  0  0  0  0  0
  -16.3521   12.6568  -22.9554 C   0  0  0  0  0  0  0  0  0  0  0  0
  -17.1741   12.7640  -24.1668 C   0  0  0  0  0  0  0  0  0  0  0  0
  -16.5706   13.8064  -27.8267 C   0  0  0  0  0  0  0  0  0  0  0  0
  -15.6189   15.7586  -28.5346 C   0  0  0  0  0  0  0  0  0  0  0  0
  -16.7132   15.1655  -27.9229 O   0  0  0  0  0  0  0  0  0  0  0  0
  -18.8653   15.0546  -19.3643 C   0  0  0  0  0  0  0  0  0  0  0  0
  -18.1976   15.9874  -18.6124 C   0  0  0  0  0  0  0  0  0  0  0  0
  -18.8905   17.0214  -17.9822 C   0  0  0  0  0  0  0  0  0  0  0  0
  -20.2552   17.1544  -18.0814 C   0  0  0  0  0  0  0  0  0  0  0  0
  -20.9315   16.2086  -18.8456 C   0  0  0  0  0  0  0  0  0  0  0  0
  -20.2392   15.1859  -19.4683 C   0  0  0  0  0  0  0  0  0  0  0  0
  -20.8876   14.2534  -20.2162 F   0  0  0  0  0  0  0  0  0  0  0  0
  -20.9891   18.2375  -17.4150 C   0  0  0  0  0  0  0  0  0  0  0  0
  -21.6016   19.0804  -18.0854 O   0  0  0  0  0  0  0  0  0  0  0  0
  -20.9908   18.3134  -16.0027 N   0  0  0  0  0  0  0  0  0  0  0  0
  -20.4579   17.5786  -15.4323 H   0  0  0  0  0  0  0  0  0  0  0  0
  -21.6586   19.3112  -15.2458 C   0  0  0  0  0  0  0  0  0  0  0  0
  -20.9473   20.3800  -14.7464 C   0  0  0  0  0  0  0  0  0  0  0  0
  -21.5779   21.3539  -14.0067 C   0  0  0  0  0  0  0  0  0  0  0  0
  -22.9317   21.2042  -13.7957 C   0  0  0  0  0  0  0  0  0  0  0  0
  -23.6024   20.1181  -14.3144 C   0  0  0  0  0  0  0  0  0  0  0  0
  -22.9650   19.1909  -15.0278 N   0  0  0  0  0  0  0  0  0  0  0  0
  -20.8572   22.5146  -13.4616 C   0  0  0  0  0  0  0  0  0  0  0  0
  -21.3662   23.7149  -13.9691 F   0  0  0  0  0  0  0  0  0  0  0  0
  -19.5134   22.3931  -13.8523 F   0  0  0  0  0  0  0  0  0  0  0  0
  -20.9274   22.6105  -12.0903 F   0  0  0  0  0  0  0  0  0  0  0  0
 22 23  1  0  0  0
 23 21  1  0  0  0
 21 13  1  0  0  0
 13 14  2  0  0  0
 13 15  1  0  0  0
 15 16  1  0  0  0
 16 17  1  0  0  0
 17 18  1  0  0  0
 18 19  1  0  0  0
 19 20  1  0  0  0
 19  1  1  0  0  0
  1  2  2  0  0  0
  2  3  1  0  0  0
  3 24  1  0  0  0
 24 25  2  0  0  0
 25 26  1  0  0  0
 26 27  2  0  0  0
 27 28  1  0  0  0
 28 29  2  0  0  0
 29 30  1  0  0  0
 27 31  1  0  0  0
 31 32  2  0  0  0
 31 33  1  0  0  0
 33 35  1  0  0  0
 35 36  2  0  0  0
 36 37  1  0  0  0
 37 38  2  0  0  0
 38 39  1  0  0  0
 39 40  2  0  0  0
 37 41  1  0  0  0
 41 42  1  0  0  0
 41 43  1  0  0  0
 41 44  1  0  0  0
  3  4  2  0  0  0
  4  5  1  0  0  0
  5  6  1  0  0  0
  5  7  2  0  0  0
  7  8  1  0  0  0
  8  9  2  0  0  0
  9 10  1  0  0  0
 20 15  1  0  0  0
 10  1  1  0  0  0
 29 24  1  0  0  0
 40 35  1  0  0  0
 10  4  1  0  0  0
 33 34  1  0  0  0
  6 11  1  0  0  0
  6 12  1  0  0  0
M  END
> <minimizedAffinity>
-8.42491

> <CNNscore>
0.1697118431

> <CNNaffinity>
7.0940885544

> <CNN_VS>
1.2039508820

> <CNNaffinity_variance>
0.0234652497

$$$$
[H]c1nc(N([H])C(=O)c2c([H])c([H])c(-c3nc([C@@]4([H])C([H])([H])N(C(=O)C([H])([H])OC([H])([H])[H])C([H])([H])C([H])([H])C4([H])[H])n4c([H])c([H])nc(N([H])[H])c34)c(F)c2[H])c([H])c(C(F)(F)F)c1[H]


 44 48  0  0  0  0  0  0  0  0999 V2000
  -16.9596   13.0309  -21.6655 C   0  0  0  0  0  0  0  0  0  0  0  0
  -17.6086   14.0598  -21.0949 N   0  0  0  0  0  0  0  0  0  0  0  0
  -18.1535   13.7318  -19.9141 C   0  0  0  0  0  0  0  0  0  0  0  0
  -17.8401   12.4130  -19.7060 C   0  0  0  0  0  0  0  0  0  0  0  0
  -18.1146   11.4996  -18.7036 C   0  0  0  0  0  0  0  0  0  0  0  0
  -18.8890   11.9058  -17.5934 N   0  0  0  0  0  0  0  0  0  0  0  0
  -17.6620   10.2159  -18.7938 N   0  0  0  0  0  0  0  0  0  0  0  0
  -16.9500    9.8443  -19.8595 C   0  0  0  0  0  0  0  0  0  0  0  0
  -16.6887   10.7695  -20.8480 C   0  0  0  0  0  0  0  0  0  0  0  0
  -17.1103   12.0284  -20.8001 N   0  0  0  0  0  0  0  0  0  0  0  0
  -18.4525   12.0110  -16.6630 H   0  0  0  0  0  0  0  0  0  0  0  0
  -19.9112   12.0954  -17.7604 H   0  0  0  0  0  0  0  0  0  0  0  0
  -17.1210   13.4689  -26.5920 C   0  0  0  0  0  0  0  0  0  0  0  0
  -17.6269   12.2899  -26.6986 O   0  0  0  0  0  0  0  0  0  0  0  0
  -16.7769   13.8901  -25.2900 N   0  0  0  0  0  0  0  0  0  0  0  0
  -16.1735   15.1562  -25.0917 C   0  0  0  0  0  0  0  0  0  0  0  0
  -15.7313   15.4647  -23.6782 C   0  0  0  0  0  0  0  0  0  0  0  0
  -15.2608   14.2363  -23.0129 C   0  0  0  0  0  0  0  0  0  0  0  0
  -16.2646   13.1061  -22.9830 C   0  0  0  0  0  0  0  0  0  0  0  0
  -17.0857   12.9547  -24.1903 C   0  0  0  0  0  0  0  0  0  0  0  0
  -16.9428   14.2754  -27.8071 C   0  0  0  0  0  0  0  0  0  0  0  0
  -15.6812   15.8809  -28.8309 C   0  0  0  0  0  0  0  0  0  0  0  0
  -15.6746   14.7018  -28.1009 O   0  0  0  0  0  0  0  0  0  0  0  0
  -18.9536   14.5873  -19.0412 C   0  0  0  0  0  0  0  0  0  0  0  0
  -18.3535   15.4197  -18.1311 C   0  0  0  0  0  0  0  0  0  0  0  0
  -19.1194   16.2628  -17.3253 C   0  0  0  0  0  0  0  0  0  0  0  0
  -20.4914   16.3001  -17.4017 C   0  0  0  0  0  0  0  0  0  0  0  0
  -21.0991   15.4565  -18.3263 C   0  0  0  0  0  0  0  0  0  0  0  0
  -20.3348   14.6230  -19.1227 C   0  0  0  0  0  0  0  0  0  0  0  0
  -20.9154   13.7917  -20.0287 F   0  0  0  0  0  0  0  0  0  0  0  0
  -21.3015   17.1814  -16.5515 C   0  0  0  0  0  0  0  0  0  0  0  0
  -21.6956   18.2741  -16.9825 O   0  0  0  0  0  0  0  0  0  0  0  0
  -21.6277   16.7755  -15.2365 N   0  0  0  0  0  0  0  0  0  0  0  0
  -21.2819   15.8278  -14.8737 H   0  0  0  0  0  0  0  0  0  0  0  0
  -22.3992   17.5380  -14.3211 C   0  0  0  0  0  0  0  0  0  0  0  0
  -21.7703   18.2380  -13.3151 C   0  0  0  0  0  0  0  0  0  0  0  0
  -22.5032   18.9786  -12.4163 C   0  0  0  0  0  0  0  0  0  0  0  0
  -23.8725   18.9806  -12.5733 C   0  0  0  0  0  0  0  0  0  0  0  0
  -24.4584   18.2649  -13.5945 C   0  0  0  0  0  0  0  0  0  0  0  0
  -23.7227   17.5573  -14.4504 N   0  0  0  0  0  0  0  0  0  0  0  0
  -21.8708   19.7460  -11.3323 C   0  0  0  0  0  0  0  0  0  0  0  0
  -20.7708   19.0649  -10.8001 F   0  0  0  0  0  0  0  0  0  0  0  0
  -22.8321   19.9106  -10.3213 F   0  0  0  0  0  0  0  0  0  0  0  0
  -21.4098   20.9806  -11.7297 F   0  0  0  0  0  0  0  0  0  0  0  0
 22 23  1  0  0  0
 23 21  1  0  0  0
 21 13  1  0  0  0
 13 14  2  0  0  0
 13 15  1  0  0  0
 15 16  1  0  0  0
 16 17  1  0  0  0
 17 18  1  0  0  0
 18 19  1  0  0  0
 19 20  1  0  0  0
 19  1  1  0  0  0
  1  2  2  0  0  0
  2  3  1  0  0  0
  3 24  1  0  0  0
 24 25  2  0  0  0
 25 26  1  0  0  0
 26 27  2  0  0  0
 27 28  1  0  0  0
 28 29  2  0  0  0
 29 30  1  0  0  0
 27 31  1  0  0  0
 31 32  2  0  0  0
 31 33  1  0  0  0
 33 35  1  0  0  0
 35 36  2  0  0  0
 36 37  1  0  0  0
 37 38  2  0  0  0
 38 39  1  0  0  0
 39 40  2  0  0  0
 37 41  1  0  0  0
 41 42  1  0  0  0
 41 43  1  0  0  0
 41 44  1  0  0  0
  3  4  2  0  0  0
  4  5  1  0  0  0
  5  6  1  0  0  0
  5  7  2  0  0  0
  7  8  1  0  0  0
  8  9  2  0  0  0
  9 10  1  0  0  0
 20 15  1  0  0  0
 10  1  1  0  0  0
 29 24  1  0  0  0
 40 35  1  0  0  0
 10  4  1  0  0  0
 33 34  1  0  0  0
  6 11  1  0  0  0
  6 12  1  0  0  0
M  END
> <minimizedAffinity>
-8.24143

> <CNNscore>
0.1681252867

> <CNNaffinity>
7.0713744164

> <CNN_VS>
1.1888768673

> <CNNaffinity_variance>
0.0196291152

$$$$
[H]c1nc(N([H])C(=O)c2c([H])c([H])c(-c3nc([C@@]4([H])C([H])([H])N(C(=O)C([H])([H])OC([H])([H])[H])C([H])([H])C([H])([H])C4([H])[H])n4c([H])c([H])nc(N([H])[H])c34)c(F)c2[H])c([H])c(C(F)(F)F)c1[H]


 44 48  0  0  0  0  0  0  0  0999 V2000
  -17.1830   13.0259  -21.6158 C   0  0  0  0  0  0  0  0  0  0  0  0
  -17.9402   14.0488  -21.1849 N   0  0  0  0  0  0  0  0  0  0  0  0
  -18.5166   13.7975  -20.0003 C   0  0  0  0  0  0  0  0  0  0  0  0
  -18.1101   12.5379  -19.6412 C   0  0  0  0  0  0  0  0  0  0  0  0
  -18.3615   11.7112  -18.5607 C   0  0  0  0  0  0  0  0  0  0  0  0
  -19.2215   12.1611  -17.5333 N   0  0  0  0  0  0  0  0  0  0  0  0
  -17.8040   10.4678  -18.4958 N   0  0  0  0  0  0  0  0  0  0  0  0
  -17.0113   10.0515  -19.4852 C   0  0  0  0  0  0  0  0  0  0  0  0
  -16.7745   10.8903  -20.5538 C   0  0  0  0  0  0  0  0  0  0  0  0
  -17.2972   12.1074  -20.6567 N   0  0  0  0  0  0  0  0  0  0  0  0
  -18.8427   12.3968  -16.6015 H   0  0  0  0  0  0  0  0  0  0  0  0
  -20.2456   12.2455  -17.7625 H   0  0  0  0  0  0  0  0  0  0  0  0
  -17.1153   13.2994  -26.5564 C   0  0  0  0  0  0  0  0  0  0  0  0
  -17.6681   12.1403  -26.6465 O   0  0  0  0  0  0  0  0  0  0  0  0
  -16.8084   13.7503  -25.2550 N   0  0  0  0  0  0  0  0  0  0  0  0
  -16.1582   14.9954  -25.0720 C   0  0  0  0  0  0  0  0  0  0  0  0
  -15.7632   15.3334  -23.6513 C   0  0  0  0  0  0  0  0  0  0  0  0
  -15.3765   14.1096  -22.9260 C   0  0  0  0  0  0  0  0  0  0  0  0
  -16.4299   13.0254  -22.9032 C   0  0  0  0  0  0  0  0  0  0  0  0
  -17.2049   12.8677  -24.1398 C   0  0  0  0  0  0  0  0  0  0  0  0
  -16.8499   14.0549  -27.7882 C   0  0  0  0  0  0  0  0  0  0  0  0
  -15.4258   15.6689  -28.5525 C   0  0  0  0  0  0  0  0  0  0  0  0
  -16.4346   15.3535  -27.6548 O   0  0  0  0  0  0  0  0  0  0  0  0
  -19.4258   14.6665  -19.2572 C   0  0  0  0  0  0  0  0  0  0  0  0
  -18.9412   15.6392  -18.4205 C   0  0  0  0  0  0  0  0  0  0  0  0
  -19.8120   16.4919  -17.7413 C   0  0  0  0  0  0  0  0  0  0  0  0
  -21.1772   16.4006  -17.8743 C   0  0  0  0  0  0  0  0  0  0  0  0
  -21.6679   15.4145  -18.7245 C   0  0  0  0  0  0  0  0  0  0  0  0
  -20.7997   14.5722  -19.3954 C   0  0  0  0  0  0  0  0  0  0  0  0
  -21.2654   13.6027  -20.2275 F   0  0  0  0  0  0  0  0  0  0  0  0
  -22.0974   17.2918  -17.1569 C   0  0  0  0  0  0  0  0  0  0  0  0
  -21.6562   18.2384  -16.4904 O   0  0  0  0  0  0  0  0  0  0  0  0
  -23.4909   17.0616  -17.2303 N   0  0  0  0  0  0  0  0  0  0  0  0
  -23.8622   16.2399  -17.8103 H   0  0  0  0  0  0  0  0  0  0  0  0
  -24.4775   17.8491  -16.5814 C   0  0  0  0  0  0  0  0  0  0  0  0
  -25.1785   18.7932  -17.2990 C   0  0  0  0  0  0  0  0  0  0  0  0
  -26.1350   19.5685  -16.6848 C   0  0  0  0  0  0  0  0  0  0  0  0
  -26.3484   19.3543  -15.3401 C   0  0  0  0  0  0  0  0  0  0  0  0
  -25.6231   18.3987  -14.6624 C   0  0  0  0  0  0  0  0  0  0  0  0
  -24.7034   17.6623  -15.2842 N   0  0  0  0  0  0  0  0  0  0  0  0
  -26.9108   20.5824  -17.4157 C   0  0  0  0  0  0  0  0  0  0  0  0
  -26.8121   21.8373  -16.8053 F   0  0  0  0  0  0  0  0  0  0  0  0
  -28.2549   20.1748  -17.3951 F   0  0  0  0  0  0  0  0  0  0  0  0
  -26.5043   20.7503  -18.7200 F   0  0  0  0  0  0  0  0  0  0  0  0
 22 23  1  0  0  0
 23 21  1  0  0  0
 21 13  1  0  0  0
 13 14  2  0  0  0
 13 15  1  0  0  0
 15 16  1  0  0  0
 16 17  1  0  0  0
 17 18  1  0  0  0
 18 19  1  0  0  0
 19 20  1  0  0  0
 19  1  1  0  0  0
  1  2  2  0  0  0
  2  3  1  0  0  0
  3 24  1  0  0  0
 24 25  2  0  0  0
 25 26  1  0  0  0
 26 27  2  0  0  0
 27 28  1  0  0  0
 28 29  2  0  0  0
 29 30  1  0  0  0
 27 31  1  0  0  0
 31 32  2  0  0  0
 31 33  1  0  0  0
 33 35  1  0  0  0
 35 36  2  0  0  0
 36 37  1  0  0  0
 37 38  2  0  0  0
 38 39  1  0  0  0
 39 40  2  0  0  0
 37 41  1  0  0  0
 41 42  1  0  0  0
 41 43  1  0  0  0
 41 44  1  0  0  0
  3  4  2  0  0  0
  4  5  1  0  0  0
  5  6  1  0  0  0
  5  7  2  0  0  0
  7  8  1  0  0  0
  8  9  2  0  0  0
  9 10  1  0  0  0
 20 15  1  0  0  0
 10  1  1  0  0  0
 29 24  1  0  0  0
 40 35  1  0  0  0
 10  4  1  0  0  0
 33 34  1  0  0  0
  6 11  1  0  0  0
  6 12  1  0  0  0
M  END
> <minimizedAffinity>
-7.94047

> <CNNscore>
0.1537457556

> <CNNaffinity>
7.1123924255

> <CNN_VS>
1.0935001373

> <CNNaffinity_variance>
0.0343176126

$$$$
[H]c1nc(N([H])C(=O)c2c([H])c([H])c(-c3nc([C@@]4([H])C([H])([H])N(C(=O)C([H])([H])OC([H])([H])[H])C([H])([H])C([H])([H])C4([H])[H])n4c([H])c([H])nc(N([H])[H])c34)c(F)c2[H])c([H])c(C(F)(F)F)c1[H]


 44 48  0  0  0  0  0  0  0  0999 V2000
  -16.9662   12.8464  -21.7520 C   0  0  0  0  0  0  0  0  0  0  0  0
  -17.5371   14.0001  -21.3669 N   0  0  0  0  0  0  0  0  0  0  0  0
  -18.0608   13.9273  -20.1343 C   0  0  0  0  0  0  0  0  0  0  0  0
  -17.8157   12.6520  -19.6936 C   0  0  0  0  0  0  0  0  0  0  0  0
  -18.1083   11.9557  -18.5344 C   0  0  0  0  0  0  0  0  0  0  0  0
  -18.8220   12.6047  -17.5014 N   0  0  0  0  0  0  0  0  0  0  0  0
  -17.7320   10.6518  -18.3963 N   0  0  0  0  0  0  0  0  0  0  0  0
  -17.0773   10.0487  -19.3905 C   0  0  0  0  0  0  0  0  0  0  0  0
  -16.7966   10.7601  -20.5380 C   0  0  0  0  0  0  0  0  0  0  0  0
  -17.1448   12.0300  -20.7137 N   0  0  0  0  0  0  0  0  0  0  0  0
  -18.3500   12.8510  -16.6160 H   0  0  0  0  0  0  0  0  0  0  0  0
  -19.8367   12.8229  -17.6782 H   0  0  0  0  0  0  0  0  0  0  0  0
  -17.0255   13.2269  -26.6857 C   0  0  0  0  0  0  0  0  0  0  0  0
  -17.9319   12.3160  -26.7633 O   0  0  0  0  0  0  0  0  0  0  0  0
  -16.5316   13.5141  -25.3954 N   0  0  0  0  0  0  0  0  0  0  0  0
  -15.5012   14.4716  -25.2286 C   0  0  0  0  0  0  0  0  0  0  0  0
  -14.9561   14.6199  -23.8252 C   0  0  0  0  0  0  0  0  0  0  0  0
  -14.9622   13.3163  -23.1368 C   0  0  0  0  0  0  0  0  0  0  0  0
  -16.3114   12.6369  -23.0756 C   0  0  0  0  0  0  0  0  0  0  0  0
  -17.1477   12.7780  -24.2737 C   0  0  0  0  0  0  0  0  0  0  0  0
  -16.5800   13.8894  -27.9190 C   0  0  0  0  0  0  0  0  0  0  0  0
  -15.5858   15.7948  -28.6926 C   0  0  0  0  0  0  0  0  0  0  0  0
  -16.6289   15.2580  -27.9530 O   0  0  0  0  0  0  0  0  0  0  0  0
  -18.7825   14.9753  -19.4168 C   0  0  0  0  0  0  0  0  0  0  0  0
  -18.1061   15.9371  -18.7105 C   0  0  0  0  0  0  0  0  0  0  0  0
  -18.7972   16.9582  -18.0576 C   0  0  0  0  0  0  0  0  0  0  0  0
  -20.1685   17.0495  -18.0886 C   0  0  0  0  0  0  0  0  0  0  0  0
  -20.8537   16.0743  -18.8066 C   0  0  0  0  0  0  0  0  0  0  0  0
  -20.1632   15.0645  -19.4522 C   0  0  0  0  0  0  0  0  0  0  0  0
  -20.8201   14.1038  -20.1554 F   0  0  0  0  0  0  0  0  0  0  0  0
  -20.9001   18.1189  -17.3981 C   0  0  0  0  0  0  0  0  0  0  0  0
  -21.3695   19.0688  -18.0403 O   0  0  0  0  0  0  0  0  0  0  0  0
  -21.0641   18.0584  -15.9946 N   0  0  0  0  0  0  0  0  0  0  0  0
  -20.6544   17.2317  -15.4486 H   0  0  0  0  0  0  0  0  0  0  0  0
  -21.7469   19.0291  -15.2161 C   0  0  0  0  0  0  0  0  0  0  0  0
  -23.0907   18.8739  -14.9560 C   0  0  0  0  0  0  0  0  0  0  0  0
  -23.7693   19.8077  -14.2070 C   0  0  0  0  0  0  0  0  0  0  0  0
  -23.0464   20.8851  -13.7419 C   0  0  0  0  0  0  0  0  0  0  0  0
  -21.7033   20.9992  -14.0271 C   0  0  0  0  0  0  0  0  0  0  0  0
  -21.0727   20.0784  -14.7547 N   0  0  0  0  0  0  0  0  0  0  0  0
  -25.2019   19.6763  -13.9003 C   0  0  0  0  0  0  0  0  0  0  0  0
  -25.4114   18.8598  -12.7837 F   0  0  0  0  0  0  0  0  0  0  0  0
  -25.8151   19.0819  -15.0156 F   0  0  0  0  0  0  0  0  0  0  0  0
  -25.8174   20.8766  -13.6262 F   0  0  0  0  0  0  0  0  0  0  0  0
 22 23  1  0  0  0
 23 21  1  0  0  0
 21 13  1  0  0  0
 13 14  2  0  0  0
 13 15  1  0  0  0
 15 16  1  0  0  0
 16 17  1  0  0  0
 17 18  1  0  0  0
 18 19  1  0  0  0
 19 20  1  0  0  0
 19  1  1  0  0  0
  1  2  2  0  0  0
  2  3  1  0  0  0
  3 24  1  0  0  0
 24 25  2  0  0  0
 25 26  1  0  0  0
 26 27  2  0  0  0
 27 28  1  0  0  0
 28 29  2  0  0  0
 29 30  1  0  0  0
 27 31  1  0  0  0
 31 32  2  0  0  0
 31 33  1  0  0  0
 33 35  1  0  0  0
 35 36  2  0  0  0
 36 37  1  0  0  0
 37 38  2  0  0  0
 38 39  1  0  0  0
 39 40  2  0  0  0
 37 41  1  0  0  0
 41 42  1  0  0  0
 41 43  1  0  0  0
 41 44  1  0  0  0
  3  4  2  0  0  0
  4  5  1  0  0  0
  5  6  1  0  0  0
  5  7  2  0  0  0
  7  8  1  0  0  0
  8  9  2  0  0  0
  9 10  1  0  0  0
 20 15  1  0  0  0
 10  1  1  0  0  0
 29 24  1  0  0  0
 40 35  1  0  0  0
 10  4  1  0  0  0
 33 34  1  0  0  0
  6 11  1  0  0  0
  6 12  1  0  0  0
M  END
> <minimizedAffinity>
-7.90388

> <CNNscore>
0.1513724774

> <CNNaffinity>
7.0736341476

> <CNN_VS>
1.0707535744

> <CNNaffinity_variance>
0.0333174095

$$$$
[H]c1nc(N([H])C(=O)c2c([H])c([H])c(-c3nc([C@@]4([H])C([H])([H])N(C(=O)C([H])([H])OC([H])([H])[H])C([H])([H])C([H])([H])C4([H])[H])n4c([H])c([H])nc(N([H])[H])c34)c(F)c2[H])c([H])c(C(F)(F)F)c1[H]


 44 48  0  0  0  0  0  0  0  0999 V2000
  -17.3379   13.3747  -21.1805 C   0  0  0  0  0  0  0  0  0  0  0  0
  -18.1280   14.2801  -20.5795 N   0  0  0  0  0  0  0  0  0  0  0  0
  -18.6834   13.8095  -19.4531 C   0  0  0  0  0  0  0  0  0  0  0  0
  -18.2275   12.5235  -19.3149 C   0  0  0  0  0  0  0  0  0  0  0  0
  -18.4380   11.5162  -18.3900 C   0  0  0  0  0  0  0  0  0  0  0  0
  -19.3041   11.7521  -17.2983 N   0  0  0  0  0  0  0  0  0  0  0  0
  -17.8345   10.3020  -18.5393 N   0  0  0  0  0  0  0  0  0  0  0  0
  -17.0365   10.0901  -19.5877 C   0  0  0  0  0  0  0  0  0  0  0  0
  -16.8410   11.1067  -20.4987 C   0  0  0  0  0  0  0  0  0  0  0  0
  -17.4090   12.3029  -20.3914 N   0  0  0  0  0  0  0  0  0  0  0  0
  -18.9253   11.8403  -16.3412 H   0  0  0  0  0  0  0  0  0  0  0  0
  -20.3328   11.8354  -17.5066 H   0  0  0  0  0  0  0  0  0  0  0  0
  -17.1408   13.2984  -26.1247 C   0  0  0  0  0  0  0  0  0  0  0  0
  -17.1119   12.0113  -26.1219 O   0  0  0  0  0  0  0  0  0  0  0  0
  -17.1363   13.9301  -24.8629 N   0  0  0  0  0  0  0  0  0  0  0  0
  -17.1215   15.3440  -24.7790 C   0  0  0  0  0  0  0  0  0  0  0  0
  -16.9941   15.9233  -23.3873 C   0  0  0  0  0  0  0  0  0  0  0  0
  -16.1400   15.0589  -22.5527 C   0  0  0  0  0  0  0  0  0  0  0  0
  -16.5977   13.6215  -22.4516 C   0  0  0  0  0  0  0  0  0  0  0  0
  -17.1546   13.0450  -23.6813 C   0  0  0  0  0  0  0  0  0  0  0  0
  -17.1768   14.0030  -27.4133 C   0  0  0  0  0  0  0  0  0  0  0  0
  -16.0048   15.7255  -28.3499 C   0  0  0  0  0  0  0  0  0  0  0  0
  -15.9799   14.3978  -27.9501 O   0  0  0  0  0  0  0  0  0  0  0  0
  -19.6169   14.5045  -18.5700 C   0  0  0  0  0  0  0  0  0  0  0  0
  -20.9713   14.4090  -18.7641 C   0  0  0  0  0  0  0  0  0  0  0  0
  -21.8607   15.0434  -17.8963 C   0  0  0  0  0  0  0  0  0  0  0  0
  -21.4308   15.7843  -16.8211 C   0  0  0  0  0  0  0  0  0  0  0  0
  -20.0567   15.8792  -16.6241 C   0  0  0  0  0  0  0  0  0  0  0  0
  -19.1797   15.2479  -17.4875 C   0  0  0  0  0  0  0  0  0  0  0  0
  -17.8345   15.3342  -17.3083 F   0  0  0  0  0  0  0  0  0  0  0  0
  -22.3630   16.4585  -15.9089 C   0  0  0  0  0  0  0  0  0  0  0  0
  -22.5422   17.6816  -15.9921 O   0  0  0  0  0  0  0  0  0  0  0  0
  -23.0540   15.7027  -14.9334 N   0  0  0  0  0  0  0  0  0  0  0  0
  -22.8919   14.6448  -14.8704 H   0  0  0  0  0  0  0  0  0  0  0  0
  -23.9757   16.2386  -13.9964 C   0  0  0  0  0  0  0  0  0  0  0  0
  -25.3204   16.2567  -14.2951 C   0  0  0  0  0  0  0  0  0  0  0  0
  -26.2272   16.7767  -13.4003 C   0  0  0  0  0  0  0  0  0  0  0  0
  -25.7272   17.2693  -12.2142 C   0  0  0  0  0  0  0  0  0  0  0  0
  -24.3739   17.2306  -11.9583 C   0  0  0  0  0  0  0  0  0  0  0  0
  -23.5195   16.7202  -12.8439 N   0  0  0  0  0  0  0  0  0  0  0  0
  -27.6717   16.8087  -13.6768 C   0  0  0  0  0  0  0  0  0  0  0  0
  -28.2353   18.0331  -13.3023 F   0  0  0  0  0  0  0  0  0  0  0  0
  -28.2652   15.7873  -12.9167 F   0  0  0  0  0  0  0  0  0  0  0  0
  -27.9809   16.6276  -15.0058 F   0  0  0  0  0  0  0  0  0  0  0  0
 22 23  1  0  0  0
 23 21  1  0  0  0
 21 13  1  0  0  0
 13 14  2  0  0  0
 13 15  1  0  0  0
 15 16  1  0  0  0
 16 17  1  0  0  0
 17 18  1  0  0  0
 18 19  1  0  0  0
 19 20  1  0  0  0
 19  1  1  0  0  0
  1  2  2  0  0  0
  2  3  1  0  0  0
  3 24  1  0  0  0
 24 25  2  0  0  0
 25 26  1  0  0  0
 26 27  2  0  0  0
 27 28  1  0  0  0
 28 29  2  0  0  0
 29 30  1  0  0  0
 27 31  1  0  0  0
 31 32  2  0  0  0
 31 33  1  0  0  0
 33 35  1  0  0  0
 35 36  2  0  0  0
 36 37  1  0  0  0
 37 38  2  0  0  0
 38 39  1  0  0  0
 39 40  2  0  0  0
 37 41  1  0  0  0
 41 42  1  0  0  0
 41 43  1  0  0  0
 41 44  1  0  0  0
  3  4  2  0  0  0
  4  5  1  0  0  0
  5  6  1  0  0  0
  5  7  2  0  0  0
  7  8  1  0  0  0
  8  9  2  0  0  0
  9 10  1  0  0  0
 20 15  1  0  0  0
 10  1  1  0  0  0
 29 24  1  0  0  0
 40 35  1  0  0  0
 10  4  1  0  0  0
 33 34  1  0  0  0
  6 11  1  0  0  0
  6 12  1  0  0  0
M  END
> <minimizedAffinity>
-7.56218

> <CNNscore>
0.1452889740

> <CNNaffinity>
6.9140348434

> <CNN_VS>
1.0045330524

> <CNNaffinity_variance>
0.0174680352

$$$$
[H]c1c([H])c(Cl)c(-c2c([H])c(C([H])([H])[H])c3nc(N([H])c4c([H])c([H])c(OC([H])([H])C([H])([H])[N+]5([O-])C([H])([H])C([H])([H])C([H])([H])C5([H])[H])c([H])c4[H])nnc3c2[H])c(Cl)c1[H]


 36 40  0  0  0  0  0  0  0  0999 V2000
  -19.1454   13.9246  -20.6896 C   0  0  0  0  0  0  0  0  0  0  0  0
  -18.0811   13.4434  -21.6075 C   0  0  0  0  0  0  0  0  0  0  0  0
  -17.7748   14.0312  -22.8157 C   0  0  0  0  0  0  0  0  0  0  0  0
  -16.7890   13.5762  -23.6616 C   0  0  0  0  0  0  0  0  0  0  0  0
  -16.0846   12.4667  -23.2490 C   0  0  0  0  0  0  0  0  0  0  0  0
  -16.3797   11.8578  -22.0301 C   0  0  0  0  0  0  0  0  0  0  0  0
  -15.6920   10.7562  -21.6148 N   0  0  0  0  0  0  0  0  0  0  0  0
  -15.9685   10.1716  -20.4661 N   0  0  0  0  0  0  0  0  0  0  0  0
  -16.9458   10.6151  -19.6182 C   0  0  0  0  0  0  0  0  0  0  0  0
  -17.6077   11.6949  -20.0402 N   0  0  0  0  0  0  0  0  0  0  0  0
  -17.3594   12.3263  -21.2094 C   0  0  0  0  0  0  0  0  0  0  0  0
  -16.4958   14.2334  -24.9250 C   0  0  0  0  0  0  0  0  0  0  0  0
  -16.9384   13.6944  -26.1091 C   0  0  0  0  0  0  0  0  0  0  0  0
  -17.8523   12.2138  -26.0661 Cl  0  0  0  0  0  0  0  0  0  0  0  0
  -16.6625   14.3203  -27.3360 C   0  0  0  0  0  0  0  0  0  0  0  0
  -15.9419   15.4865  -27.3606 C   0  0  0  0  0  0  0  0  0  0  0  0
  -15.4932   16.0368  -26.1802 C   0  0  0  0  0  0  0  0  0  0  0  0
  -15.7735   15.4053  -24.9665 C   0  0  0  0  0  0  0  0  0  0  0  0
  -15.2063   16.1009  -23.4833 Cl  0  0  0  0  0  0  0  0  0  0  0  0
  -17.1791    9.8990  -18.4254 N   0  0  0  0  0  0  0  0  0  0  0  0
  -16.3808    9.2552  -18.1164 H   0  0  0  0  0  0  0  0  0  0  0  0
  -18.3110    9.9312  -17.6039 C   0  0  0  0  0  0  0  0  0  0  0  0
  -19.2190   10.9520  -17.5008 C   0  0  0  0  0  0  0  0  0  0  0  0
  -20.3442   10.8667  -16.6613 C   0  0  0  0  0  0  0  0  0  0  0  0
  -20.5678    9.7442  -15.9122 C   0  0  0  0  0  0  0  0  0  0  0  0
  -19.6708    8.7017  -15.9970 C   0  0  0  0  0  0  0  0  0  0  0  0
  -18.5790    8.7986  -16.8180 C   0  0  0  0  0  0  0  0  0  0  0  0
  -21.6841    9.6674  -15.0816 O   0  0  0  0  0  0  0  0  0  0  0  0
  -21.5759    9.1203  -13.7792 C   0  0  0  0  0  0  0  0  0  0  0  0
  -21.3447   10.1058  -12.6927 C   0  0  0  0  0  0  0  0  0  0  0  0
  -20.0246   10.1765  -12.1507 N   0  0  0  0  0  0  0  0  0  0  0  0
  -19.2637   10.9603  -12.9623 O   0  0  0  0  0  0  0  0  0  0  0  0
  -19.3439    8.9250  -12.0128 C   0  0  0  0  0  0  0  0  0  0  0  0
  -18.3597    9.0957  -10.8696 C   0  0  0  0  0  0  0  0  0  0  0  0
  -18.7868   10.3166  -10.1317 C   0  0  0  0  0  0  0  0  0  0  0  0
  -20.0233   10.7774  -10.8155 C   0  0  0  0  0  0  0  0  0  0  0  0
  1  2  1  0  0  0
  2  3  2  0  0  0
  3  4  1  0  0  0
  4  5  2  0  0  0
  5  6  1  0  0  0
  6  7  2  0  0  0
  7  8  1  0  0  0
  8  9  2  0  0  0
  9 20  1  0  0  0
 20 22  1  0  0  0
 22 23  2  0  0  0
 23 24  1  0  0  0
 24 25  2  0  0  0
 25 28  1  0  0  0
 28 29  1  0  0  0
 29 30  1  0  0  0
 30 31  1  0  0  0
 31 32  1  0  0  0
 31 33  1  0  0  0
 33 34  1  0  0  0
 34 35  1  0  0  0
 35 36  1  0  0  0
 25 26  1  0  0  0
 26 27  2  0  0  0
  9 10  1  0  0  0
 10 11  2  0  0  0
  4 12  1  0  0  0
 12 13  2  0  0  0
 13 14  1  0  0  0
 13 15  1  0  0  0
 15 16  2  0  0  0
 16 17  1  0  0  0
 17 18  2  0  0  0
 18 19  1  0  0  0
 11  2  1  0  0  0
 18 12  1  0  0  0
 11  6  1  0  0  0
 27 22  1  0  0  0
 36 31  1  0  0  0
 20 21  1  0  0  0
M  CHG 1  31   1
M  CHG 1  32  -1
M  END
> <minimizedAffinity>
-10.49104

> <CNNscore>
0.9812241793

> <CNNaffinity>
8.0329742432

> <CNN_VS>
7.8821487427

> <CNNaffinity_variance>
0.1304458678

$$$$
[H]c1c([H])c(Cl)c(-c2c([H])c(C([H])([H])[H])c3nc(N([H])c4c([H])c([H])c(OC([H])([H])C([H])([H])[N+]5([O-])C([H])([H])C([H])([H])C([H])([H])C5([H])[H])c([H])c4[H])nnc3c2[H])c(Cl)c1[H]


 36 40  0  0  0  0  0  0  0  0999 V2000
  -19.1547   13.9125  -20.6674 C   0  0  0  0  0  0  0  0  0  0  0  0
  -18.0880   13.4262  -21.5797 C   0  0  0  0  0  0  0  0  0  0  0  0
  -17.7755   14.0098  -22.7883 C   0  0  0  0  0  0  0  0  0  0  0  0
  -16.7874   13.5500  -23.6290 C   0  0  0  0  0  0  0  0  0  0  0  0
  -16.0874   12.4400  -23.2105 C   0  0  0  0  0  0  0  0  0  0  0  0
  -16.3887   11.8353  -21.9911 C   0  0  0  0  0  0  0  0  0  0  0  0
  -15.7055   10.7332  -21.5700 N   0  0  0  0  0  0  0  0  0  0  0  0
  -15.9879   10.1525  -20.4208 N   0  0  0  0  0  0  0  0  0  0  0  0
  -16.9675   10.6008  -19.5780 C   0  0  0  0  0  0  0  0  0  0  0  0
  -17.6251   11.6809  -20.0057 N   0  0  0  0  0  0  0  0  0  0  0  0
  -17.3706   12.3084  -21.1756 C   0  0  0  0  0  0  0  0  0  0  0  0
  -16.4876   14.2029  -24.8931 C   0  0  0  0  0  0  0  0  0  0  0  0
  -15.7509   15.3626  -24.9200 C   0  0  0  0  0  0  0  0  0  0  0  0
  -15.1871   16.0324  -23.4158 Cl  0  0  0  0  0  0  0  0  0  0  0  0
  -15.4539   16.0023  -26.1348 C   0  0  0  0  0  0  0  0  0  0  0  0
  -15.9019   15.4677  -27.3153 C   0  0  0  0  0  0  0  0  0  0  0  0
  -16.6410   14.3054  -27.3012 C   0  0  0  0  0  0  0  0  0  0  0  0
  -16.9302   13.6785  -26.0872 C   0  0  0  0  0  0  0  0  0  0  0  0
  -17.8613   12.2162  -26.0740 Cl  0  0  0  0  0  0  0  0  0  0  0  0
  -17.2072    9.8886  -18.3841 N   0  0  0  0  0  0  0  0  0  0  0  0
  -16.4079    9.2512  -18.0649 H   0  0  0  0  0  0  0  0  0  0  0  0
  -18.3468    9.9173  -17.5732 C   0  0  0  0  0  0  0  0  0  0  0  0
  -19.2519   10.9407  -17.4690 C   0  0  0  0  0  0  0  0  0  0  0  0
  -20.3854   10.8517  -16.6411 C   0  0  0  0  0  0  0  0  0  0  0  0
  -20.6204    9.7230  -15.9049 C   0  0  0  0  0  0  0  0  0  0  0  0
  -19.7267    8.6779  -15.9912 C   0  0  0  0  0  0  0  0  0  0  0  0
  -18.6267    8.7783  -16.8007 C   0  0  0  0  0  0  0  0  0  0  0  0
  -21.7450    9.6427  -15.0858 O   0  0  0  0  0  0  0  0  0  0  0  0
  -21.6348    9.1629  -13.7573 C   0  0  0  0  0  0  0  0  0  0  0  0
  -21.2966   10.1877  -12.7372 C   0  0  0  0  0  0  0  0  0  0  0  0
  -19.9727   10.1571  -12.2007 N   0  0  0  0  0  0  0  0  0  0  0  0
  -19.1748   10.9478  -12.9690 O   0  0  0  0  0  0  0  0  0  0  0  0
  -19.3577    8.8660  -12.1425 C   0  0  0  0  0  0  0  0  0  0  0  0
  -18.3619    8.9164  -10.9976 C   0  0  0  0  0  0  0  0  0  0  0  0
  -18.7221   10.1112  -10.1852 C   0  0  0  0  0  0  0  0  0  0  0  0
  -19.9353   10.6758  -10.8320 C   0  0  0  0  0  0  0  0  0  0  0  0
  1  2  1  0  0  0
  2  3  2  0  0  0
  3  4  1  0  0  0
  4  5  2  0  0  0
  5  6  1  0  0  0
  6  7  2  0  0  0
  7  8  1  0  0  0
  8  9  2  0  0  0
  9 20  1  0  0  0
 20 22  1  0  0  0
 22 23  2  0  0  0
 23 24  1  0  0  0
 24 25  2  0  0  0
 25 28  1  0  0  0
 28 29  1  0  0  0
 29 30  1  0  0  0
 30 31  1  0  0  0
 31 32  1  0  0  0
 31 33  1  0  0  0
 33 34  1  0  0  0
 34 35  1  0  0  0
 35 36  1  0  0  0
 25 26  1  0  0  0
 26 27  2  0  0  0
  9 10  1  0  0  0
 10 11  2  0  0  0
  4 12  1  0  0  0
 12 13  2  0  0  0
 13 14  1  0  0  0
 13 15  1  0  0  0
 15 16  2  0  0  0
 16 17  1  0  0  0
 17 18  2  0  0  0
 18 19  1  0  0  0
 11  2  1  0  0  0
 18 12  1  0  0  0
 11  6  1  0  0  0
 27 22  1  0  0  0
 36 31  1  0  0  0
 20 21  1  0  0  0
M  CHG 1  31   1
M  CHG 1  32  -1
M  END
> <minimizedAffinity>
-10.45801

> <CNNscore>
0.9807416201

> <CNNaffinity>
8.0386524200

> <CNN_VS>
7.8838410378

> <CNNaffinity_variance>
0.1360301226

$$$$
[H]c1c([H])c(Cl)c(-c2c([H])c(C([H])([H])[H])c3nc(N([H])c4c([H])c([H])c(OC([H])([H])C([H])([H])[N+]5([O-])C([H])([H])C([H])([H])C([H])([H])C5([H])[H])c([H])c4[H])nnc3c2[H])c(Cl)c1[H]


 36 40  0  0  0  0  0  0  0  0999 V2000
  -19.0304   13.9846  -20.8452 C   0  0  0  0  0  0  0  0  0  0  0  0
  -17.9769   13.4926  -21.7698 C   0  0  0  0  0  0  0  0  0  0  0  0
  -17.6907   14.0608  -22.9922 C   0  0  0  0  0  0  0  0  0  0  0  0
  -16.7147   13.5958  -23.8441 C   0  0  0  0  0  0  0  0  0  0  0  0
  -15.9991   12.4969  -23.4226 C   0  0  0  0  0  0  0  0  0  0  0  0
  -16.2738   11.9079  -22.1892 C   0  0  0  0  0  0  0  0  0  0  0  0
  -15.5749   10.8169  -21.7649 N   0  0  0  0  0  0  0  0  0  0  0  0
  -15.8322   10.2509  -20.6025 N   0  0  0  0  0  0  0  0  0  0  0  0
  -16.7995   10.7045  -19.7484 C   0  0  0  0  0  0  0  0  0  0  0  0
  -17.4727   11.7737  -20.1795 N   0  0  0  0  0  0  0  0  0  0  0  0
  -17.2441   12.3859  -21.3628 C   0  0  0  0  0  0  0  0  0  0  0  0
  -16.4428   14.2323  -25.1227 C   0  0  0  0  0  0  0  0  0  0  0  0
  -15.7183   15.3986  -25.1796 C   0  0  0  0  0  0  0  0  0  0  0  0
  -15.1360   16.0966  -23.6953 Cl  0  0  0  0  0  0  0  0  0  0  0  0
  -15.4481   16.0227  -26.4087 C   0  0  0  0  0  0  0  0  0  0  0  0
  -15.9105   15.4658  -27.5732 C   0  0  0  0  0  0  0  0  0  0  0  0
  -16.6377   14.2967  -27.5292 C   0  0  0  0  0  0  0  0  0  0  0  0
  -16.9001   13.6856  -26.3012 C   0  0  0  0  0  0  0  0  0  0  0  0
  -17.8161   12.2146  -26.2503 Cl  0  0  0  0  0  0  0  0  0  0  0  0
  -17.0123   10.0081  -18.5402 N   0  0  0  0  0  0  0  0  0  0  0  0
  -16.1808    9.4273  -18.1961 H   0  0  0  0  0  0  0  0  0  0  0  0
  -18.1621    9.9883  -17.7436 C   0  0  0  0  0  0  0  0  0  0  0  0
  -18.5860    8.9603  -16.9432 C   0  0  0  0  0  0  0  0  0  0  0  0
  -19.7475    9.0586  -16.1562 C   0  0  0  0  0  0  0  0  0  0  0  0
  -20.4990   10.2016  -16.1676 C   0  0  0  0  0  0  0  0  0  0  0  0
  -20.0954   11.2517  -16.9631 C   0  0  0  0  0  0  0  0  0  0  0  0
  -18.9627   11.1421  -17.7249 C   0  0  0  0  0  0  0  0  0  0  0  0
  -21.6493   10.2911  -15.3862 O   0  0  0  0  0  0  0  0  0  0  0  0
  -22.6725    9.3175  -15.4975 C   0  0  0  0  0  0  0  0  0  0  0  0
  -22.9395    8.5320  -14.2659 C   0  0  0  0  0  0  0  0  0  0  0  0
  -22.4925    7.1749  -14.2520 N   0  0  0  0  0  0  0  0  0  0  0  0
  -23.3833    6.4321  -13.5401 O   0  0  0  0  0  0  0  0  0  0  0  0
  -21.2016    6.9540  -13.6747 C   0  0  0  0  0  0  0  0  0  0  0  0
  -20.6424    5.7083  -14.3385 C   0  0  0  0  0  0  0  0  0  0  0  0
  -21.4656    5.4819  -15.5585 C   0  0  0  0  0  0  0  0  0  0  0  0
  -22.4224    6.6183  -15.6044 C   0  0  0  0  0  0  0  0  0  0  0  0
  1  2  1  0  0  0
  2  3  2  0  0  0
  3  4  1  0  0  0
  4  5  2  0  0  0
  5  6  1  0  0  0
  6  7  2  0  0  0
  7  8  1  0  0  0
  8  9  2  0  0  0
  9 20  1  0  0  0
 20 22  1  0  0  0
 22 23  2  0  0  0
 23 24  1  0  0  0
 24 25  2  0  0  0
 25 28  1  0  0  0
 28 29  1  0  0  0
 29 30  1  0  0  0
 30 31  1  0  0  0
 31 32  1  0  0  0
 31 33  1  0  0  0
 33 34  1  0  0  0
 34 35  1  0  0  0
 35 36  1  0  0  0
 25 26  1  0  0  0
 26 27  2  0  0  0
  9 10  1  0  0  0
 10 11  2  0  0  0
  4 12  1  0  0  0
 12 13  2  0  0  0
 13 14  1  0  0  0
 13 15  1  0  0  0
 15 16  2  0  0  0
 16 17  1  0  0  0
 17 18  2  0  0  0
 18 19  1  0  0  0
 11  2  1  0  0  0
 18 12  1  0  0  0
 11  6  1  0  0  0
 27 22  1  0  0  0
 36 31  1  0  0  0
 20 21  1  0  0  0
M  CHG 1  31   1
M  CHG 1  32  -1
M  END
> <minimizedAffinity>
-10.27764

> <CNNscore>
0.9798008800

> <CNNaffinity>
8.0547018051

> <CNN_VS>
7.8920040131

> <CNNaffinity_variance>
0.0449552424

$$$$
[H]c1c([H])c(Cl)c(-c2c([H])c(C([H])([H])[H])c3nc(N([H])c4c([H])c([H])c(OC([H])([H])C([H])([H])[N+]5([O-])C([H])([H])C([H])([H])C([H])([H])C5([H])[H])c([H])c4[H])nnc3c2[H])c(Cl)c1[H]


 36 40  0  0  0  0  0  0  0  0999 V2000
  -19.0694   13.8959  -20.9117 C   0  0  0  0  0  0  0  0  0  0  0  0
  -17.9903   13.4357  -21.8230 C   0  0  0  0  0  0  0  0  0  0  0  0
  -17.6958   14.0222  -23.0347 C   0  0  0  0  0  0  0  0  0  0  0  0
  -16.6960   13.5866  -23.8744 C   0  0  0  0  0  0  0  0  0  0  0  0
  -15.9642   12.4989  -23.4515 C   0  0  0  0  0  0  0  0  0  0  0  0
  -16.2470   11.8917  -22.2288 C   0  0  0  0  0  0  0  0  0  0  0  0
  -15.5322   10.8115  -21.8033 N   0  0  0  0  0  0  0  0  0  0  0  0
  -15.7968   10.2286  -20.6510 N   0  0  0  0  0  0  0  0  0  0  0  0
  -16.7878   10.6529  -19.8091 C   0  0  0  0  0  0  0  0  0  0  0  0
  -17.4763   11.7119  -20.2412 N   0  0  0  0  0  0  0  0  0  0  0  0
  -17.2410   12.3407  -21.4144 C   0  0  0  0  0  0  0  0  0  0  0  0
  -16.4162   14.2417  -25.1419 C   0  0  0  0  0  0  0  0  0  0  0  0
  -16.8669   13.6980  -26.3208 C   0  0  0  0  0  0  0  0  0  0  0  0
  -17.7747   12.2140  -26.2662 Cl  0  0  0  0  0  0  0  0  0  0  0  0
  -16.6039   14.3218  -27.5517 C   0  0  0  0  0  0  0  0  0  0  0  0
  -15.8881   15.4907  -27.5854 C   0  0  0  0  0  0  0  0  0  0  0  0
  -15.4314   16.0457  -26.4103 C   0  0  0  0  0  0  0  0  0  0  0  0
  -15.6988   15.4162  -25.1926 C   0  0  0  0  0  0  0  0  0  0  0  0
  -15.1216   16.1177  -23.7161 Cl  0  0  0  0  0  0  0  0  0  0  0  0
  -17.0059    9.9399  -18.6116 N   0  0  0  0  0  0  0  0  0  0  0  0
  -16.1965    9.3108  -18.3014 H   0  0  0  0  0  0  0  0  0  0  0  0
  -18.1358    9.9585  -17.7868 C   0  0  0  0  0  0  0  0  0  0  0  0
  -18.5644    8.9515  -16.9626 C   0  0  0  0  0  0  0  0  0  0  0  0
  -19.7033    9.0883  -16.1487 C   0  0  0  0  0  0  0  0  0  0  0  0
  -20.4269   10.2491  -16.1570 C   0  0  0  0  0  0  0  0  0  0  0  0
  -20.0179   11.2788  -16.9761 C   0  0  0  0  0  0  0  0  0  0  0  0
  -18.9075   11.1317  -17.7640 C   0  0  0  0  0  0  0  0  0  0  0  0
  -21.5550   10.3768  -15.3489 O   0  0  0  0  0  0  0  0  0  0  0  0
  -22.6564    9.4997  -15.5068 C   0  0  0  0  0  0  0  0  0  0  0  0
  -23.0195    8.7116  -14.3017 C   0  0  0  0  0  0  0  0  0  0  0  0
  -22.5532    7.3622  -14.2440 N   0  0  0  0  0  0  0  0  0  0  0  0
  -23.4385    6.6281  -13.5164 O   0  0  0  0  0  0  0  0  0  0  0  0
  -21.2636    7.1774  -13.6514 C   0  0  0  0  0  0  0  0  0  0  0  0
  -20.6818    5.9207  -14.2736 C   0  0  0  0  0  0  0  0  0  0  0  0
  -21.4926    5.6459  -15.4920 C   0  0  0  0  0  0  0  0  0  0  0  0
  -22.4652    6.7664  -15.5786 C   0  0  0  0  0  0  0  0  0  0  0  0
  1  2  1  0  0  0
  2  3  2  0  0  0
  3  4  1  0  0  0
  4  5  2  0  0  0
  5  6  1  0  0  0
  6  7  2  0  0  0
  7  8  1  0  0  0
  8  9  2  0  0  0
  9 20  1  0  0  0
 20 22  1  0  0  0
 22 23  2  0  0  0
 23 24  1  0  0  0
 24 25  2  0  0  0
 25 28  1  0  0  0
 28 29  1  0  0  0
 29 30  1  0  0  0
 30 31  1  0  0  0
 31 32  1  0  0  0
 31 33  1  0  0  0
 33 34  1  0  0  0
 34 35  1  0  0  0
 35 36  1  0  0  0
 25 26  1  0  0  0
 26 27  2  0  0  0
  9 10  1  0  0  0
 10 11  2  0  0  0
  4 12  1  0  0  0
 12 13  2  0  0  0
 13 14  1  0  0  0
 13 15  1  0  0  0
 15 16  2  0  0  0
 16 17  1  0  0  0
 17 18  2  0  0  0
 18 19  1  0  0  0
 11  2  1  0  0  0
 18 12  1  0  0  0
 11  6  1  0  0  0
 27 22  1  0  0  0
 36 31  1  0  0  0
 20 21  1  0  0  0
M  CHG 1  31   1
M  CHG 1  32  -1
M  END
> <minimizedAffinity>
-10.27978

> <CNNscore>
0.9797818065

> <CNNaffinity>
8.0483312607

> <CNN_VS>
7.8856086731

> <CNNaffinity_variance>
0.0434799492

$$$$
[H]c1c([H])c(Cl)c(-c2c([H])c(C([H])([H])[H])c3nc(N([H])c4c([H])c([H])c(OC([H])([H])C([H])([H])[N+]5([O-])C([H])([H])C([H])([H])C([H])([H])C5([H])[H])c([H])c4[H])nnc3c2[H])c(Cl)c1[H]


 36 40  0  0  0  0  0  0  0  0999 V2000
  -19.1886   13.8163  -20.6999 C   0  0  0  0  0  0  0  0  0  0  0  0
  -18.1015   13.3638  -21.6055 C   0  0  0  0  0  0  0  0  0  0  0  0
  -17.7827   13.9733  -22.7995 C   0  0  0  0  0  0  0  0  0  0  0  0
  -16.7756   13.5448  -23.6342 C   0  0  0  0  0  0  0  0  0  0  0  0
  -16.0624   12.4397  -23.2250 C   0  0  0  0  0  0  0  0  0  0  0  0
  -16.3698   11.8091  -22.0203 C   0  0  0  0  0  0  0  0  0  0  0  0
  -15.6735   10.7116  -21.6085 N   0  0  0  0  0  0  0  0  0  0  0  0
  -15.9615   10.1065  -20.4734 N   0  0  0  0  0  0  0  0  0  0  0  0
  -16.9599   10.5236  -19.6367 C   0  0  0  0  0  0  0  0  0  0  0  0
  -17.6301   11.5997  -20.0550 N   0  0  0  0  0  0  0  0  0  0  0  0
  -17.3706   12.2515  -21.2105 C   0  0  0  0  0  0  0  0  0  0  0  0
  -16.4701   14.2243  -24.8828 C   0  0  0  0  0  0  0  0  0  0  0  0
  -15.7477   15.3934  -24.8803 C   0  0  0  0  0  0  0  0  0  0  0  0
  -15.2092   16.0425  -23.3578 Cl  0  0  0  0  0  0  0  0  0  0  0  0
  -15.4453   16.0588  -26.0799 C   0  0  0  0  0  0  0  0  0  0  0  0
  -15.8733   15.5402  -27.2748 C   0  0  0  0  0  0  0  0  0  0  0  0
  -16.5979   14.3688  -27.2902 C   0  0  0  0  0  0  0  0  0  0  0  0
  -16.8926   13.7163  -26.0911 C   0  0  0  0  0  0  0  0  0  0  0  0
  -17.8053   12.2426  -26.1150 Cl  0  0  0  0  0  0  0  0  0  0  0  0
  -17.2035    9.7871  -18.4585 N   0  0  0  0  0  0  0  0  0  0  0  0
  -16.4384    9.0866  -18.1921 H   0  0  0  0  0  0  0  0  0  0  0  0
  -18.3078    9.8633  -17.6030 C   0  0  0  0  0  0  0  0  0  0  0  0
  -19.2080   10.8926  -17.5179 C   0  0  0  0  0  0  0  0  0  0  0  0
  -20.3055   10.8522  -16.6392 C   0  0  0  0  0  0  0  0  0  0  0  0
  -20.5086    9.7669  -15.8317 C   0  0  0  0  0  0  0  0  0  0  0  0
  -19.6189    8.7168  -15.8973 C   0  0  0  0  0  0  0  0  0  0  0  0
  -18.5542    8.7697  -16.7569 C   0  0  0  0  0  0  0  0  0  0  0  0
  -21.5974    9.7346  -14.9626 O   0  0  0  0  0  0  0  0  0  0  0  0
  -21.4384   10.0760  -13.5968 C   0  0  0  0  0  0  0  0  0  0  0  0
  -21.5918   11.5187  -13.2800 C   0  0  0  0  0  0  0  0  0  0  0  0
  -22.2566   11.8478  -12.0588 N   0  0  0  0  0  0  0  0  0  0  0  0
  -23.2020   10.9009  -11.8106 O   0  0  0  0  0  0  0  0  0  0  0  0
  -22.9150   13.1185  -12.0351 C   0  0  0  0  0  0  0  0  0  0  0  0
  -22.9335   13.5650  -10.5842 C   0  0  0  0  0  0  0  0  0  0  0  0
  -21.9343   12.7183   -9.8756 C   0  0  0  0  0  0  0  0  0  0  0  0
  -21.3269   11.8621  -10.9277 C   0  0  0  0  0  0  0  0  0  0  0  0
  1  2  1  0  0  0
  2  3  2  0  0  0
  3  4  1  0  0  0
  4  5  2  0  0  0
  5  6  1  0  0  0
  6  7  2  0  0  0
  7  8  1  0  0  0
  8  9  2  0  0  0
  9 20  1  0  0  0
 20 22  1  0  0  0
 22 23  2  0  0  0
 23 24  1  0  0  0
 24 25  2  0  0  0
 25 28  1  0  0  0
 28 29  1  0  0  0
 29 30  1  0  0  0
 30 31  1  0  0  0
 31 32  1  0  0  0
 31 33  1  0  0  0
 33 34  1  0  0  0
 34 35  1  0  0  0
 35 36  1  0  0  0
 25 26  1  0  0  0
 26 27  2  0  0  0
  9 10  1  0  0  0
 10 11  2  0  0  0
  4 12  1  0  0  0
 12 13  2  0  0  0
 13 14  1  0  0  0
 13 15  1  0  0  0
 15 16  2  0  0  0
 16 17  1  0  0  0
 17 18  2  0  0  0
 18 19  1  0  0  0
 11  2  1  0  0  0
 18 12  1  0  0  0
 11  6  1  0  0  0
 27 22  1  0  0  0
 36 31  1  0  0  0
 20 21  1  0  0  0
M  CHG 1  31   1
M  CHG 1  32  -1
M  END
> <minimizedAffinity>
-10.03414

> <CNNscore>
0.9795500040

> <CNNaffinity>
7.8968772888

> <CNN_VS>
7.7353863716

> <CNNaffinity_variance>
0.1104962975

$$$$
[H]c1c([H])c(Cl)c(-c2c([H])c(C([H])([H])[H])c3nc(N([H])c4c([H])c([H])c(OC([H])([H])C([H])([H])[N+]5([O-])C([H])([H])C([H])([H])C([H])([H])C5([H])[H])c([H])c4[H])nnc3c2[H])c(Cl)c1[H]


 36 40  0  0  0  0  0  0  0  0999 V2000
  -19.0257   14.0184  -20.8408 C   0  0  0  0  0  0  0  0  0  0  0  0
  -17.9769   13.5035  -21.7582 C   0  0  0  0  0  0  0  0  0  0  0  0
  -17.6897   14.0477  -22.9912 C   0  0  0  0  0  0  0  0  0  0  0  0
  -16.7181   13.5616  -23.8363 C   0  0  0  0  0  0  0  0  0  0  0  0
  -16.0082   12.4663  -23.3961 C   0  0  0  0  0  0  0  0  0  0  0  0
  -16.2841   11.9013  -22.1518 C   0  0  0  0  0  0  0  0  0  0  0  0
  -15.5909   10.8140  -21.7090 N   0  0  0  0  0  0  0  0  0  0  0  0
  -15.8493   10.2708  -20.5361 N   0  0  0  0  0  0  0  0  0  0  0  0
  -16.8123   10.7455  -19.6887 C   0  0  0  0  0  0  0  0  0  0  0  0
  -17.4799   11.8107  -20.1379 N   0  0  0  0  0  0  0  0  0  0  0  0
  -17.2500   12.4000  -21.3325 C   0  0  0  0  0  0  0  0  0  0  0  0
  -16.4448   14.1733  -25.1267 C   0  0  0  0  0  0  0  0  0  0  0  0
  -15.6934   15.3210  -25.2079 C   0  0  0  0  0  0  0  0  0  0  0  0
  -15.0789   16.0258  -23.7399 Cl  0  0  0  0  0  0  0  0  0  0  0  0
  -15.4217   15.9209  -26.4486 C   0  0  0  0  0  0  0  0  0  0  0  0
  -15.9096   15.3588  -27.6001 C   0  0  0  0  0  0  0  0  0  0  0  0
  -16.6639   14.2082  -27.5317 C   0  0  0  0  0  0  0  0  0  0  0  0
  -16.9276   13.6209  -26.2923 C   0  0  0  0  0  0  0  0  0  0  0  0
  -17.8778   12.1732  -26.2107 Cl  0  0  0  0  0  0  0  0  0  0  0  0
  -17.0269   10.0724  -18.4677 N   0  0  0  0  0  0  0  0  0  0  0  0
  -16.1709    9.5669  -18.0690 H   0  0  0  0  0  0  0  0  0  0  0  0
  -18.2067    9.9902  -17.7205 C   0  0  0  0  0  0  0  0  0  0  0  0
  -18.6572    8.9032  -17.0185 C   0  0  0  0  0  0  0  0  0  0  0  0
  -19.8488    8.9395  -16.2723 C   0  0  0  0  0  0  0  0  0  0  0  0
  -20.6039   10.0792  -16.2252 C   0  0  0  0  0  0  0  0  0  0  0  0
  -20.1740   11.1878  -16.9214 C   0  0  0  0  0  0  0  0  0  0  0  0
  -19.0121   11.1382  -17.6446 C   0  0  0  0  0  0  0  0  0  0  0  0
  -21.7841   10.1072  -15.4848 O   0  0  0  0  0  0  0  0  0  0  0  0
  -21.9198    9.3170  -14.3166 C   0  0  0  0  0  0  0  0  0  0  0  0
  -23.0855    8.3972  -14.3030 C   0  0  0  0  0  0  0  0  0  0  0  0
  -24.3136    8.9135  -13.7867 N   0  0  0  0  0  0  0  0  0  0  0  0
  -24.9277    7.9344  -13.0680 O   0  0  0  0  0  0  0  0  0  0  0  0
  -25.2527    9.3717  -14.7648 C   0  0  0  0  0  0  0  0  0  0  0  0
  -26.0906   10.4411  -14.0869 C   0  0  0  0  0  0  0  0  0  0  0  0
  -25.3447   10.8392  -12.8612 C   0  0  0  0  0  0  0  0  0  0  0  0
  -24.0852   10.0508  -12.8933 C   0  0  0  0  0  0  0  0  0  0  0  0
  1  2  1  0  0  0
  2  3  2  0  0  0
  3  4  1  0  0  0
  4  5  2  0  0  0
  5  6  1  0  0  0
  6  7  2  0  0  0
  7  8  1  0  0  0
  8  9  2  0  0  0
  9 20  1  0  0  0
 20 22  1  0  0  0
 22 23  2  0  0  0
 23 24  1  0  0  0
 24 25  2  0  0  0
 25 28  1  0  0  0
 28 29  1  0  0  0
 29 30  1  0  0  0
 30 31  1  0  0  0
 31 32  1  0  0  0
 31 33  1  0  0  0
 33 34  1  0  0  0
 34 35  1  0  0  0
 35 36  1  0  0  0
 25 26  1  0  0  0
 26 27  2  0  0  0
  9 10  1  0  0  0
 10 11  2  0  0  0
  4 12  1  0  0  0
 12 13  2  0  0  0
 13 14  1  0  0  0
 13 15  1  0  0  0
 15 16  2  0  0  0
 16 17  1  0  0  0
 17 18  2  0  0  0
 18 19  1  0  0  0
 11  2  1  0  0  0
 18 12  1  0  0  0
 11  6  1  0  0  0
 27 22  1  0  0  0
 36 31  1  0  0  0
 20 21  1  0  0  0
M  CHG 1  31   1
M  CHG 1  32  -1
M  END
> <minimizedAffinity>
-9.82758

> <CNNscore>
0.9768354893

> <CNNaffinity>
7.8104200363

> <CNN_VS>
7.6294956207

> <CNNaffinity_variance>
0.0574073084

$$$$
[H]c1c([H])c(Cl)c(-c2c([H])c(C([H])([H])[H])c3nc(N([H])c4c([H])c([H])c(OC([H])([H])C([H])([H])[N+]5([O-])C([H])([H])C([H])([H])C([H])([H])C5([H])[H])c([H])c4[H])nnc3c2[H])c(Cl)c1[H]


 36 40  0  0  0  0  0  0  0  0999 V2000
  -19.0916   14.0300  -20.6934 C   0  0  0  0  0  0  0  0  0  0  0  0
  -18.0494   13.5135  -21.6175 C   0  0  0  0  0  0  0  0  0  0  0  0
  -17.7565   14.0687  -22.8442 C   0  0  0  0  0  0  0  0  0  0  0  0
  -16.7912   13.5811  -23.6957 C   0  0  0  0  0  0  0  0  0  0  0  0
  -16.0939   12.4725  -23.2688 C   0  0  0  0  0  0  0  0  0  0  0  0
  -16.3756   11.8963  -22.0310 C   0  0  0  0  0  0  0  0  0  0  0  0
  -15.6950   10.7959  -21.6013 N   0  0  0  0  0  0  0  0  0  0  0  0
  -15.9590   10.2421  -20.4346 N   0  0  0  0  0  0  0  0  0  0  0  0
  -16.9159   10.7182  -19.5810 C   0  0  0  0  0  0  0  0  0  0  0  0
  -17.5713   11.7963  -20.0174 N   0  0  0  0  0  0  0  0  0  0  0  0
  -17.3352   12.3967  -21.2052 C   0  0  0  0  0  0  0  0  0  0  0  0
  -16.5116   14.2045  -24.9791 C   0  0  0  0  0  0  0  0  0  0  0  0
  -16.9876   13.6478  -26.1418 C   0  0  0  0  0  0  0  0  0  0  0  0
  -17.9275   12.1860  -26.0475 Cl  0  0  0  0  0  0  0  0  0  0  0  0
  -16.7251   14.2410  -27.3877 C   0  0  0  0  0  0  0  0  0  0  0  0
  -15.9839   15.3927  -27.4528 C   0  0  0  0  0  0  0  0  0  0  0  0
  -15.5015   15.9605  -26.2942 C   0  0  0  0  0  0  0  0  0  0  0  0
  -15.7689   15.3614  -25.0612 C   0  0  0  0  0  0  0  0  0  0  0  0
  -15.1593   16.0789  -23.6055 Cl  0  0  0  0  0  0  0  0  0  0  0  0
  -17.1376   10.0335  -18.3678 N   0  0  0  0  0  0  0  0  0  0  0  0
  -16.2978    9.4837  -17.9943 H   0  0  0  0  0  0  0  0  0  0  0  0
  -18.3060    9.9900  -17.5996 C   0  0  0  0  0  0  0  0  0  0  0  0
  -19.2393   10.9849  -17.4719 C   0  0  0  0  0  0  0  0  0  0  0  0
  -20.3993   10.8231  -16.6932 C   0  0  0  0  0  0  0  0  0  0  0  0
  -20.6326    9.6492  -16.0308 C   0  0  0  0  0  0  0  0  0  0  0  0
  -19.7106    8.6312  -16.1423 C   0  0  0  0  0  0  0  0  0  0  0  0
  -18.5851    8.8027  -16.9033 C   0  0  0  0  0  0  0  0  0  0  0  0
  -21.7834    9.4967  -15.2600 O   0  0  0  0  0  0  0  0  0  0  0  0
  -21.9775   10.2779  -14.0941 C   0  0  0  0  0  0  0  0  0  0  0  0
  -23.0924   11.2565  -14.1628 C   0  0  0  0  0  0  0  0  0  0  0  0
  -22.8266   12.5776  -13.6878 N   0  0  0  0  0  0  0  0  0  0  0  0
  -21.9107   12.5016  -12.6841 O   0  0  0  0  0  0  0  0  0  0  0  0
  -23.9569   13.2905  -13.1753 C   0  0  0  0  0  0  0  0  0  0  0  0
  -23.6614   14.7658  -13.3783 C   0  0  0  0  0  0  0  0  0  0  0  0
  -22.5439   14.8351  -14.3599 C   0  0  0  0  0  0  0  0  0  0  0  0
  -22.2682   13.4257  -14.7427 C   0  0  0  0  0  0  0  0  0  0  0  0
  1  2  1  0  0  0
  2  3  2  0  0  0
  3  4  1  0  0  0
  4  5  2  0  0  0
  5  6  1  0  0  0
  6  7  2  0  0  0
  7  8  1  0  0  0
  8  9  2  0  0  0
  9 20  1  0  0  0
 20 22  1  0  0  0
 22 23  2  0  0  0
 23 24  1  0  0  0
 24 25  2  0  0  0
 25 28  1  0  0  0
 28 29  1  0  0  0
 29 30  1  0  0  0
 30 31  1  0  0  0
 31 32  1  0  0  0
 31 33  1  0  0  0
 33 34  1  0  0  0
 34 35  1  0  0  0
 35 36  1  0  0  0
 25 26  1  0  0  0
 26 27  2  0  0  0
  9 10  1  0  0  0
 10 11  2  0  0  0
  4 12  1  0  0  0
 12 13  2  0  0  0
 13 14  1  0  0  0
 13 15  1  0  0  0
 15 16  2  0  0  0
 16 17  1  0  0  0
 17 18  2  0  0  0
 18 19  1  0  0  0
 11  2  1  0  0  0
 18 12  1  0  0  0
 11  6  1  0  0  0
 27 22  1  0  0  0
 36 31  1  0  0  0
 20 21  1  0  0  0
M  CHG 1  31   1
M  CHG 1  32  -1
M  END
> <minimizedAffinity>
-9.89496

> <CNNscore>
0.9670992494

> <CNNaffinity>
7.8839478493

> <CNN_VS>
7.6245598793

> <CNNaffinity_variance>
0.0466366112

$$$$
[H]c1c([H])c(Cl)c(-c2c([H])c(C([H])([H])[H])c3nc(N([H])c4c([H])c([H])c(OC([H])([H])C([H])([H])[N+]5([O-])C([H])([H])C([H])([H])C([H])([H])C5([H])[H])c([H])c4[H])nnc3c2[H])c(Cl)c1[H]


 36 40  0  0  0  0  0  0  0  0999 V2000
  -18.5871   14.3242  -18.4216 C   0  0  0  0  0  0  0  0  0  0  0  0
  -17.9775   13.9325  -19.7184 C   0  0  0  0  0  0  0  0  0  0  0  0
  -17.6971   14.8127  -20.7409 C   0  0  0  0  0  0  0  0  0  0  0  0
  -17.1351   14.4401  -21.9409 C   0  0  0  0  0  0  0  0  0  0  0  0
  -16.8474   13.1024  -22.0992 C   0  0  0  0  0  0  0  0  0  0  0  0
  -17.1237   12.1963  -21.0764 C   0  0  0  0  0  0  0  0  0  0  0  0
  -16.8476   10.8694  -21.2250 N   0  0  0  0  0  0  0  0  0  0  0  0
  -17.1108   10.0056  -20.2647 N   0  0  0  0  0  0  0  0  0  0  0  0
  -17.6690   10.3648  -19.0688 C   0  0  0  0  0  0  0  0  0  0  0  0
  -17.9315   11.6674  -18.9406 N   0  0  0  0  0  0  0  0  0  0  0  0
  -17.6797   12.5884  -19.8974 C   0  0  0  0  0  0  0  0  0  0  0  0
  -16.8502   15.4060  -22.9896 C   0  0  0  0  0  0  0  0  0  0  0  0
  -17.7523   16.3998  -23.2845 C   0  0  0  0  0  0  0  0  0  0  0  0
  -19.2381   16.4778  -22.3814 Cl  0  0  0  0  0  0  0  0  0  0  0  0
  -17.4882   17.3393  -24.2948 C   0  0  0  0  0  0  0  0  0  0  0  0
  -16.3150   17.2705  -25.0012 C   0  0  0  0  0  0  0  0  0  0  0  0
  -15.4027   16.2791  -24.7146 C   0  0  0  0  0  0  0  0  0  0  0  0
  -15.6765   15.3505  -23.7080 C   0  0  0  0  0  0  0  0  0  0  0  0
  -14.5257   14.1040  -23.3510 Cl  0  0  0  0  0  0  0  0  0  0  0  0
  -17.9354    9.3561  -18.1193 N   0  0  0  0  0  0  0  0  0  0  0  0
  -17.4075    8.4366  -18.2705 H   0  0  0  0  0  0  0  0  0  0  0  0
  -18.7914    9.4121  -17.0142 C   0  0  0  0  0  0  0  0  0  0  0  0
  -19.8509   10.2634  -16.8416 C   0  0  0  0  0  0  0  0  0  0  0  0
  -20.6690   10.2130  -15.6986 C   0  0  0  0  0  0  0  0  0  0  0  0
  -20.4263    9.2980  -14.7112 C   0  0  0  0  0  0  0  0  0  0  0  0
  -19.3675    8.4289  -14.8591 C   0  0  0  0  0  0  0  0  0  0  0  0
  -18.5786    8.4895  -15.9769 C   0  0  0  0  0  0  0  0  0  0  0  0
  -21.2403    9.2550  -13.5809 O   0  0  0  0  0  0  0  0  0  0  0  0
  -20.6810    9.3864  -12.2858 C   0  0  0  0  0  0  0  0  0  0  0  0
  -20.7011    8.1547  -11.4565 C   0  0  0  0  0  0  0  0  0  0  0  0
  -19.5471    7.8924  -10.6560 N   0  0  0  0  0  0  0  0  0  0  0  0
  -19.9544    7.3839   -9.4612 O   0  0  0  0  0  0  0  0  0  0  0  0
  -18.7193    9.0252  -10.3729 C   0  0  0  0  0  0  0  0  0  0  0  0
  -17.3152    8.4880  -10.1607 C   0  0  0  0  0  0  0  0  0  0  0  0
  -17.3092    7.1074  -10.7186 C   0  0  0  0  0  0  0  0  0  0  0  0
  -18.6675    6.9069  -11.2875 C   0  0  0  0  0  0  0  0  0  0  0  0
  1  2  1  0  0  0
  2  3  2  0  0  0
  3  4  1  0  0  0
  4  5  2  0  0  0
  5  6  1  0  0  0
  6  7  2  0  0  0
  7  8  1  0  0  0
  8  9  2  0  0  0
  9 20  1  0  0  0
 20 22  1  0  0  0
 22 23  2  0  0  0
 23 24  1  0  0  0
 24 25  2  0  0  0
 25 28  1  0  0  0
 28 29  1  0  0  0
 29 30  1  0  0  0
 30 31  1  0  0  0
 31 32  1  0  0  0
 31 33  1  0  0  0
 33 34  1  0  0  0
 34 35  1  0  0  0
 35 36  1  0  0  0
 25 26  1  0  0  0
 26 27  2  0  0  0
  9 10  1  0  0  0
 10 11  2  0  0  0
  4 12  1  0  0  0
 12 13  2  0  0  0
 13 14  1  0  0  0
 13 15  1  0  0  0
 15 16  2  0  0  0
 16 17  1  0  0  0
 17 18  2  0  0  0
 18 19  1  0  0  0
 11  2  1  0  0  0
 18 12  1  0  0  0
 11  6  1  0  0  0
 27 22  1  0  0  0
 36 31  1  0  0  0
 20 21  1  0  0  0
M  CHG 1  31   1
M  CHG 1  32  -1
M  END
> <minimizedAffinity>
-8.68972

> <CNNscore>
0.7832730412

> <CNNaffinity>
7.4808335304

> <CNN_VS>
5.8595352173

> <CNNaffinity_variance>
0.2017303705

$$$$
[H]c1c([H])c(Cl)c(-c2c([H])c(C([H])([H])[H])c3nc(N([H])c4c([H])c([H])c(OC([H])([H])C([H])([H])[N+]5([O-])C([H])([H])C([H])([H])C([H])([H])C5([H])[H])c([H])c4[H])nnc3c2[H])c(Cl)c1[H]


 36 40  0  0  0  0  0  0  0  0999 V2000
  -19.4226   14.7937  -20.8409 C   0  0  0  0  0  0  0  0  0  0  0  0
  -18.4070   14.1031  -21.6765 C   0  0  0  0  0  0  0  0  0  0  0  0
  -17.9978   14.5389  -22.9181 C   0  0  0  0  0  0  0  0  0  0  0  0
  -17.0584   13.8904  -23.6871 C   0  0  0  0  0  0  0  0  0  0  0  0
  -16.5132   12.7414  -23.1578 C   0  0  0  0  0  0  0  0  0  0  0  0
  -16.9142   12.2843  -21.9033 C   0  0  0  0  0  0  0  0  0  0  0  0
  -16.3847   11.1455  -21.3725 N   0  0  0  0  0  0  0  0  0  0  0  0
  -16.7624   10.7039  -20.1894 N   0  0  0  0  0  0  0  0  0  0  0  0
  -17.6949   11.3401  -19.4171 C   0  0  0  0  0  0  0  0  0  0  0  0
  -18.2016   12.4535  -19.9518 N   0  0  0  0  0  0  0  0  0  0  0  0
  -17.8453   12.9431  -21.1604 C   0  0  0  0  0  0  0  0  0  0  0  0
  -16.6520   14.3915  -24.9901 C   0  0  0  0  0  0  0  0  0  0  0  0
  -15.8960   15.5346  -25.0914 C   0  0  0  0  0  0  0  0  0  0  0  0
  -15.4377   16.3681  -23.6338 Cl  0  0  0  0  0  0  0  0  0  0  0  0
  -15.4963   16.0283  -26.3442 C   0  0  0  0  0  0  0  0  0  0  0  0
  -15.8617   15.3653  -27.4874 C   0  0  0  0  0  0  0  0  0  0  0  0
  -16.6191   14.2181  -27.3988 C   0  0  0  0  0  0  0  0  0  0  0  0
  -17.0107   13.7370  -26.1475 C   0  0  0  0  0  0  0  0  0  0  0  0
  -17.9644   12.2932  -26.0406 Cl  0  0  0  0  0  0  0  0  0  0  0  0
  -18.0479   10.7670  -18.1774 N   0  0  0  0  0  0  0  0  0  0  0  0
  -17.3824   10.0076  -17.8201 H   0  0  0  0  0  0  0  0  0  0  0  0
  -19.1457   11.0701  -17.3650 C   0  0  0  0  0  0  0  0  0  0  0  0
  -19.9400   10.1769  -16.6953 C   0  0  0  0  0  0  0  0  0  0  0  0
  -21.0049   10.5943  -15.8769 C   0  0  0  0  0  0  0  0  0  0  0  0
  -21.2824   11.9249  -15.7236 C   0  0  0  0  0  0  0  0  0  0  0  0
  -20.4989   12.8454  -16.3851 C   0  0  0  0  0  0  0  0  0  0  0  0
  -19.4656   12.4249  -17.1794 C   0  0  0  0  0  0  0  0  0  0  0  0
  -22.3400   12.3309  -14.9122 O   0  0  0  0  0  0  0  0  0  0  0  0
  -22.3547   13.6290  -14.3447 C   0  0  0  0  0  0  0  0  0  0  0  0
  -23.4077   14.5382  -14.8642 C   0  0  0  0  0  0  0  0  0  0  0  0
  -22.9704   15.7253  -15.5283 N   0  0  0  0  0  0  0  0  0  0  0  0
  -22.9759   15.4988  -16.8702 O   0  0  0  0  0  0  0  0  0  0  0  0
  -21.6584   16.1810  -15.1821 C   0  0  0  0  0  0  0  0  0  0  0  0
  -21.6544   17.6832  -15.4020 C   0  0  0  0  0  0  0  0  0  0  0  0
  -23.0827   18.0947  -15.4902 C   0  0  0  0  0  0  0  0  0  0  0  0
  -23.8652   16.8525  -15.2590 C   0  0  0  0  0  0  0  0  0  0  0  0
  1  2  1  0  0  0
  2  3  2  0  0  0
  3  4  1  0  0  0
  4  5  2  0  0  0
  5  6  1  0  0  0
  6  7  2  0  0  0
  7  8  1  0  0  0
  8  9  2  0  0  0
  9 20  1  0  0  0
 20 22  1  0  0  0
 22 23  2  0  0  0
 23 24  1  0  0  0
 24 25  2  0  0  0
 25 28  1  0  0  0
 28 29  1  0  0  0
 29 30  1  0  0  0
 30 31  1  0  0  0
 31 32  1  0  0  0
 31 33  1  0  0  0
 33 34  1  0  0  0
 34 35  1  0  0  0
 35 36  1  0  0  0
 25 26  1  0  0  0
 26 27  2  0  0  0
  9 10  1  0  0  0
 10 11  2  0  0  0
  4 12  1  0  0  0
 12 13  2  0  0  0
 13 14  1  0  0  0
 13 15  1  0  0  0
 15 16  2  0  0  0
 16 17  1  0  0  0
 17 18  2  0  0  0
 18 19  1  0  0  0
 11  2  1  0  0  0
 18 12  1  0  0  0
 11  6  1  0  0  0
 27 22  1  0  0  0
 36 31  1  0  0  0
 20 21  1  0  0  0
M  CHG 1  31   1
M  CHG 1  32  -1
M  END
> <minimizedAffinity>
-9.10408

> <CNNscore>
0.7076745629

> <CNNaffinity>
7.6552505493

> <CNN_VS>
5.4174261093

> <CNNaffinity_variance>
0.2839857936

$$$$
[H]c1nc(N([H])[H])c([H])c(-n2c(N([H])c3c([H])c(C(=O)N([H])c4c([H])c([H])c([H])c(C(F)(F)F)c4[H])c([H])c([H])c3C([H])([H])[H])nc3c([H])c([H])c([H])c([H])c32)n1


 41 45  0  0  0  0  0  0  0  0999 V2000
  -18.7884   16.6176  -19.5948 C   0  0  0  0  0  0  0  0  0  0  0  0
  -19.0459   15.3471  -18.8544 C   0  0  0  0  0  0  0  0  0  0  0  0
  -19.2309   15.3704  -17.4852 C   0  0  0  0  0  0  0  0  0  0  0  0
  -19.4507   14.2364  -16.7719 C   0  0  0  0  0  0  0  0  0  0  0  0
  -19.5075   12.9846  -17.3823 C   0  0  0  0  0  0  0  0  0  0  0  0
  -19.3246   12.9651  -18.7264 C   0  0  0  0  0  0  0  0  0  0  0  0
  -19.0927   14.0975  -19.5144 C   0  0  0  0  0  0  0  0  0  0  0  0
  -19.8300   11.8649  -16.4850 C   0  0  0  0  0  0  0  0  0  0  0  0
  -19.8738   10.6971  -16.8844 O   0  0  0  0  0  0  0  0  0  0  0  0
  -20.0801   12.1520  -15.1045 N   0  0  0  0  0  0  0  0  0  0  0  0
  -20.0668   13.2218  -14.9232 H   0  0  0  0  0  0  0  0  0  0  0  0
  -20.3208   11.2851  -14.0415 C   0  0  0  0  0  0  0  0  0  0  0  0
  -21.6436   10.8476  -13.9131 C   0  0  0  0  0  0  0  0  0  0  0  0
  -22.0385   10.0865  -12.8407 C   0  0  0  0  0  0  0  0  0  0  0  0
  -21.1463    9.7398  -11.8754 C   0  0  0  0  0  0  0  0  0  0  0  0
  -19.8309   10.1415  -11.9524 C   0  0  0  0  0  0  0  0  0  0  0  0
  -19.4428   10.9191  -13.0551 C   0  0  0  0  0  0  0  0  0  0  0  0
  -18.9145    9.7658  -10.8730 C   0  0  0  0  0  0  0  0  0  0  0  0
  -18.0771    8.7215  -11.2364 F   0  0  0  0  0  0  0  0  0  0  0  0
  -18.1365   10.8444  -10.4738 F   0  0  0  0  0  0  0  0  0  0  0  0
  -19.6665    9.4104   -9.7628 F   0  0  0  0  0  0  0  0  0  0  0  0
  -19.0178   14.1109  -20.8951 N   0  0  0  0  0  0  0  0  0  0  0  0
  -20.0478   14.0976  -21.3615 H   0  0  0  0  0  0  0  0  0  0  0  0
  -18.0689   14.1510  -21.9137 C   0  0  0  0  0  0  0  0  0  0  0  0
  -18.0095   15.2985  -22.6964 N   0  0  0  0  0  0  0  0  0  0  0  0
  -16.9030   15.1795  -23.4263 C   0  0  0  0  0  0  0  0  0  0  0  0
  -16.3770   16.1571  -24.3121 C   0  0  0  0  0  0  0  0  0  0  0  0
  -15.1623   15.8698  -24.8800 C   0  0  0  0  0  0  0  0  0  0  0  0
  -14.4957   14.6849  -24.5979 C   0  0  0  0  0  0  0  0  0  0  0  0
  -15.0438   13.7812  -23.7503 C   0  0  0  0  0  0  0  0  0  0  0  0
  -16.2857   14.0029  -23.1223 C   0  0  0  0  0  0  0  0  0  0  0  0
  -17.0321   13.3658  -22.1671 N   0  0  0  0  0  0  0  0  0  0  0  0
  -16.6255   12.1181  -21.5752 C   0  0  0  0  0  0  0  0  0  0  0  0
  -17.2447   11.6604  -20.3929 C   0  0  0  0  0  0  0  0  0  0  0  0
  -16.8003   10.4300  -19.8563 C   0  0  0  0  0  0  0  0  0  0  0  0
  -17.4249    9.8780  -18.6801 N   0  0  0  0  0  0  0  0  0  0  0  0
  -15.8561    9.8262  -20.5029 N   0  0  0  0  0  0  0  0  0  0  0  0
  -15.2198   10.1852  -21.6281 C   0  0  0  0  0  0  0  0  0  0  0  0
  -15.6843   11.3890  -22.1138 N   0  0  0  0  0  0  0  0  0  0  0  0
  -17.7387   10.4873  -17.9370 H   0  0  0  0  0  0  0  0  0  0  0  0
  -17.5661    8.8454  -18.6190 H   0  0  0  0  0  0  0  0  0  0  0  0
  1  2  1  0  0  0
  2  3  2  0  0  0
  3  4  1  0  0  0
  4  5  2  0  0  0
  5  6  1  0  0  0
  6  7  2  0  0  0
  7 22  1  0  0  0
 22 24  1  0  0  0
 24 25  2  0  0  0
 25 26  1  0  0  0
 26 27  2  0  0  0
 27 28  1  0  0  0
 28 29  2  0  0  0
 29 30  1  0  0  0
 30 31  2  0  0  0
 31 32  1  0  0  0
 32 33  1  0  0  0
 33 34  2  0  0  0
 34 35  1  0  0  0
 35 36  1  0  0  0
 35 37  2  0  0  0
 37 38  1  0  0  0
 38 39  2  0  0  0
  5  8  1  0  0  0
  8  9  2  0  0  0
  8 10  1  0  0  0
 10 12  1  0  0  0
 12 13  2  0  0  0
 13 14  1  0  0  0
 14 15  2  0  0  0
 15 16  1  0  0  0
 16 17  2  0  0  0
 16 18  1  0  0  0
 18 19  1  0  0  0
 18 20  1  0  0  0
 18 21  1  0  0  0
  7  2  1  0  0  0
 32 24  1  0  0  0
 39 33  1  0  0  0
 17 12  1  0  0  0
 31 26  1  0  0  0
 22 23  1  0  0  0
 36 40  1  0  0  0
 36 41  1  0  0  0
 10 11  1  0  0  0
M  END
> <minimizedAffinity>
-9.64861

> <CNNscore>
0.8312726021

> <CNNaffinity>
7.6410055161

> <CNN_VS>
6.3517584801

> <CNNaffinity_variance>
0.0911977738

$$$$
[H]c1nc(N([H])[H])c([H])c(-n2c(N([H])c3c([H])c(C(=O)N([H])c4c([H])c([H])c([H])c(C(F)(F)F)c4[H])c([H])c([H])c3C([H])([H])[H])nc3c([H])c([H])c([H])c([H])c32)n1


 41 45  0  0  0  0  0  0  0  0999 V2000
  -19.9192   16.8133  -17.0781 C   0  0  0  0  0  0  0  0  0  0  0  0
  -19.1277   16.6616  -18.3348 C   0  0  0  0  0  0  0  0  0  0  0  0
  -18.4271   17.7380  -18.8444 C   0  0  0  0  0  0  0  0  0  0  0  0
  -17.7090   17.6473  -19.9930 C   0  0  0  0  0  0  0  0  0  0  0  0
  -17.6339   16.4604  -20.7201 C   0  0  0  0  0  0  0  0  0  0  0  0
  -18.3237   15.4059  -20.2174 C   0  0  0  0  0  0  0  0  0  0  0  0
  -19.0817   15.4382  -19.0421 C   0  0  0  0  0  0  0  0  0  0  0  0
  -16.7545   16.5027  -21.8980 C   0  0  0  0  0  0  0  0  0  0  0  0
  -15.9259   17.4033  -22.0648 O   0  0  0  0  0  0  0  0  0  0  0  0
  -16.8615   15.4500  -22.8630 N   0  0  0  0  0  0  0  0  0  0  0  0
  -17.6713   14.7738  -22.6094 H   0  0  0  0  0  0  0  0  0  0  0  0
  -16.1048   15.2064  -24.0063 C   0  0  0  0  0  0  0  0  0  0  0  0
  -14.7275   15.0774  -23.7969 C   0  0  0  0  0  0  0  0  0  0  0  0
  -13.8575   14.9540  -24.8521 C   0  0  0  0  0  0  0  0  0  0  0  0
  -14.3198   14.9543  -26.1304 C   0  0  0  0  0  0  0  0  0  0  0  0
  -15.6663   15.0762  -26.3945 C   0  0  0  0  0  0  0  0  0  0  0  0
  -16.5428   15.2014  -25.3048 C   0  0  0  0  0  0  0  0  0  0  0  0
  -16.1121   15.0992  -27.7898 C   0  0  0  0  0  0  0  0  0  0  0  0
  -16.9010   14.0030  -28.1058 F   0  0  0  0  0  0  0  0  0  0  0  0
  -16.8229   16.2579  -28.0731 F   0  0  0  0  0  0  0  0  0  0  0  0
  -14.9922   15.1330  -28.6076 F   0  0  0  0  0  0  0  0  0  0  0  0
  -19.6963   14.3473  -18.4551 N   0  0  0  0  0  0  0  0  0  0  0  0
  -20.8146   14.4973  -18.3822 H   0  0  0  0  0  0  0  0  0  0  0  0
  -19.3799   13.0971  -17.9294 C   0  0  0  0  0  0  0  0  0  0  0  0
  -19.9510   12.7451  -16.7117 N   0  0  0  0  0  0  0  0  0  0  0  0
  -19.6782   11.4530  -16.5463 C   0  0  0  0  0  0  0  0  0  0  0  0
  -20.1390   10.6309  -15.4838 C   0  0  0  0  0  0  0  0  0  0  0  0
  -19.8281    9.2980  -15.5697 C   0  0  0  0  0  0  0  0  0  0  0  0
  -19.1010    8.7940  -16.6399 C   0  0  0  0  0  0  0  0  0  0  0  0
  -18.6785    9.6220  -17.6254 C   0  0  0  0  0  0  0  0  0  0  0  0
  -18.9603   11.0026  -17.6139 C   0  0  0  0  0  0  0  0  0  0  0  0
  -18.7805   12.0502  -18.4774 N   0  0  0  0  0  0  0  0  0  0  0  0
  -18.1124   11.9003  -19.7438 C   0  0  0  0  0  0  0  0  0  0  0  0
  -16.9097   11.1674  -19.8273 C   0  0  0  0  0  0  0  0  0  0  0  0
  -16.2975   11.0581  -21.0971 C   0  0  0  0  0  0  0  0  0  0  0  0
  -15.0953   10.2803  -21.2640 N   0  0  0  0  0  0  0  0  0  0  0  0
  -16.9000   11.6452  -22.0804 N   0  0  0  0  0  0  0  0  0  0  0  0
  -18.0398   12.3528  -22.0900 C   0  0  0  0  0  0  0  0  0  0  0  0
  -18.5997   12.4335  -20.8327 N   0  0  0  0  0  0  0  0  0  0  0  0
  -14.3921   10.2681  -20.5378 H   0  0  0  0  0  0  0  0  0  0  0  0
  -14.9739    9.7158  -22.1338 H   0  0  0  0  0  0  0  0  0  0  0  0
  1  2  1  0  0  0
  2  3  2  0  0  0
  3  4  1  0  0  0
  4  5  2  0  0  0
  5  6  1  0  0  0
  6  7  2  0  0  0
  7 22  1  0  0  0
 22 24  1  0  0  0
 24 25  2  0  0  0
 25 26  1  0  0  0
 26 27  2  0  0  0
 27 28  1  0  0  0
 28 29  2  0  0  0
 29 30  1  0  0  0
 30 31  2  0  0  0
 31 32  1  0  0  0
 32 33  1  0  0  0
 33 34  2  0  0  0
 34 35  1  0  0  0
 35 36  1  0  0  0
 35 37  2  0  0  0
 37 38  1  0  0  0
 38 39  2  0  0  0
  5  8  1  0  0  0
  8  9  2  0  0  0
  8 10  1  0  0  0
 10 12  1  0  0  0
 12 13  2  0  0  0
 13 14  1  0  0  0
 14 15  2  0  0  0
 15 16  1  0  0  0
 16 17  2  0  0  0
 16 18  1  0  0  0
 18 19  1  0  0  0
 18 20  1  0  0  0
 18 21  1  0  0  0
  7  2  1  0  0  0
 32 24  1  0  0  0
 39 33  1  0  0  0
 17 12  1  0  0  0
 31 26  1  0  0  0
 22 23  1  0  0  0
 36 40  1  0  0  0
 36 41  1  0  0  0
 10 11  1  0  0  0
M  END
> <minimizedAffinity>
-10.23083

> <CNNscore>
0.4207910001

> <CNNaffinity>
7.7275838852

> <CNN_VS>
3.2516977787

> <CNNaffinity_variance>
0.2703717351

$$$$
[H]c1nc(N([H])[H])c([H])c(-n2c(N([H])c3c([H])c(C(=O)N([H])c4c([H])c([H])c([H])c(C(F)(F)F)c4[H])c([H])c([H])c3C([H])([H])[H])nc3c([H])c([H])c([H])c([H])c32)n1


 41 45  0  0  0  0  0  0  0  0999 V2000
  -16.0112    9.8367  -20.9510 C   0  0  0  0  0  0  0  0  0  0  0  0
  -17.0118   10.6761  -20.2278 C   0  0  0  0  0  0  0  0  0  0  0  0
  -17.3825   10.3512  -18.9369 C   0  0  0  0  0  0  0  0  0  0  0  0
  -18.3009   11.0778  -18.2503 C   0  0  0  0  0  0  0  0  0  0  0  0
  -18.9179   12.1965  -18.8077 C   0  0  0  0  0  0  0  0  0  0  0  0
  -18.5524   12.5122  -20.0754 C   0  0  0  0  0  0  0  0  0  0  0  0
  -17.6151   11.8024  -20.8335 C   0  0  0  0  0  0  0  0  0  0  0  0
  -19.8305   12.9203  -17.9099 C   0  0  0  0  0  0  0  0  0  0  0  0
  -20.4886   12.3417  -17.0396 O   0  0  0  0  0  0  0  0  0  0  0  0
  -19.9342   14.3417  -18.0496 N   0  0  0  0  0  0  0  0  0  0  0  0
  -19.3471   14.6915  -18.8924 H   0  0  0  0  0  0  0  0  0  0  0  0
  -20.6467   15.2642  -17.2877 C   0  0  0  0  0  0  0  0  0  0  0  0
  -22.0191   15.3273  -17.5526 C   0  0  0  0  0  0  0  0  0  0  0  0
  -22.8143   16.2750  -16.9568 C   0  0  0  0  0  0  0  0  0  0  0  0
  -22.2808   17.1773  -16.0913 C   0  0  0  0  0  0  0  0  0  0  0  0
  -20.9362   17.1598  -15.7925 C   0  0  0  0  0  0  0  0  0  0  0  0
  -20.1367   16.1846  -16.4098 C   0  0  0  0  0  0  0  0  0  0  0  0
  -20.4043   18.1707  -14.8752 C   0  0  0  0  0  0  0  0  0  0  0  0
  -20.5038   17.7783  -13.5486 F   0  0  0  0  0  0  0  0  0  0  0  0
  -19.0758   18.4588  -15.1578 F   0  0  0  0  0  0  0  0  0  0  0  0
  -21.0991   19.3544  -15.0762 F   0  0  0  0  0  0  0  0  0  0  0  0
  -17.1468   12.1737  -22.0805 N   0  0  0  0  0  0  0  0  0  0  0  0
  -17.3643   11.3777  -22.8536 H   0  0  0  0  0  0  0  0  0  0  0  0
  -16.4964   13.2348  -22.7055 C   0  0  0  0  0  0  0  0  0  0  0  0
  -15.6110   12.9340  -23.7342 N   0  0  0  0  0  0  0  0  0  0  0  0
  -15.3053   14.0999  -24.2985 C   0  0  0  0  0  0  0  0  0  0  0  0
  -14.5002   14.2835  -25.4540 C   0  0  0  0  0  0  0  0  0  0  0  0
  -14.4062   15.5661  -25.9301 C   0  0  0  0  0  0  0  0  0  0  0  0
  -15.0647   16.6175  -25.3065 C   0  0  0  0  0  0  0  0  0  0  0  0
  -15.8158   16.3904  -24.2021 C   0  0  0  0  0  0  0  0  0  0  0  0
  -15.9670   15.1015  -23.6530 C   0  0  0  0  0  0  0  0  0  0  0  0
  -16.7140   14.5407  -22.6516 N   0  0  0  0  0  0  0  0  0  0  0  0
  -17.5873   15.3188  -21.8121 C   0  0  0  0  0  0  0  0  0  0  0  0
  -17.1250   15.8109  -20.5733 C   0  0  0  0  0  0  0  0  0  0  0  0
  -18.0295   16.5652  -19.7908 C   0  0  0  0  0  0  0  0  0  0  0  0
  -17.6073   17.1421  -18.5389 N   0  0  0  0  0  0  0  0  0  0  0  0
  -19.2128   16.7395  -20.2844 N   0  0  0  0  0  0  0  0  0  0  0  0
  -19.7298   16.3144  -21.4471 C   0  0  0  0  0  0  0  0  0  0  0  0
  -18.8143   15.5842  -22.1748 N   0  0  0  0  0  0  0  0  0  0  0  0
  -16.9631   16.6435  -17.9403 H   0  0  0  0  0  0  0  0  0  0  0  0
  -17.9597   18.0880  -18.2728 H   0  0  0  0  0  0  0  0  0  0  0  0
  1  2  1  0  0  0
  2  3  2  0  0  0
  3  4  1  0  0  0
  4  5  2  0  0  0
  5  6  1  0  0  0
  6  7  2  0  0  0
  7 22  1  0  0  0
 22 24  1  0  0  0
 24 25  2  0  0  0
 25 26  1  0  0  0
 26 27  2  0  0  0
 27 28  1  0  0  0
 28 29  2  0  0  0
 29 30  1  0  0  0
 30 31  2  0  0  0
 31 32  1  0  0  0
 32 33  1  0  0  0
 33 34  2  0  0  0
 34 35  1  0  0  0
 35 36  1  0  0  0
 35 37  2  0  0  0
 37 38  1  0  0  0
 38 39  2  0  0  0
  5  8  1  0  0  0
  8  9  2  0  0  0
  8 10  1  0  0  0
 10 12  1  0  0  0
 12 13  2  0  0  0
 13 14  1  0  0  0
 14 15  2  0  0  0
 15 16  1  0  0  0
 16 17  2  0  0  0
 16 18  1  0  0  0
 18 19  1  0  0  0
 18 20  1  0  0  0
 18 21  1  0  0  0
  7  2  1  0  0  0
 32 24  1  0  0  0
 39 33  1  0  0  0
 17 12  1  0  0  0
 31 26  1  0  0  0
 22 23  1  0  0  0
 36 40  1  0  0  0
 36 41  1  0  0  0
 10 11  1  0  0  0
M  END
> <minimizedAffinity>
-9.80288

> <CNNscore>
0.1755395085

> <CNNaffinity>
7.0468316078

> <CNN_VS>
1.2369973660

> <CNNaffinity_variance>
0.1841401458

$$$$
[H]c1nc(N([H])[H])c([H])c(-n2c(N([H])c3c([H])c(C(=O)N([H])c4c([H])c([H])c([H])c(C(F)(F)F)c4[H])c([H])c([H])c3C([H])([H])[H])nc3c([H])c([H])c([H])c([H])c32)n1


 41 45  0  0  0  0  0  0  0  0999 V2000
  -15.4168   10.3622  -21.5962 C   0  0  0  0  0  0  0  0  0  0  0  0
  -16.4585   10.7498  -20.5994 C   0  0  0  0  0  0  0  0  0  0  0  0
  -16.4587   10.1772  -19.3419 C   0  0  0  0  0  0  0  0  0  0  0  0
  -17.3975   10.4889  -18.4122 C   0  0  0  0  0  0  0  0  0  0  0  0
  -18.4116   11.4091  -18.6727 C   0  0  0  0  0  0  0  0  0  0  0  0
  -18.4090   11.9687  -19.9086 C   0  0  0  0  0  0  0  0  0  0  0  0
  -17.4714   11.6869  -20.9078 C   0  0  0  0  0  0  0  0  0  0  0  0
  -19.3030   11.6958  -17.5387 C   0  0  0  0  0  0  0  0  0  0  0  0
  -19.7725   12.8211  -17.3429 O   0  0  0  0  0  0  0  0  0  0  0  0
  -19.6424   10.6220  -16.6541 N   0  0  0  0  0  0  0  0  0  0  0  0
  -19.1054    9.7174  -16.9198 H   0  0  0  0  0  0  0  0  0  0  0  0
  -20.5171   10.6002  -15.5707 C   0  0  0  0  0  0  0  0  0  0  0  0
  -21.8724   10.4815  -15.8973 C   0  0  0  0  0  0  0  0  0  0  0  0
  -22.8452   10.5667  -14.9321 C   0  0  0  0  0  0  0  0  0  0  0  0
  -22.5092   10.7690  -13.6306 C   0  0  0  0  0  0  0  0  0  0  0  0
  -21.1903   10.8909  -13.2523 C   0  0  0  0  0  0  0  0  0  0  0  0
  -20.2074   10.8015  -14.2510 C   0  0  0  0  0  0  0  0  0  0  0  0
  -20.8809   11.1360  -11.8415 C   0  0  0  0  0  0  0  0  0  0  0  0
  -21.3502   12.3674  -11.4086 F   0  0  0  0  0  0  0  0  0  0  0  0
  -21.4130   10.1439  -11.0288 F   0  0  0  0  0  0  0  0  0  0  0  0
  -19.5056   11.0640  -11.6751 F   0  0  0  0  0  0  0  0  0  0  0  0
  -17.3850   12.3293  -22.1293 N   0  0  0  0  0  0  0  0  0  0  0  0
  -18.1130   11.8909  -22.8751 H   0  0  0  0  0  0  0  0  0  0  0  0
  -16.6902   13.3681  -22.7438 C   0  0  0  0  0  0  0  0  0  0  0  0
  -15.8673   13.0485  -23.8177 N   0  0  0  0  0  0  0  0  0  0  0  0
  -15.5069   14.2121  -24.3539 C   0  0  0  0  0  0  0  0  0  0  0  0
  -14.7368   14.3855  -25.5345 C   0  0  0  0  0  0  0  0  0  0  0  0
  -14.5764   15.6760  -25.9699 C   0  0  0  0  0  0  0  0  0  0  0  0
  -15.1389   16.7442  -25.2841 C   0  0  0  0  0  0  0  0  0  0  0  0
  -15.8600   16.5259  -24.1581 C   0  0  0  0  0  0  0  0  0  0  0  0
  -16.0751   15.2302  -23.6477 C   0  0  0  0  0  0  0  0  0  0  0  0
  -16.8183   14.6826  -22.6362 N   0  0  0  0  0  0  0  0  0  0  0  0
  -17.6048   15.4842  -21.7354 C   0  0  0  0  0  0  0  0  0  0  0  0
  -17.0232   16.5906  -21.0809 C   0  0  0  0  0  0  0  0  0  0  0  0
  -17.8441   17.3376  -20.2049 C   0  0  0  0  0  0  0  0  0  0  0  0
  -17.3293   18.5108  -19.5439 N   0  0  0  0  0  0  0  0  0  0  0  0
  -19.0682   16.9373  -20.0796 N   0  0  0  0  0  0  0  0  0  0  0  0
  -19.6992   15.9074  -20.6635 C   0  0  0  0  0  0  0  0  0  0  0  0
  -18.8614   15.2086  -21.5064 N   0  0  0  0  0  0  0  0  0  0  0  0
  -16.3699   18.5362  -19.2263 H   0  0  0  0  0  0  0  0  0  0  0  0
  -17.9549   19.3371  -19.4187 H   0  0  0  0  0  0  0  0  0  0  0  0
  1  2  1  0  0  0
  2  3  2  0  0  0
  3  4  1  0  0  0
  4  5  2  0  0  0
  5  6  1  0  0  0
  6  7  2  0  0  0
  7 22  1  0  0  0
 22 24  1  0  0  0
 24 25  2  0  0  0
 25 26  1  0  0  0
 26 27  2  0  0  0
 27 28  1  0  0  0
 28 29  2  0  0  0
 29 30  1  0  0  0
 30 31  2  0  0  0
 31 32  1  0  0  0
 32 33  1  0  0  0
 33 34  2  0  0  0
 34 35  1  0  0  0
 35 36  1  0  0  0
 35 37  2  0  0  0
 37 38  1  0  0  0
 38 39  2  0  0  0
  5  8  1  0  0  0
  8  9  2  0  0  0
  8 10  1  0  0  0
 10 12  1  0  0  0
 12 13  2  0  0  0
 13 14  1  0  0  0
 14 15  2  0  0  0
 15 16  1  0  0  0
 16 17  2  0  0  0
 16 18  1  0  0  0
 18 19  1  0  0  0
 18 20  1  0  0  0
 18 21  1  0  0  0
  7  2  1  0  0  0
 32 24  1  0  0  0
 39 33  1  0  0  0
 17 12  1  0  0  0
 31 26  1  0  0  0
 22 23  1  0  0  0
 36 40  1  0  0  0
 36 41  1  0  0  0
 10 11  1  0  0  0
M  END
> <minimizedAffinity>
-10.04648

> <CNNscore>
0.1734595746

> <CNNaffinity>
6.8107786179

> <CNN_VS>
1.1813948154

> <CNNaffinity_variance>
0.1937863231

$$$$
[H]c1nc(N([H])[H])c([H])c(-n2c(N([H])c3c([H])c(C(=O)N([H])c4c([H])c([H])c([H])c(C(F)(F)F)c4[H])c([H])c([H])c3C([H])([H])[H])nc3c([H])c([H])c([H])c([H])c32)n1


 41 45  0  0  0  0  0  0  0  0999 V2000
  -16.1021    9.9875  -20.7060 C   0  0  0  0  0  0  0  0  0  0  0  0
  -17.1572   10.7963  -20.0267 C   0  0  0  0  0  0  0  0  0  0  0  0
  -17.5348   10.4925  -18.7327 C   0  0  0  0  0  0  0  0  0  0  0  0
  -18.5014   11.1918  -18.0849 C   0  0  0  0  0  0  0  0  0  0  0  0
  -19.1638   12.2599  -18.6877 C   0  0  0  0  0  0  0  0  0  0  0  0
  -18.7912   12.5550  -19.9583 C   0  0  0  0  0  0  0  0  0  0  0  0
  -17.8053   11.8712  -20.6777 C   0  0  0  0  0  0  0  0  0  0  0  0
  -20.1283   12.9631  -17.8287 C   0  0  0  0  0  0  0  0  0  0  0  0
  -20.7942   12.3732  -16.9721 O   0  0  0  0  0  0  0  0  0  0  0  0
  -20.2749   14.3785  -17.9902 N   0  0  0  0  0  0  0  0  0  0  0  0
  -19.6731   14.7377  -18.8185 H   0  0  0  0  0  0  0  0  0  0  0  0
  -21.0419   15.2855  -17.2633 C   0  0  0  0  0  0  0  0  0  0  0  0
  -20.3374   16.0517  -16.3283 C   0  0  0  0  0  0  0  0  0  0  0  0
  -20.9913   16.8966  -15.4657 C   0  0  0  0  0  0  0  0  0  0  0  0
  -22.3457   17.0069  -15.5031 C   0  0  0  0  0  0  0  0  0  0  0  0
  -23.0891   16.2776  -16.4048 C   0  0  0  0  0  0  0  0  0  0  0  0
  -22.4057   15.4183  -17.2800 C   0  0  0  0  0  0  0  0  0  0  0  0
  -24.5480   16.4104  -16.3869 C   0  0  0  0  0  0  0  0  0  0  0  0
  -24.9946   17.1347  -15.2915 F   0  0  0  0  0  0  0  0  0  0  0  0
  -25.0131   17.0190  -17.5450 F   0  0  0  0  0  0  0  0  0  0  0  0
  -25.1041   15.1396  -16.3778 F   0  0  0  0  0  0  0  0  0  0  0  0
  -17.3334   12.2278  -21.9276 N   0  0  0  0  0  0  0  0  0  0  0  0
  -17.5705   11.4338  -22.6969 H   0  0  0  0  0  0  0  0  0  0  0  0
  -16.6625   13.2723  -22.5588 C   0  0  0  0  0  0  0  0  0  0  0  0
  -15.7857   12.9485  -23.5880 N   0  0  0  0  0  0  0  0  0  0  0  0
  -15.4571   14.1052  -24.1582 C   0  0  0  0  0  0  0  0  0  0  0  0
  -14.6508   14.2669  -25.3162 C   0  0  0  0  0  0  0  0  0  0  0  0
  -14.5313   15.5451  -25.7983 C   0  0  0  0  0  0  0  0  0  0  0  0
  -15.1665   16.6127  -25.1781 C   0  0  0  0  0  0  0  0  0  0  0  0
  -15.9197   16.4063  -24.0710 C   0  0  0  0  0  0  0  0  0  0  0  0
  -16.0965   15.1233  -23.5158 C   0  0  0  0  0  0  0  0  0  0  0  0
  -16.8528   14.5827  -22.5103 N   0  0  0  0  0  0  0  0  0  0  0  0
  -17.7079   15.3824  -21.6725 C   0  0  0  0  0  0  0  0  0  0  0  0
  -17.2670   15.7909  -20.3960 C   0  0  0  0  0  0  0  0  0  0  0  0
  -18.1524   16.5714  -19.6175 C   0  0  0  0  0  0  0  0  0  0  0  0
  -17.7465   17.0665  -18.3258 N   0  0  0  0  0  0  0  0  0  0  0  0
  -19.2998   16.8452  -20.1492 N   0  0  0  0  0  0  0  0  0  0  0  0
  -19.7939   16.5041  -21.3489 C   0  0  0  0  0  0  0  0  0  0  0  0
  -18.8984   15.7445  -22.0713 N   0  0  0  0  0  0  0  0  0  0  0  0
  -17.1622   16.5015  -17.7247 H   0  0  0  0  0  0  0  0  0  0  0  0
  -18.0471   18.0223  -18.0324 H   0  0  0  0  0  0  0  0  0  0  0  0
  1  2  1  0  0  0
  2  3  2  0  0  0
  3  4  1  0  0  0
  4  5  2  0  0  0
  5  6  1  0  0  0
  6  7  2  0  0  0
  7 22  1  0  0  0
 22 24  1  0  0  0
 24 25  2  0  0  0
 25 26  1  0  0  0
 26 27  2  0  0  0
 27 28  1  0  0  0
 28 29  2  0  0  0
 29 30  1  0  0  0
 30 31  2  0  0  0
 31 32  1  0  0  0
 32 33  1  0  0  0
 33 34  2  0  0  0
 34 35  1  0  0  0
 35 36  1  0  0  0
 35 37  2  0  0  0
 37 38  1  0  0  0
 38 39  2  0  0  0
  5  8  1  0  0  0
  8  9  2  0  0  0
  8 10  1  0  0  0
 10 12  1  0  0  0
 12 13  2  0  0  0
 13 14  1  0  0  0
 14 15  2  0  0  0
 15 16  1  0  0  0
 16 17  2  0  0  0
 16 18  1  0  0  0
 18 19  1  0  0  0
 18 20  1  0  0  0
 18 21  1  0  0  0
  7  2  1  0  0  0
 32 24  1  0  0  0
 39 33  1  0  0  0
 17 12  1  0  0  0
 31 26  1  0  0  0
 22 23  1  0  0  0
 36 40  1  0  0  0
 36 41  1  0  0  0
 10 11  1  0  0  0
M  END
> <minimizedAffinity>
-9.52250

> <CNNscore>
0.1277513802

> <CNNaffinity>
6.8576607704

> <CNN_VS>
0.8760756254

> <CNNaffinity_variance>
0.1600882113

$$$$
[H]c1nc(N([H])[H])c([H])c(-n2c(N([H])c3c([H])c(C(=O)N([H])c4c([H])c([H])c([H])c(C(F)(F)F)c4[H])c([H])c([H])c3C([H])([H])[H])nc3c([H])c([H])c([H])c([H])c32)n1


 41 45  0  0  0  0  0  0  0  0999 V2000
  -15.7893   11.9018  -22.5463 C   0  0  0  0  0  0  0  0  0  0  0  0
  -16.5549   11.5895  -21.3033 C   0  0  0  0  0  0  0  0  0  0  0  0
  -16.4831   10.3270  -20.7463 C   0  0  0  0  0  0  0  0  0  0  0  0
  -17.1763    9.9967  -19.6267 C   0  0  0  0  0  0  0  0  0  0  0  0
  -17.9957   10.9153  -18.9728 C   0  0  0  0  0  0  0  0  0  0  0  0
  -18.0646   12.1536  -19.5228 C   0  0  0  0  0  0  0  0  0  0  0  0
  -17.3769   12.5525  -20.6739 C   0  0  0  0  0  0  0  0  0  0  0  0
  -18.6168   10.4277  -17.7322 C   0  0  0  0  0  0  0  0  0  0  0  0
  -18.1325    9.4985  -17.0786 O   0  0  0  0  0  0  0  0  0  0  0  0
  -19.8092   11.0729  -17.2712 N   0  0  0  0  0  0  0  0  0  0  0  0
  -20.1426   11.8227  -17.9811 H   0  0  0  0  0  0  0  0  0  0  0  0
  -20.5407   10.8689  -16.1039 C   0  0  0  0  0  0  0  0  0  0  0  0
  -20.0820   11.5650  -14.9802 C   0  0  0  0  0  0  0  0  0  0  0  0
  -20.6401   11.3611  -13.7422 C   0  0  0  0  0  0  0  0  0  0  0  0
  -21.6567   10.4731  -13.5821 C   0  0  0  0  0  0  0  0  0  0  0  0
  -22.1489    9.7621  -14.6544 C   0  0  0  0  0  0  0  0  0  0  0  0
  -21.5678    9.9819  -15.9135 C   0  0  0  0  0  0  0  0  0  0  0  0
  -23.2266    8.7965  -14.4255 C   0  0  0  0  0  0  0  0  0  0  0  0
  -23.9226    8.5028  -15.5888 F   0  0  0  0  0  0  0  0  0  0  0  0
  -22.7379    7.6139  -13.8863 F   0  0  0  0  0  0  0  0  0  0  0  0
  -24.0886    9.3189  -13.4725 F   0  0  0  0  0  0  0  0  0  0  0  0
  -17.3449   13.8378  -21.1828 N   0  0  0  0  0  0  0  0  0  0  0  0
  -16.2888   14.2406  -21.2122 H   0  0  0  0  0  0  0  0  0  0  0  0
  -18.2050   14.8071  -21.6930 C   0  0  0  0  0  0  0  0  0  0  0  0
  -19.0829   15.4222  -20.8077 N   0  0  0  0  0  0  0  0  0  0  0  0
  -19.6188   16.4383  -21.4798 C   0  0  0  0  0  0  0  0  0  0  0  0
  -20.5092   17.4115  -20.9534 C   0  0  0  0  0  0  0  0  0  0  0  0
  -20.8521   18.4381  -21.7954 C   0  0  0  0  0  0  0  0  0  0  0  0
  -20.3513   18.5089  -23.0885 C   0  0  0  0  0  0  0  0  0  0  0  0
  -19.5095   17.5508  -23.5454 C   0  0  0  0  0  0  0  0  0  0  0  0
  -19.1049   16.4662  -22.7419 C   0  0  0  0  0  0  0  0  0  0  0  0
  -18.2149   15.4322  -22.8613 N   0  0  0  0  0  0  0  0  0  0  0  0
  -17.4430   15.2126  -24.0564 C   0  0  0  0  0  0  0  0  0  0  0  0
  -16.3431   16.0455  -24.3517 C   0  0  0  0  0  0  0  0  0  0  0  0
  -15.6256   15.7836  -25.5417 C   0  0  0  0  0  0  0  0  0  0  0  0
  -14.4600   16.5622  -25.8782 N   0  0  0  0  0  0  0  0  0  0  0  0
  -16.0446   14.7935  -26.2618 N   0  0  0  0  0  0  0  0  0  0  0  0
  -17.0702   13.9539  -26.0543 C   0  0  0  0  0  0  0  0  0  0  0  0
  -17.7399   14.2472  -24.8854 N   0  0  0  0  0  0  0  0  0  0  0  0
  -14.4286   17.5498  -25.6646 H   0  0  0  0  0  0  0  0  0  0  0  0
  -13.6448   16.0867  -26.3245 H   0  0  0  0  0  0  0  0  0  0  0  0
  1  2  1  0  0  0
  2  3  2  0  0  0
  3  4  1  0  0  0
  4  5  2  0  0  0
  5  6  1  0  0  0
  6  7  2  0  0  0
  7 22  1  0  0  0
 22 24  1  0  0  0
 24 25  2  0  0  0
 25 26  1  0  0  0
 26 27  2  0  0  0
 27 28  1  0  0  0
 28 29  2  0  0  0
 29 30  1  0  0  0
 30 31  2  0  0  0
 31 32  1  0  0  0
 32 33  1  0  0  0
 33 34  2  0  0  0
 34 35  1  0  0  0
 35 36  1  0  0  0
 35 37  2  0  0  0
 37 38  1  0  0  0
 38 39  2  0  0  0
  5  8  1  0  0  0
  8  9  2  0  0  0
  8 10  1  0  0  0
 10 12  1  0  0  0
 12 13  2  0  0  0
 13 14  1  0  0  0
 14 15  2  0  0  0
 15 16  1  0  0  0
 16 17  2  0  0  0
 16 18  1  0  0  0
 18 19  1  0  0  0
 18 20  1  0  0  0
 18 21  1  0  0  0
  7  2  1  0  0  0
 32 24  1  0  0  0
 39 33  1  0  0  0
 17 12  1  0  0  0
 31 26  1  0  0  0
 22 23  1  0  0  0
 36 40  1  0  0  0
 36 41  1  0  0  0
 10 11  1  0  0  0
M  END
> <minimizedAffinity>
-9.56715

> <CNNscore>
0.1242419928

> <CNNaffinity>
6.6617188454

> <CNN_VS>
0.8276652098

> <CNNaffinity_variance>
0.2095672637

$$$$
[H]c1nc(N([H])[H])c([H])c(-n2c(N([H])c3c([H])c(C(=O)N([H])c4c([H])c([H])c([H])c(C(F)(F)F)c4[H])c([H])c([H])c3C([H])([H])[H])nc3c([H])c([H])c([H])c([H])c32)n1


 41 45  0  0  0  0  0  0  0  0999 V2000
  -16.0293   11.4903  -21.7851 C   0  0  0  0  0  0  0  0  0  0  0  0
  -16.8730   11.2838  -20.5709 C   0  0  0  0  0  0  0  0  0  0  0  0
  -16.9175   10.0437  -19.9630 C   0  0  0  0  0  0  0  0  0  0  0  0
  -17.6846    9.8092  -18.8677 C   0  0  0  0  0  0  0  0  0  0  0  0
  -18.4667   10.8087  -18.2914 C   0  0  0  0  0  0  0  0  0  0  0  0
  -18.4214   12.0247  -18.8912 C   0  0  0  0  0  0  0  0  0  0  0  0
  -17.6535   12.3267  -20.0209 C   0  0  0  0  0  0  0  0  0  0  0  0
  -19.1789   10.4174  -17.0657 C   0  0  0  0  0  0  0  0  0  0  0  0
  -20.0891   11.1031  -16.5898 O   0  0  0  0  0  0  0  0  0  0  0  0
  -18.8062    9.1913  -16.4264 N   0  0  0  0  0  0  0  0  0  0  0  0
  -17.9555    8.7382  -16.9247 H   0  0  0  0  0  0  0  0  0  0  0  0
  -19.3648    8.5551  -15.3208 C   0  0  0  0  0  0  0  0  0  0  0  0
  -20.4252    7.6867  -15.6017 C   0  0  0  0  0  0  0  0  0  0  0  0
  -21.1394    7.0888  -14.5928 C   0  0  0  0  0  0  0  0  0  0  0  0
  -20.8284    7.3296  -13.2916 C   0  0  0  0  0  0  0  0  0  0  0  0
  -19.7928    8.1743  -12.9577 C   0  0  0  0  0  0  0  0  0  0  0  0
  -19.0722    8.7778  -14.0006 C   0  0  0  0  0  0  0  0  0  0  0  0
  -19.5147    8.4234  -11.5410 C   0  0  0  0  0  0  0  0  0  0  0  0
  -18.1749    8.6982  -11.3107 F   0  0  0  0  0  0  0  0  0  0  0  0
  -20.2771    9.4774  -11.0553 F   0  0  0  0  0  0  0  0  0  0  0  0
  -19.9050    7.3080  -10.8146 F   0  0  0  0  0  0  0  0  0  0  0  0
  -17.5062   13.5844  -20.5765 N   0  0  0  0  0  0  0  0  0  0  0  0
  -16.4592   13.9816  -20.4196 H   0  0  0  0  0  0  0  0  0  0  0  0
  -18.2379   14.5294  -21.2914 C   0  0  0  0  0  0  0  0  0  0  0  0
  -19.1055   15.3490  -20.5784 N   0  0  0  0  0  0  0  0  0  0  0  0
  -19.5008   16.2870  -21.4358 C   0  0  0  0  0  0  0  0  0  0  0  0
  -20.3252   17.4029  -21.1320 C   0  0  0  0  0  0  0  0  0  0  0  0
  -20.5174   18.3081  -22.1441 C   0  0  0  0  0  0  0  0  0  0  0  0
  -19.9347   18.1303  -23.3918 C   0  0  0  0  0  0  0  0  0  0  0  0
  -19.1614   17.0444  -23.6330 C   0  0  0  0  0  0  0  0  0  0  0  0
  -18.9110   16.0708  -22.6454 C   0  0  0  0  0  0  0  0  0  0  0  0
  -18.1176   14.9598  -22.5388 N   0  0  0  0  0  0  0  0  0  0  0  0
  -17.2989   14.4890  -23.6254 C   0  0  0  0  0  0  0  0  0  0  0  0
  -17.7959   13.5129  -24.5149 C   0  0  0  0  0  0  0  0  0  0  0  0
  -16.9444   13.0868  -25.5601 C   0  0  0  0  0  0  0  0  0  0  0  0
  -17.4067   12.1311  -26.5353 N   0  0  0  0  0  0  0  0  0  0  0  0
  -15.7732   13.6349  -25.6097 N   0  0  0  0  0  0  0  0  0  0  0  0
  -15.2263   14.5665  -24.8141 C   0  0  0  0  0  0  0  0  0  0  0  0
  -16.0905   14.9503  -23.8108 N   0  0  0  0  0  0  0  0  0  0  0  0
  -18.0193   11.3763  -26.2575 H   0  0  0  0  0  0  0  0  0  0  0  0
  -17.1169   12.2437  -27.5318 H   0  0  0  0  0  0  0  0  0  0  0  0
  1  2  1  0  0  0
  2  3  2  0  0  0
  3  4  1  0  0  0
  4  5  2  0  0  0
  5  6  1  0  0  0
  6  7  2  0  0  0
  7 22  1  0  0  0
 22 24  1  0  0  0
 24 25  2  0  0  0
 25 26  1  0  0  0
 26 27  2  0  0  0
 27 28  1  0  0  0
 28 29  2  0  0  0
 29 30  1  0  0  0
 30 31  2  0  0  0
 31 32  1  0  0  0
 32 33  1  0  0  0
 33 34  2  0  0  0
 34 35  1  0  0  0
 35 36  1  0  0  0
 35 37  2  0  0  0
 37 38  1  0  0  0
 38 39  2  0  0  0
  5  8  1  0  0  0
  8  9  2  0  0  0
  8 10  1  0  0  0
 10 12  1  0  0  0
 12 13  2  0  0  0
 13 14  1  0  0  0
 14 15  2  0  0  0
 15 16  1  0  0  0
 16 17  2  0  0  0
 16 18  1  0  0  0
 18 19  1  0  0  0
 18 20  1  0  0  0
 18 21  1  0  0  0
  7  2  1  0  0  0
 32 24  1  0  0  0
 39 33  1  0  0  0
 17 12  1  0  0  0
 31 26  1  0  0  0
 22 23  1  0  0  0
 36 40  1  0  0  0
 36 41  1  0  0  0
 10 11  1  0  0  0
M  END
> <minimizedAffinity>
-9.79861

> <CNNscore>
0.1122221798

> <CNNaffinity>
6.6175713539

> <CNN_VS>
0.7426382899

> <CNNaffinity_variance>
0.1827499717

$$$$
[H]c1nc(N([H])[H])c([H])c(-n2c(N([H])c3c([H])c(C(=O)N([H])c4c([H])c([H])c([H])c(C(F)(F)F)c4[H])c([H])c([H])c3C([H])([H])[H])nc3c([H])c([H])c([H])c([H])c32)n1


 41 45  0  0  0  0  0  0  0  0999 V2000
  -16.3913   10.1320  -20.6498 C   0  0  0  0  0  0  0  0  0  0  0  0
  -17.2256   11.2371  -20.0917 C   0  0  0  0  0  0  0  0  0  0  0  0
  -17.5068   11.2755  -18.7394 C   0  0  0  0  0  0  0  0  0  0  0  0
  -18.2750   12.2531  -18.1943 C   0  0  0  0  0  0  0  0  0  0  0  0
  -18.8192   13.2767  -18.9682 C   0  0  0  0  0  0  0  0  0  0  0  0
  -18.5419   13.2354  -20.2956 C   0  0  0  0  0  0  0  0  0  0  0  0
  -17.7599   12.2548  -20.9152 C   0  0  0  0  0  0  0  0  0  0  0  0
  -19.5623   14.3006  -18.2186 C   0  0  0  0  0  0  0  0  0  0  0  0
  -19.0279   14.9879  -17.3426 O   0  0  0  0  0  0  0  0  0  0  0  0
  -20.9426   14.5079  -18.5388 N   0  0  0  0  0  0  0  0  0  0  0  0
  -21.2800   13.7899  -19.2791 H   0  0  0  0  0  0  0  0  0  0  0  0
  -21.8406   15.4532  -18.0497 C   0  0  0  0  0  0  0  0  0  0  0  0
  -22.4098   15.1523  -16.8075 C   0  0  0  0  0  0  0  0  0  0  0  0
  -23.3970   15.9405  -16.2694 C   0  0  0  0  0  0  0  0  0  0  0  0
  -23.8442   17.0370  -16.9369 C   0  0  0  0  0  0  0  0  0  0  0  0
  -23.3178   17.3814  -18.1624 C   0  0  0  0  0  0  0  0  0  0  0  0
  -22.3091   16.5654  -18.6990 C   0  0  0  0  0  0  0  0  0  0  0  0
  -23.8527   18.5563  -18.8548 C   0  0  0  0  0  0  0  0  0  0  0  0
  -22.8567   19.4547  -19.2081 F   0  0  0  0  0  0  0  0  0  0  0  0
  -24.5528   18.1929  -19.9975 F   0  0  0  0  0  0  0  0  0  0  0  0
  -24.7778   19.1716  -18.0242 F   0  0  0  0  0  0  0  0  0  0  0  0
  -17.3731   12.2593  -22.2428 N   0  0  0  0  0  0  0  0  0  0  0  0
  -17.3806   11.2146  -22.6752 H   0  0  0  0  0  0  0  0  0  0  0  0
  -16.9851   13.1507  -23.2400 C   0  0  0  0  0  0  0  0  0  0  0  0
  -16.6990   12.6295  -24.4967 N   0  0  0  0  0  0  0  0  0  0  0  0
  -16.5787   13.6810  -25.3036 C   0  0  0  0  0  0  0  0  0  0  0  0
  -16.3769   13.6374  -26.7087 C   0  0  0  0  0  0  0  0  0  0  0  0
  -16.3930   14.8433  -27.3614 C   0  0  0  0  0  0  0  0  0  0  0  0
  -16.5940   16.0332  -26.6745 C   0  0  0  0  0  0  0  0  0  0  0  0
  -16.7752   16.0213  -25.3319 C   0  0  0  0  0  0  0  0  0  0  0  0
  -16.7772   14.8243  -24.5885 C   0  0  0  0  0  0  0  0  0  0  0  0
  -17.0327   14.4739  -23.2895 N   0  0  0  0  0  0  0  0  0  0  0  0
  -17.3504   15.4461  -22.2763 C   0  0  0  0  0  0  0  0  0  0  0  0
  -16.3403   15.9307  -21.4187 C   0  0  0  0  0  0  0  0  0  0  0  0
  -16.7136   16.8812  -20.4406 C   0  0  0  0  0  0  0  0  0  0  0  0
  -15.7227   17.4569  -19.5660 N   0  0  0  0  0  0  0  0  0  0  0  0
  -17.9604   17.2264  -20.4180 N   0  0  0  0  0  0  0  0  0  0  0  0
  -18.9779   16.8222  -21.1935 C   0  0  0  0  0  0  0  0  0  0  0  0
  -18.5681   15.8970  -22.1299 N   0  0  0  0  0  0  0  0  0  0  0  0
  -14.9543   16.8942  -19.2272 H   0  0  0  0  0  0  0  0  0  0  0  0
  -15.8002   18.4653  -19.3072 H   0  0  0  0  0  0  0  0  0  0  0  0
  1  2  1  0  0  0
  2  3  2  0  0  0
  3  4  1  0  0  0
  4  5  2  0  0  0
  5  6  1  0  0  0
  6  7  2  0  0  0
  7 22  1  0  0  0
 22 24  1  0  0  0
 24 25  2  0  0  0
 25 26  1  0  0  0
 26 27  2  0  0  0
 27 28  1  0  0  0
 28 29  2  0  0  0
 29 30  1  0  0  0
 30 31  2  0  0  0
 31 32  1  0  0  0
 32 33  1  0  0  0
 33 34  2  0  0  0
 34 35  1  0  0  0
 35 36  1  0  0  0
 35 37  2  0  0  0
 37 38  1  0  0  0
 38 39  2  0  0  0
  5  8  1  0  0  0
  8  9  2  0  0  0
  8 10  1  0  0  0
 10 12  1  0  0  0
 12 13  2  0  0  0
 13 14  1  0  0  0
 14 15  2  0  0  0
 15 16  1  0  0  0
 16 17  2  0  0  0
 16 18  1  0  0  0
 18 19  1  0  0  0
 18 20  1  0  0  0
 18 21  1  0  0  0
  7  2  1  0  0  0
 32 24  1  0  0  0
 39 33  1  0  0  0
 17 12  1  0  0  0
 31 26  1  0  0  0
 22 23  1  0  0  0
 36 40  1  0  0  0
 36 41  1  0  0  0
 10 11  1  0  0  0
M  END
> <minimizedAffinity>
-9.02660

> <CNNscore>
0.1099456251

> <CNNaffinity>
6.8932762146

> <CNN_VS>
0.7578855753

> <CNNaffinity_variance>
0.2544662356

$$$$
[H]c1nc(N([H])[H])c([H])c(-n2c(N([H])c3c([H])c(C(=O)N([H])c4c([H])c([H])c([H])c(C(F)(F)F)c4[H])c([H])c([H])c3C([H])([H])[H])nc3c([H])c([H])c([H])c([H])c32)n1


 41 45  0  0  0  0  0  0  0  0999 V2000
  -16.3310    9.9672  -20.4415 C   0  0  0  0  0  0  0  0  0  0  0  0
  -17.0329   11.2732  -20.6168 C   0  0  0  0  0  0  0  0  0  0  0  0
  -16.6158   12.1563  -21.5942 C   0  0  0  0  0  0  0  0  0  0  0  0
  -17.2154   13.3606  -21.7757 C   0  0  0  0  0  0  0  0  0  0  0  0
  -18.2900   13.7717  -20.9888 C   0  0  0  0  0  0  0  0  0  0  0  0
  -18.6964   12.9027  -20.0295 C   0  0  0  0  0  0  0  0  0  0  0  0
  -18.1184   11.6509  -19.7932 C   0  0  0  0  0  0  0  0  0  0  0  0
  -18.8781   15.0674  -21.3603 C   0  0  0  0  0  0  0  0  0  0  0  0
  -18.6787   15.5850  -22.4637 O   0  0  0  0  0  0  0  0  0  0  0  0
  -19.7207   15.7279  -20.4092 N   0  0  0  0  0  0  0  0  0  0  0  0
  -19.7473   15.1825  -19.4715 H   0  0  0  0  0  0  0  0  0  0  0  0
  -20.4585   16.9024  -20.5339 C   0  0  0  0  0  0  0  0  0  0  0  0
  -19.8574   18.0470  -19.9990 C   0  0  0  0  0  0  0  0  0  0  0  0
  -20.5281   19.2442  -19.9504 C   0  0  0  0  0  0  0  0  0  0  0  0
  -21.7983   19.3425  -20.4244 C   0  0  0  0  0  0  0  0  0  0  0  0
  -22.4377   18.2480  -20.9636 C   0  0  0  0  0  0  0  0  0  0  0  0
  -21.7384   17.0312  -21.0062 C   0  0  0  0  0  0  0  0  0  0  0  0
  -23.8164   18.3982  -21.4355 C   0  0  0  0  0  0  0  0  0  0  0  0
  -24.6737   18.8099  -20.4258 F   0  0  0  0  0  0  0  0  0  0  0  0
  -23.8943   19.3038  -22.4851 F   0  0  0  0  0  0  0  0  0  0  0  0
  -24.2378   17.1821  -21.9531 F   0  0  0  0  0  0  0  0  0  0  0  0
  -18.5896   10.7069  -18.8993 N   0  0  0  0  0  0  0  0  0  0  0  0
  -18.5588    9.6686  -19.3457 H   0  0  0  0  0  0  0  0  0  0  0  0
  -19.0842   10.6181  -17.6004 C   0  0  0  0  0  0  0  0  0  0  0  0
  -19.0021    9.3865  -16.9608 N   0  0  0  0  0  0  0  0  0  0  0  0
  -19.3241    9.6185  -15.6904 C   0  0  0  0  0  0  0  0  0  0  0  0
  -19.2904    8.6707  -14.6333 C   0  0  0  0  0  0  0  0  0  0  0  0
  -19.5558    9.1533  -13.3774 C   0  0  0  0  0  0  0  0  0  0  0  0
  -19.8423   10.4953  -13.1656 C   0  0  0  0  0  0  0  0  0  0  0  0
  -19.8686   11.3584  -14.2096 C   0  0  0  0  0  0  0  0  0  0  0  0
  -19.6025   10.9430  -15.5296 C   0  0  0  0  0  0  0  0  0  0  0  0
  -19.4467   11.5602  -16.7421 N   0  0  0  0  0  0  0  0  0  0  0  0
  -19.6041   12.9813  -16.9105 C   0  0  0  0  0  0  0  0  0  0  0  0
  -20.8784   13.5259  -17.1752 C   0  0  0  0  0  0  0  0  0  0  0  0
  -20.9699   14.9278  -17.3350 C   0  0  0  0  0  0  0  0  0  0  0  0
  -22.2486   15.5560  -17.5554 N   0  0  0  0  0  0  0  0  0  0  0  0
  -19.8665   15.5944  -17.2230 N   0  0  0  0  0  0  0  0  0  0  0  0
  -18.6226   15.1603  -16.9695 C   0  0  0  0  0  0  0  0  0  0  0  0
  -18.5815   13.7901  -16.8224 N   0  0  0  0  0  0  0  0  0  0  0  0
  -22.9512   15.0962  -18.1184 H   0  0  0  0  0  0  0  0  0  0  0  0
  -22.4432   16.4791  -17.1084 H   0  0  0  0  0  0  0  0  0  0  0  0
  1  2  1  0  0  0
  2  3  2  0  0  0
  3  4  1  0  0  0
  4  5  2  0  0  0
  5  6  1  0  0  0
  6  7  2  0  0  0
  7 22  1  0  0  0
 22 24  1  0  0  0
 24 25  2  0  0  0
 25 26  1  0  0  0
 26 27  2  0  0  0
 27 28  1  0  0  0
 28 29  2  0  0  0
 29 30  1  0  0  0
 30 31  2  0  0  0
 31 32  1  0  0  0
 32 33  1  0  0  0
 33 34  2  0  0  0
 34 35  1  0  0  0
 35 36  1  0  0  0
 35 37  2  0  0  0
 37 38  1  0  0  0
 38 39  2  0  0  0
  5  8  1  0  0  0
  8  9  2  0  0  0
  8 10  1  0  0  0
 10 12  1  0  0  0
 12 13  2  0  0  0
 13 14  1  0  0  0
 14 15  2  0  0  0
 15 16  1  0  0  0
 16 17  2  0  0  0
 16 18  1  0  0  0
 18 19  1  0  0  0
 18 20  1  0  0  0
 18 21  1  0  0  0
  7  2  1  0  0  0
 32 24  1  0  0  0
 39 33  1  0  0  0
 17 12  1  0  0  0
 31 26  1  0  0  0
 22 23  1  0  0  0
 36 40  1  0  0  0
 36 41  1  0  0  0
 10 11  1  0  0  0
M  END
> <minimizedAffinity>
-8.73168

> <CNNscore>
0.1094157919

> <CNNaffinity>
6.5895028114

> <CNN_VS>
0.7209956646

> <CNNaffinity_variance>
0.2330000848

$$$$
[H]c1c([H])c([H])c2c(N([H])[H])c(C(=O)N([H])[H])nnc2c1-c1c(C([H])([H])[H])c([H])c2c([H])nn([H])c2c1[H]


 29 32  0  0  0  0  0  0  0  0999 V2000
  -19.7088   13.6179  -18.6618 C   0  0  0  0  0  0  0  0  0  0  0  0
  -20.2565   13.0186  -17.5512 C   0  0  0  0  0  0  0  0  0  0  0  0
  -19.8356   11.7616  -17.1613 C   0  0  0  0  0  0  0  0  0  0  0  0
  -18.8762   11.0748  -17.8501 C   0  0  0  0  0  0  0  0  0  0  0  0
  -18.3361   11.6901  -18.9631 C   0  0  0  0  0  0  0  0  0  0  0  0
  -17.3568   11.0169  -19.6807 C   0  0  0  0  0  0  0  0  0  0  0  0
  -16.9612    9.7295  -19.2389 N   0  0  0  0  0  0  0  0  0  0  0  0
  -16.7984   11.6079  -20.7921 C   0  0  0  0  0  0  0  0  0  0  0  0
  -17.2263   12.8225  -21.1417 N   0  0  0  0  0  0  0  0  0  0  0  0
  -18.1555   13.4877  -20.4803 N   0  0  0  0  0  0  0  0  0  0  0  0
  -18.7391   12.9433  -19.3717 C   0  0  0  0  0  0  0  0  0  0  0  0
  -16.0286    9.6365  -18.7834 H   0  0  0  0  0  0  0  0  0  0  0  0
  -17.5372    8.8719  -19.3375 H   0  0  0  0  0  0  0  0  0  0  0  0
  -18.2165   15.9713  -17.8155 C   0  0  0  0  0  0  0  0  0  0  0  0
  -19.4335   16.0223  -18.6844 C   0  0  0  0  0  0  0  0  0  0  0  0
  -19.8769   17.2823  -19.1077 C   0  0  0  0  0  0  0  0  0  0  0  0
  -20.9820   17.4057  -19.9180 C   0  0  0  0  0  0  0  0  0  0  0  0
  -21.6465   18.4634  -20.4845 C   0  0  0  0  0  0  0  0  0  0  0  0
  -22.6777   17.9286  -21.1872 N   0  0  0  0  0  0  0  0  0  0  0  0
  -22.7007   16.6198  -21.0980 N   0  0  0  0  0  0  0  0  0  0  0  0
  -21.6630   16.2711  -20.3188 C   0  0  0  0  0  0  0  0  0  0  0  0
  -21.2592   15.0142  -19.9244 C   0  0  0  0  0  0  0  0  0  0  0  0
  -20.1466   14.9240  -19.1112 C   0  0  0  0  0  0  0  0  0  0  0  0
  -23.4127   15.9851  -21.5619 H   0  0  0  0  0  0  0  0  0  0  0  0
  -15.7792   10.8791  -21.5243 C   0  0  0  0  0  0  0  0  0  0  0  0
  -15.2143   11.3827  -22.7379 N   0  0  0  0  0  0  0  0  0  0  0  0
  -15.3532    9.7746  -21.1189 O   0  0  0  0  0  0  0  0  0  0  0  0
  -15.7625   12.1150  -23.2386 H   0  0  0  0  0  0  0  0  0  0  0  0
  -14.3093   11.0600  -23.1282 H   0  0  0  0  0  0  0  0  0  0  0  0
 14 15  1  0  0  0
 15 16  2  0  0  0
 16 17  1  0  0  0
 17 18  1  0  0  0
 18 19  2  0  0  0
 19 20  1  0  0  0
 20 21  1  0  0  0
 21 22  1  0  0  0
 22 23  2  0  0  0
 23  1  1  0  0  0
  1  2  2  0  0  0
  2  3  1  0  0  0
  3  4  2  0  0  0
  4  5  1  0  0  0
  5  6  2  0  0  0
  6  7  1  0  0  0
  6  8  1  0  0  0
  8  9  2  0  0  0
  9 10  1  0  0  0
 10 11  2  0  0  0
  8 25  1  0  0  0
 25 26  1  0  0  0
 25 27  2  0  0  0
 23 15  1  0  0  0
 11  1  1  0  0  0
 21 17  2  0  0  0
 11  5  1  0  0  0
 20 24  1  0  0  0
  7 12  1  0  0  0
  7 13  1  0  0  0
 26 28  1  0  0  0
 26 29  1  0  0  0
M  END
> <minimizedAffinity>
-7.72358

> <CNNscore>
0.9118496776

> <CNNaffinity>
6.6205153465

> <CNN_VS>
6.0369148254

> <CNNaffinity_variance>
0.1188974753

$$$$
[H]c1c([H])c([H])c2c(N([H])[H])c(C(=O)N([H])[H])nnc2c1-c1c(C([H])([H])[H])c([H])c2c([H])nn([H])c2c1[H]


 29 32  0  0  0  0  0  0  0  0999 V2000
  -19.4306   11.5752  -17.4839 C   0  0  0  0  0  0  0  0  0  0  0  0
  -20.0105   12.7283  -17.0077 C   0  0  0  0  0  0  0  0  0  0  0  0
  -20.8252   12.6869  -15.8924 C   0  0  0  0  0  0  0  0  0  0  0  0
  -21.0836   11.5207  -15.2291 C   0  0  0  0  0  0  0  0  0  0  0  0
  -20.4939   10.3715  -15.7198 C   0  0  0  0  0  0  0  0  0  0  0  0
  -20.7361    9.1723  -15.0640 C   0  0  0  0  0  0  0  0  0  0  0  0
  -21.5798    9.1843  -13.9250 N   0  0  0  0  0  0  0  0  0  0  0  0
  -20.1585    8.0120  -15.5290 C   0  0  0  0  0  0  0  0  0  0  0  0
  -19.3766    8.0860  -16.6078 N   0  0  0  0  0  0  0  0  0  0  0  0
  -19.1273    9.2107  -17.2531 N   0  0  0  0  0  0  0  0  0  0  0  0
  -19.6774   10.3873  -16.8302 C   0  0  0  0  0  0  0  0  0  0  0  0
  -21.1363    9.0650  -12.9895 H   0  0  0  0  0  0  0  0  0  0  0  0
  -22.6101    9.3042  -13.9582 H   0  0  0  0  0  0  0  0  0  0  0  0
  -20.1053   13.3657  -19.6795 C   0  0  0  0  0  0  0  0  0  0  0  0
  -18.9416   12.4254  -19.6965 C   0  0  0  0  0  0  0  0  0  0  0  0
  -18.1365   12.4091  -20.8433 C   0  0  0  0  0  0  0  0  0  0  0  0
  -17.0425   11.5790  -20.9254 C   0  0  0  0  0  0  0  0  0  0  0  0
  -16.0876   11.3370  -21.8798 C   0  0  0  0  0  0  0  0  0  0  0  0
  -15.2639   10.3920  -21.3586 N   0  0  0  0  0  0  0  0  0  0  0  0
  -15.6375   10.0316  -20.1536 N   0  0  0  0  0  0  0  0  0  0  0  0
  -16.7346   10.7504  -19.8622 C   0  0  0  0  0  0  0  0  0  0  0  0
  -17.5010   10.7365  -18.7171 C   0  0  0  0  0  0  0  0  0  0  0  0
  -18.5923   11.5813  -18.6658 C   0  0  0  0  0  0  0  0  0  0  0  0
  -15.1487    9.3097  -19.5494 H   0  0  0  0  0  0  0  0  0  0  0  0
  -20.4324    6.7728  -14.8250 C   0  0  0  0  0  0  0  0  0  0  0  0
  -19.3883    5.8719  -14.4458 N   0  0  0  0  0  0  0  0  0  0  0  0
  -21.6006    6.4432  -14.5212 O   0  0  0  0  0  0  0  0  0  0  0  0
  -18.4815    5.9701  -14.9513 H   0  0  0  0  0  0  0  0  0  0  0  0
  -19.4926    5.1476  -13.7110 H   0  0  0  0  0  0  0  0  0  0  0  0
 14 15  1  0  0  0
 15 16  2  0  0  0
 16 17  1  0  0  0
 17 18  1  0  0  0
 18 19  2  0  0  0
 19 20  1  0  0  0
 20 21  1  0  0  0
 21 22  1  0  0  0
 22 23  2  0  0  0
 23  1  1  0  0  0
  1  2  2  0  0  0
  2  3  1  0  0  0
  3  4  2  0  0  0
  4  5  1  0  0  0
  5  6  2  0  0  0
  6  7  1  0  0  0
  6  8  1  0  0  0
  8  9  2  0  0  0
  9 10  1  0  0  0
 10 11  2  0  0  0
  8 25  1  0  0  0
 25 26  1  0  0  0
 25 27  2  0  0  0
 23 15  1  0  0  0
 11  1  1  0  0  0
 21 17  2  0  0  0
 11  5  1  0  0  0
 20 24  1  0  0  0
  7 12  1  0  0  0
  7 13  1  0  0  0
 26 28  1  0  0  0
 26 29  1  0  0  0
M  END
> <minimizedAffinity>
-8.62080

> <CNNscore>
0.8128190041

> <CNNaffinity>
6.2458257675

> <CNN_VS>
5.0767259598

> <CNNaffinity_variance>
0.1116017476

$$$$
[H]c1c([H])c([H])c2c(N([H])[H])c(C(=O)N([H])[H])nnc2c1-c1c(C([H])([H])[H])c([H])c2c([H])nn([H])c2c1[H]


 29 32  0  0  0  0  0  0  0  0999 V2000
  -17.9729   14.9297  -22.8339 C   0  0  0  0  0  0  0  0  0  0  0  0
  -18.9483   15.8417  -22.5032 C   0  0  0  0  0  0  0  0  0  0  0  0
  -19.6479   15.7120  -21.3187 C   0  0  0  0  0  0  0  0  0  0  0  0
  -19.4044   14.6915  -20.4436 C   0  0  0  0  0  0  0  0  0  0  0  0
  -18.4219   13.7838  -20.7902 C   0  0  0  0  0  0  0  0  0  0  0  0
  -18.1507   12.7381  -19.9183 C   0  0  0  0  0  0  0  0  0  0  0  0
  -18.8975   12.6502  -18.7167 N   0  0  0  0  0  0  0  0  0  0  0  0
  -17.1742   11.8209  -20.2366 C   0  0  0  0  0  0  0  0  0  0  0  0
  -16.5166   11.9747  -21.3874 N   0  0  0  0  0  0  0  0  0  0  0  0
  -16.7515   12.9578  -22.2370 N   0  0  0  0  0  0  0  0  0  0  0  0
  -17.7104   13.8921  -21.9656 C   0  0  0  0  0  0  0  0  0  0  0  0
  -18.4167   12.8970  -17.8257 H   0  0  0  0  0  0  0  0  0  0  0  0
  -19.8915   12.3570  -18.6629 H   0  0  0  0  0  0  0  0  0  0  0  0
  -18.7684   13.2372  -25.0665 C   0  0  0  0  0  0  0  0  0  0  0  0
  -17.6251   14.2013  -25.1155 C   0  0  0  0  0  0  0  0  0  0  0  0
  -16.8968   14.2847  -26.3097 C   0  0  0  0  0  0  0  0  0  0  0  0
  -15.8402   15.1573  -26.4320 C   0  0  0  0  0  0  0  0  0  0  0  0
  -14.9574   15.4649  -27.4357 C   0  0  0  0  0  0  0  0  0  0  0  0
  -14.1348   16.4217  -26.9348 N   0  0  0  0  0  0  0  0  0  0  0  0
  -14.4426   16.7290  -25.6969 N   0  0  0  0  0  0  0  0  0  0  0  0
  -15.4933   15.9615  -25.3621 C   0  0  0  0  0  0  0  0  0  0  0  0
  -16.1841   15.9095  -24.1710 C   0  0  0  0  0  0  0  0  0  0  0  0
  -17.2394   15.0234  -24.0800 C   0  0  0  0  0  0  0  0  0  0  0  0
  -13.9413   17.4485  -25.1000 H   0  0  0  0  0  0  0  0  0  0  0  0
  -16.9148   10.7366  -19.3076 C   0  0  0  0  0  0  0  0  0  0  0  0
  -15.7575   10.7211  -18.4675 N   0  0  0  0  0  0  0  0  0  0  0  0
  -17.6994    9.7671  -19.2059 O   0  0  0  0  0  0  0  0  0  0  0  0
  -14.9640   11.3333  -18.7558 H   0  0  0  0  0  0  0  0  0  0  0  0
  -15.6775   10.1444  -17.6094 H   0  0  0  0  0  0  0  0  0  0  0  0
 14 15  1  0  0  0
 15 16  2  0  0  0
 16 17  1  0  0  0
 17 18  1  0  0  0
 18 19  2  0  0  0
 19 20  1  0  0  0
 20 21  1  0  0  0
 21 22  1  0  0  0
 22 23  2  0  0  0
 23  1  1  0  0  0
  1  2  2  0  0  0
  2  3  1  0  0  0
  3  4  2  0  0  0
  4  5  1  0  0  0
  5  6  2  0  0  0
  6  7  1  0  0  0
  6  8  1  0  0  0
  8  9  2  0  0  0
  9 10  1  0  0  0
 10 11  2  0  0  0
  8 25  1  0  0  0
 25 26  1  0  0  0
 25 27  2  0  0  0
 23 15  1  0  0  0
 11  1  1  0  0  0
 21 17  2  0  0  0
 11  5  1  0  0  0
 20 24  1  0  0  0
  7 12  1  0  0  0
  7 13  1  0  0  0
 26 28  1  0  0  0
 26 29  1  0  0  0
M  END
> <minimizedAffinity>
-7.76674

> <CNNscore>
0.6043978930

> <CNNaffinity>
6.6908559799

> <CNN_VS>
4.0439391136

> <CNNaffinity_variance>
0.1893566549

$$$$
[H]c1c([H])c([H])c2c(N([H])[H])c(C(=O)N([H])[H])nnc2c1-c1c(C([H])([H])[H])c([H])c2c([H])nn([H])c2c1[H]


 29 32  0  0  0  0  0  0  0  0999 V2000
  -16.8539   15.6156  -23.4218 C   0  0  0  0  0  0  0  0  0  0  0  0
  -15.9702   15.8282  -24.4545 C   0  0  0  0  0  0  0  0  0  0  0  0
  -15.0613   14.8479  -24.8041 C   0  0  0  0  0  0  0  0  0  0  0  0
  -15.0038   13.6495  -24.1506 C   0  0  0  0  0  0  0  0  0  0  0  0
  -15.8978   13.4514  -23.1158 C   0  0  0  0  0  0  0  0  0  0  0  0
  -15.8644   12.2416  -22.4358 C   0  0  0  0  0  0  0  0  0  0  0  0
  -14.9123   11.2698  -22.8336 N   0  0  0  0  0  0  0  0  0  0  0  0
  -16.7463   12.0156  -21.4027 C   0  0  0  0  0  0  0  0  0  0  0  0
  -17.6117   12.9821  -21.0903 N   0  0  0  0  0  0  0  0  0  0  0  0
  -17.6679   14.1426  -21.7176 N   0  0  0  0  0  0  0  0  0  0  0  0
  -16.8138   14.4136  -22.7487 C   0  0  0  0  0  0  0  0  0  0  0  0
  -15.2575   10.4333  -23.3504 H   0  0  0  0  0  0  0  0  0  0  0  0
  -13.8937   11.3340  -22.6458 H   0  0  0  0  0  0  0  0  0  0  0  0
  -16.1520   17.3952  -21.2258 C   0  0  0  0  0  0  0  0  0  0  0  0
  -17.4527   17.4517  -21.9632 C   0  0  0  0  0  0  0  0  0  0  0  0
  -18.3844   18.4190  -21.5634 C   0  0  0  0  0  0  0  0  0  0  0  0
  -19.5967   18.5377  -22.2030 C   0  0  0  0  0  0  0  0  0  0  0  0
  -20.6873   19.3559  -22.0539 C   0  0  0  0  0  0  0  0  0  0  0  0
  -21.5794   18.9725  -23.0028 N   0  0  0  0  0  0  0  0  0  0  0  0
  -21.1224   17.9787  -23.7274 N   0  0  0  0  0  0  0  0  0  0  0  0
  -19.8985   17.6908  -23.2535 C   0  0  0  0  0  0  0  0  0  0  0  0
  -19.0098   16.7267  -23.6769 C   0  0  0  0  0  0  0  0  0  0  0  0
  -17.8018   16.6330  -23.0143 C   0  0  0  0  0  0  0  0  0  0  0  0
  -21.6408   17.5125  -24.5267 H   0  0  0  0  0  0  0  0  0  0  0  0
  -16.6861   10.7428  -20.7080 C   0  0  0  0  0  0  0  0  0  0  0  0
  -16.1058   10.6184  -19.4067 N   0  0  0  0  0  0  0  0  0  0  0  0
  -17.1424    9.6987  -21.2250 O   0  0  0  0  0  0  0  0  0  0  0  0
  -15.4607   11.3817  -19.1091 H   0  0  0  0  0  0  0  0  0  0  0  0
  -16.2949    9.8249  -18.7664 H   0  0  0  0  0  0  0  0  0  0  0  0
 14 15  1  0  0  0
 15 16  2  0  0  0
 16 17  1  0  0  0
 17 18  1  0  0  0
 18 19  2  0  0  0
 19 20  1  0  0  0
 20 21  1  0  0  0
 21 22  1  0  0  0
 22 23  2  0  0  0
 23  1  1  0  0  0
  1  2  2  0  0  0
  2  3  1  0  0  0
  3  4  2  0  0  0
  4  5  1  0  0  0
  5  6  2  0  0  0
  6  7  1  0  0  0
  6  8  1  0  0  0
  8  9  2  0  0  0
  9 10  1  0  0  0
 10 11  2  0  0  0
  8 25  1  0  0  0
 25 26  1  0  0  0
 25 27  2  0  0  0
 23 15  1  0  0  0
 11  1  1  0  0  0
 21 17  2  0  0  0
 11  5  1  0  0  0
 20 24  1  0  0  0
  7 12  1  0  0  0
  7 13  1  0  0  0
 26 28  1  0  0  0
 26 29  1  0  0  0
M  END
> <minimizedAffinity>
-7.82144

> <CNNscore>
0.5957165956

> <CNNaffinity>
6.6872701645

> <CNN_VS>
3.9837179184

> <CNNaffinity_variance>
0.3027730584

$$$$
[H]c1c([H])c([H])c2c(N([H])[H])c(C(=O)N([H])[H])nnc2c1-c1c(C([H])([H])[H])c([H])c2c([H])nn([H])c2c1[H]


 29 32  0  0  0  0  0  0  0  0999 V2000
  -17.3242   14.5498  -21.2221 C   0  0  0  0  0  0  0  0  0  0  0  0
  -16.8465   15.7646  -20.7875 C   0  0  0  0  0  0  0  0  0  0  0  0
  -16.2957   16.6568  -21.6874 C   0  0  0  0  0  0  0  0  0  0  0  0
  -16.2044   16.3745  -23.0210 C   0  0  0  0  0  0  0  0  0  0  0  0
  -16.6885   15.1506  -23.4416 C   0  0  0  0  0  0  0  0  0  0  0  0
  -16.6118   14.8379  -24.7920 C   0  0  0  0  0  0  0  0  0  0  0  0
  -16.0371   15.7879  -25.6732 N   0  0  0  0  0  0  0  0  0  0  0  0
  -17.0899   13.6267  -25.2397 C   0  0  0  0  0  0  0  0  0  0  0  0
  -17.6163   12.7878  -24.3454 N   0  0  0  0  0  0  0  0  0  0  0  0
  -17.7031   13.0560  -23.0554 N   0  0  0  0  0  0  0  0  0  0  0  0
  -17.2425   14.2441  -22.5634 C   0  0  0  0  0  0  0  0  0  0  0  0
  -16.6757   16.3090  -26.3108 H   0  0  0  0  0  0  0  0  0  0  0  0
  -15.0228   16.0009  -25.7271 H   0  0  0  0  0  0  0  0  0  0  0  0
  -19.9933   15.0072  -20.1503 C   0  0  0  0  0  0  0  0  0  0  0  0
  -19.1414   13.8294  -19.7952 C   0  0  0  0  0  0  0  0  0  0  0  0
  -19.6658   12.8984  -18.8886 C   0  0  0  0  0  0  0  0  0  0  0  0
  -18.9445   11.7848  -18.5247 C   0  0  0  0  0  0  0  0  0  0  0  0
  -19.1719   10.7223  -17.6877 C   0  0  0  0  0  0  0  0  0  0  0  0
  -18.0619    9.9436  -17.7561 N   0  0  0  0  0  0  0  0  0  0  0  0
  -17.1653   10.4447  -18.5725 N   0  0  0  0  0  0  0  0  0  0  0  0
  -17.6861   11.5830  -19.0608 C   0  0  0  0  0  0  0  0  0  0  0  0
  -17.1350   12.4746  -19.9551 C   0  0  0  0  0  0  0  0  0  0  0  0
  -17.8841   13.5823  -20.3001 C   0  0  0  0  0  0  0  0  0  0  0  0
  -16.2204   10.0129  -18.7867 H   0  0  0  0  0  0  0  0  0  0  0  0
  -16.9934   13.3260  -26.6561 C   0  0  0  0  0  0  0  0  0  0  0  0
  -17.1804   12.0015  -27.1625 N   0  0  0  0  0  0  0  0  0  0  0  0
  -16.7409   14.2204  -27.4941 O   0  0  0  0  0  0  0  0  0  0  0  0
  -17.0779   11.2219  -26.4775 H   0  0  0  0  0  0  0  0  0  0  0  0
  -17.4074   11.7910  -28.1522 H   0  0  0  0  0  0  0  0  0  0  0  0
 14 15  1  0  0  0
 15 16  2  0  0  0
 16 17  1  0  0  0
 17 18  1  0  0  0
 18 19  2  0  0  0
 19 20  1  0  0  0
 20 21  1  0  0  0
 21 22  1  0  0  0
 22 23  2  0  0  0
 23  1  1  0  0  0
  1  2  2  0  0  0
  2  3  1  0  0  0
  3  4  2  0  0  0
  4  5  1  0  0  0
  5  6  2  0  0  0
  6  7  1  0  0  0
  6  8  1  0  0  0
  8  9  2  0  0  0
  9 10  1  0  0  0
 10 11  2  0  0  0
  8 25  1  0  0  0
 25 26  1  0  0  0
 25 27  2  0  0  0
 23 15  1  0  0  0
 11  1  1  0  0  0
 21 17  2  0  0  0
 11  5  1  0  0  0
 20 24  1  0  0  0
  7 12  1  0  0  0
  7 13  1  0  0  0
 26 28  1  0  0  0
 26 29  1  0  0  0
M  END
> <minimizedAffinity>
-9.12457

> <CNNscore>
0.5301395655

> <CNNaffinity>
6.6783990860

> <CNN_VS>
3.5404834747

> <CNNaffinity_variance>
0.1851042807

$$$$
[H]c1c([H])c([H])c2c(N([H])[H])c(C(=O)N([H])[H])nnc2c1-c1c(C([H])([H])[H])c([H])c2c([H])nn([H])c2c1[H]


 29 32  0  0  0  0  0  0  0  0999 V2000
  -16.5496   15.6827  -22.7152 C   0  0  0  0  0  0  0  0  0  0  0  0
  -15.6804   15.9711  -23.7419 C   0  0  0  0  0  0  0  0  0  0  0  0
  -14.8669   14.9827  -24.2618 C   0  0  0  0  0  0  0  0  0  0  0  0
  -14.8916   13.7021  -23.7865 C   0  0  0  0  0  0  0  0  0  0  0  0
  -15.7697   13.4284  -22.7553 C   0  0  0  0  0  0  0  0  0  0  0  0
  -15.8186   12.1347  -22.2544 C   0  0  0  0  0  0  0  0  0  0  0  0
  -14.9626   11.1581  -22.8225 N   0  0  0  0  0  0  0  0  0  0  0  0
  -16.6870   11.8328  -21.2293 C   0  0  0  0  0  0  0  0  0  0  0  0
  -17.4594   12.8096  -20.7498 N   0  0  0  0  0  0  0  0  0  0  0  0
  -17.4359   14.0490  -21.2046 N   0  0  0  0  0  0  0  0  0  0  0  0
  -16.5914   14.3971  -22.2203 C   0  0  0  0  0  0  0  0  0  0  0  0
  -15.3908   10.4343  -23.4379 H   0  0  0  0  0  0  0  0  0  0  0  0
  -13.9373   11.1142  -22.6681 H   0  0  0  0  0  0  0  0  0  0  0  0
  -19.0869   16.3098  -23.9999 C   0  0  0  0  0  0  0  0  0  0  0  0
  -18.5846   16.9917  -22.7665 C   0  0  0  0  0  0  0  0  0  0  0  0
  -19.3876   17.9937  -22.2056 C   0  0  0  0  0  0  0  0  0  0  0  0
  -18.9959   18.6557  -21.0649 C   0  0  0  0  0  0  0  0  0  0  0  0
  -19.5403   19.6521  -20.2956 C   0  0  0  0  0  0  0  0  0  0  0  0
  -18.6590   19.8747  -19.2872 N   0  0  0  0  0  0  0  0  0  0  0  0
  -17.6106   19.0907  -19.3750 N   0  0  0  0  0  0  0  0  0  0  0  0
  -17.7940   18.3274  -20.4654 C   0  0  0  0  0  0  0  0  0  0  0  0
  -16.9758   17.3484  -20.9856 C   0  0  0  0  0  0  0  0  0  0  0  0
  -17.3972   16.7026  -22.1313 C   0  0  0  0  0  0  0  0  0  0  0  0
  -16.7916   19.0829  -18.7011 H   0  0  0  0  0  0  0  0  0  0  0  0
  -16.7140   10.4728  -20.7237 C   0  0  0  0  0  0  0  0  0  0  0  0
  -16.2875   10.1505  -19.3971 N   0  0  0  0  0  0  0  0  0  0  0  0
  -17.1139    9.5237  -21.4344 O   0  0  0  0  0  0  0  0  0  0  0  0
  -15.6765   10.8490  -18.9214 H   0  0  0  0  0  0  0  0  0  0  0  0
  -16.5533    9.2780  -18.9037 H   0  0  0  0  0  0  0  0  0  0  0  0
 14 15  1  0  0  0
 15 16  2  0  0  0
 16 17  1  0  0  0
 17 18  1  0  0  0
 18 19  2  0  0  0
 19 20  1  0  0  0
 20 21  1  0  0  0
 21 22  1  0  0  0
 22 23  2  0  0  0
 23  1  1  0  0  0
  1  2  2  0  0  0
  2  3  1  0  0  0
  3  4  2  0  0  0
  4  5  1  0  0  0
  5  6  2  0  0  0
  6  7  1  0  0  0
  6  8  1  0  0  0
  8  9  2  0  0  0
  9 10  1  0  0  0
 10 11  2  0  0  0
  8 25  1  0  0  0
 25 26  1  0  0  0
 25 27  2  0  0  0
 23 15  1  0  0  0
 11  1  1  0  0  0
 21 17  2  0  0  0
 11  5  1  0  0  0
 20 24  1  0  0  0
  7 12  1  0  0  0
  7 13  1  0  0  0
 26 28  1  0  0  0
 26 29  1  0  0  0
M  END
> <minimizedAffinity>
-7.48436

> <CNNscore>
0.5246063471

> <CNNaffinity>
6.5398597717

> <CNN_VS>
3.4308519363

> <CNNaffinity_variance>
0.1887861192

$$$$
[H]c1c([H])c([H])c2c(N([H])[H])c(C(=O)N([H])[H])nnc2c1-c1c(C([H])([H])[H])c([H])c2c([H])nn([H])c2c1[H]


 29 32  0  0  0  0  0  0  0  0999 V2000
  -16.6530   12.7079  -22.7492 C   0  0  0  0  0  0  0  0  0  0  0  0
  -16.0000   11.5358  -22.4453 C   0  0  0  0  0  0  0  0  0  0  0  0
  -16.2783   10.8709  -21.2664 C   0  0  0  0  0  0  0  0  0  0  0  0
  -17.1963   11.3415  -20.3707 C   0  0  0  0  0  0  0  0  0  0  0  0
  -17.8435   12.5197  -20.6903 C   0  0  0  0  0  0  0  0  0  0  0  0
  -18.7839   13.0199  -19.8001 C   0  0  0  0  0  0  0  0  0  0  0  0
  -19.0318   12.2997  -18.6047 N   0  0  0  0  0  0  0  0  0  0  0  0
  -19.4468   14.1904  -20.0949 C   0  0  0  0  0  0  0  0  0  0  0  0
  -19.1555   14.8077  -21.2414 N   0  0  0  0  0  0  0  0  0  0  0  0
  -18.2667   14.3575  -22.1078 N   0  0  0  0  0  0  0  0  0  0  0  0
  -17.5834   13.2009  -21.8600 C   0  0  0  0  0  0  0  0  0  0  0  0
  -19.9294   11.7758  -18.5294 H   0  0  0  0  0  0  0  0  0  0  0  0
  -18.3800   12.2577  -17.7982 H   0  0  0  0  0  0  0  0  0  0  0  0
  -18.3217   12.2589  -25.0935 C   0  0  0  0  0  0  0  0  0  0  0  0
  -17.1590   13.2003  -25.0641 C   0  0  0  0  0  0  0  0  0  0  0  0
  -16.8600   13.9000  -26.2408 C   0  0  0  0  0  0  0  0  0  0  0  0
  -15.8129   14.7913  -26.2848 C   0  0  0  0  0  0  0  0  0  0  0  0
  -15.2815   15.6046  -27.2529 C   0  0  0  0  0  0  0  0  0  0  0  0
  -14.2392   16.2520  -26.6719 N   0  0  0  0  0  0  0  0  0  0  0  0
  -14.0862   15.9002  -25.4171 N   0  0  0  0  0  0  0  0  0  0  0  0
  -15.0462   14.9981  -25.1529 C   0  0  0  0  0  0  0  0  0  0  0  0
  -15.3075   14.3299  -23.9765 C   0  0  0  0  0  0  0  0  0  0  0  0
  -16.3653   13.4421  -23.9648 C   0  0  0  0  0  0  0  0  0  0  0  0
  -13.3399   16.2724  -24.7617 H   0  0  0  0  0  0  0  0  0  0  0  0
  -20.4221   14.6910  -19.1440 C   0  0  0  0  0  0  0  0  0  0  0  0
  -20.1759   15.8548  -18.3500 N   0  0  0  0  0  0  0  0  0  0  0  0
  -21.5232   14.1191  -18.9814 O   0  0  0  0  0  0  0  0  0  0  0  0
  -19.1798   16.1447  -18.2442 H   0  0  0  0  0  0  0  0  0  0  0  0
  -20.9242   16.4058  -17.8898 H   0  0  0  0  0  0  0  0  0  0  0  0
 14 15  1  0  0  0
 15 16  2  0  0  0
 16 17  1  0  0  0
 17 18  1  0  0  0
 18 19  2  0  0  0
 19 20  1  0  0  0
 20 21  1  0  0  0
 21 22  1  0  0  0
 22 23  2  0  0  0
 23  1  1  0  0  0
  1  2  2  0  0  0
  2  3  1  0  0  0
  3  4  2  0  0  0
  4  5  1  0  0  0
  5  6  2  0  0  0
  6  7  1  0  0  0
  6  8  1  0  0  0
  8  9  2  0  0  0
  9 10  1  0  0  0
 10 11  2  0  0  0
  8 25  1  0  0  0
 25 26  1  0  0  0
 25 27  2  0  0  0
 23 15  1  0  0  0
 11  1  1  0  0  0
 21 17  2  0  0  0
 11  5  1  0  0  0
 20 24  1  0  0  0
  7 12  1  0  0  0
  7 13  1  0  0  0
 26 28  1  0  0  0
 26 29  1  0  0  0
M  END
> <minimizedAffinity>
-8.69362

> <CNNscore>
0.4761857390

> <CNNaffinity>
6.5353269577

> <CNN_VS>
3.1120295525

> <CNNaffinity_variance>
0.0999846756

$$$$
[H]c1c([H])c([H])c2c(N([H])[H])c(C(=O)N([H])[H])nnc2c1-c1c(C([H])([H])[H])c([H])c2c([H])nn([H])c2c1[H]


 29 32  0  0  0  0  0  0  0  0999 V2000
  -19.8486   14.4263  -19.9702 C   0  0  0  0  0  0  0  0  0  0  0  0
  -21.1559   14.2278  -19.5905 C   0  0  0  0  0  0  0  0  0  0  0  0
  -22.0977   15.2173  -19.7982 C   0  0  0  0  0  0  0  0  0  0  0  0
  -21.7753   16.4115  -20.3782 C   0  0  0  0  0  0  0  0  0  0  0  0
  -20.4584   16.5956  -20.7538 C   0  0  0  0  0  0  0  0  0  0  0  0
  -20.1025   17.7983  -21.3487 C   0  0  0  0  0  0  0  0  0  0  0  0
  -21.1066   18.7807  -21.5383 N   0  0  0  0  0  0  0  0  0  0  0  0
  -18.7978   18.0075  -21.7364 C   0  0  0  0  0  0  0  0  0  0  0  0
  -17.9129   17.0319  -21.5224 N   0  0  0  0  0  0  0  0  0  0  0  0
  -18.2203   15.8779  -20.9592 N   0  0  0  0  0  0  0  0  0  0  0  0
  -19.5009   15.6236  -20.5575 C   0  0  0  0  0  0  0  0  0  0  0  0
  -21.4517   18.9429  -22.5081 H   0  0  0  0  0  0  0  0  0  0  0  0
  -21.5226   19.3501  -20.7770 H   0  0  0  0  0  0  0  0  0  0  0  0
  -18.7401   14.1230  -17.2943 C   0  0  0  0  0  0  0  0  0  0  0  0
  -18.3129   13.3057  -18.4725 C   0  0  0  0  0  0  0  0  0  0  0  0
  -17.3163   12.3423  -18.2676 C   0  0  0  0  0  0  0  0  0  0  0  0
  -16.8818   11.5457  -19.3018 C   0  0  0  0  0  0  0  0  0  0  0  0
  -15.9522   10.5442  -19.4200 C   0  0  0  0  0  0  0  0  0  0  0  0
  -15.9880   10.1471  -20.7178 N   0  0  0  0  0  0  0  0  0  0  0  0
  -16.8699   10.8278  -21.4109 N   0  0  0  0  0  0  0  0  0  0  0  0
  -17.4362   11.6990  -20.5591 C   0  0  0  0  0  0  0  0  0  0  0  0
  -18.4182   12.6347  -20.8018 C   0  0  0  0  0  0  0  0  0  0  0  0
  -18.8325   13.4186  -19.7430 C   0  0  0  0  0  0  0  0  0  0  0  0
  -17.0750   10.6946  -22.4430 H   0  0  0  0  0  0  0  0  0  0  0  0
  -18.4544   19.2757  -22.3527 C   0  0  0  0  0  0  0  0  0  0  0  0
  -18.0533   20.4089  -21.5778 N   0  0  0  0  0  0  0  0  0  0  0  0
  -18.4969   19.4269  -23.5941 O   0  0  0  0  0  0  0  0  0  0  0  0
  -18.3105   20.3973  -20.5673 H   0  0  0  0  0  0  0  0  0  0  0  0
  -17.5326   21.2167  -21.9674 H   0  0  0  0  0  0  0  0  0  0  0  0
 14 15  1  0  0  0
 15 16  2  0  0  0
 16 17  1  0  0  0
 17 18  1  0  0  0
 18 19  2  0  0  0
 19 20  1  0  0  0
 20 21  1  0  0  0
 21 22  1  0  0  0
 22 23  2  0  0  0
 23  1  1  0  0  0
  1  2  2  0  0  0
  2  3  1  0  0  0
  3  4  2  0  0  0
  4  5  1  0  0  0
  5  6  2  0  0  0
  6  7  1  0  0  0
  6  8  1  0  0  0
  8  9  2  0  0  0
  9 10  1  0  0  0
 10 11  2  0  0  0
  8 25  1  0  0  0
 25 26  1  0  0  0
 25 27  2  0  0  0
 23 15  1  0  0  0
 11  1  1  0  0  0
 21 17  2  0  0  0
 11  5  1  0  0  0
 20 24  1  0  0  0
  7 12  1  0  0  0
  7 13  1  0  0  0
 26 28  1  0  0  0
 26 29  1  0  0  0
M  END
> <minimizedAffinity>
-7.08276

> <CNNscore>
0.3892324269

> <CNNaffinity>
6.2366981506

> <CNN_VS>
2.4275250435

> <CNNaffinity_variance>
0.4752900600

$$$$
[H]c1c([H])c([H])c2c(N([H])[H])c(C(=O)N([H])[H])nnc2c1-c1c(C([H])([H])[H])c([H])c2c([H])nn([H])c2c1[H]


 29 32  0  0  0  0  0  0  0  0999 V2000
  -18.3659   15.6898  -19.8609 C   0  0  0  0  0  0  0  0  0  0  0  0
  -17.3557   16.6228  -19.8188 C   0  0  0  0  0  0  0  0  0  0  0  0
  -17.6241   17.9503  -20.0925 C   0  0  0  0  0  0  0  0  0  0  0  0
  -18.8804   18.3828  -20.4106 C   0  0  0  0  0  0  0  0  0  0  0  0
  -19.8839   17.4337  -20.4489 C   0  0  0  0  0  0  0  0  0  0  0  0
  -21.1712   17.8452  -20.7661 C   0  0  0  0  0  0  0  0  0  0  0  0
  -21.3929   19.2183  -21.0391 N   0  0  0  0  0  0  0  0  0  0  0  0
  -22.1914   16.9213  -20.8080 C   0  0  0  0  0  0  0  0  0  0  0  0
  -21.8993   15.6475  -20.5381 N   0  0  0  0  0  0  0  0  0  0  0  0
  -20.6858   15.2255  -20.2335 N   0  0  0  0  0  0  0  0  0  0  0  0
  -19.6412   16.1040  -20.1794 C   0  0  0  0  0  0  0  0  0  0  0  0
  -21.8939   19.7827  -20.3205 H   0  0  0  0  0  0  0  0  0  0  0  0
  -21.0901   19.7012  -21.9063 H   0  0  0  0  0  0  0  0  0  0  0  0
  -18.7846   14.6525  -17.1720 C   0  0  0  0  0  0  0  0  0  0  0  0
  -18.3024   13.8240  -18.3208 C   0  0  0  0  0  0  0  0  0  0  0  0
  -18.0348   12.4701  -18.0779 C   0  0  0  0  0  0  0  0  0  0  0  0
  -17.5999   11.6445  -19.0889 C   0  0  0  0  0  0  0  0  0  0  0  0
  -17.2623   10.3176  -19.1696 C   0  0  0  0  0  0  0  0  0  0  0  0
  -16.9061   10.0966  -20.4609 N   0  0  0  0  0  0  0  0  0  0  0  0
  -16.9981   11.1871  -21.1847 N   0  0  0  0  0  0  0  0  0  0  0  0
  -17.4248   12.1586  -20.3604 C   0  0  0  0  0  0  0  0  0  0  0  0
  -17.6769   13.4840  -20.6403 C   0  0  0  0  0  0  0  0  0  0  0  0
  -18.1121   14.2865  -19.6041 C   0  0  0  0  0  0  0  0  0  0  0  0
  -16.7727   11.2585  -22.2187 H   0  0  0  0  0  0  0  0  0  0  0  0
  -23.5262   17.3799  -21.1457 C   0  0  0  0  0  0  0  0  0  0  0  0
  -24.0482   17.2761  -22.4732 N   0  0  0  0  0  0  0  0  0  0  0  0
  -24.2763   17.8873  -20.2822 O   0  0  0  0  0  0  0  0  0  0  0  0
  -23.3515   17.1564  -23.2399 H   0  0  0  0  0  0  0  0  0  0  0  0
  -25.0599   17.3132  -22.6978 H   0  0  0  0  0  0  0  0  0  0  0  0
 14 15  1  0  0  0
 15 16  2  0  0  0
 16 17  1  0  0  0
 17 18  1  0  0  0
 18 19  2  0  0  0
 19 20  1  0  0  0
 20 21  1  0  0  0
 21 22  1  0  0  0
 22 23  2  0  0  0
 23  1  1  0  0  0
  1  2  2  0  0  0
  2  3  1  0  0  0
  3  4  2  0  0  0
  4  5  1  0  0  0
  5  6  2  0  0  0
  6  7  1  0  0  0
  6  8  1  0  0  0
  8  9  2  0  0  0
  9 10  1  0  0  0
 10 11  2  0  0  0
  8 25  1  0  0  0
 25 26  1  0  0  0
 25 27  2  0  0  0
 23 15  1  0  0  0
 11  1  1  0  0  0
 21 17  2  0  0  0
 11  5  1  0  0  0
 20 24  1  0  0  0
  7 12  1  0  0  0
  7 13  1  0  0  0
 26 28  1  0  0  0
 26 29  1  0  0  0
M  END
> <minimizedAffinity>
-7.44960

> <CNNscore>
0.3710139096

> <CNNaffinity>
6.0170321465

> <CNN_VS>
2.2324025631

> <CNNaffinity_variance>
0.4096781611

$$$$
[H]c1nc(N([H])[H])c([H])c(-n2c(N([H])c3c([H])c(N([H])C(=O)c4c([H])c(OC5([H])C([H])([H])C([H])([H])N(C([H])([H])[H])C([H])([H])C5([H])[H])c([H])c(C(F)(F)F)c4[H])c([H])c([H])c3C([H])([H])[H])nc3c([H])c([H])c([H])c([H])c32)n1


 49 54  0  0  0  0  0  0  0  0999 V2000
  -17.8888   11.2053  -19.5444 C   0  0  0  0  0  0  0  0  0  0  0  0
  -16.7307   10.4159  -19.5289 C   0  0  0  0  0  0  0  0  0  0  0  0
  -15.8392   10.5390  -20.5517 C   0  0  0  0  0  0  0  0  0  0  0  0
  -16.0297   11.4072  -21.6004 C   0  0  0  0  0  0  0  0  0  0  0  0
  -15.0237   11.4749  -22.7059 C   0  0  0  0  0  0  0  0  0  0  0  0
  -17.1707   12.2143  -21.6586 C   0  0  0  0  0  0  0  0  0  0  0  0
  -18.0507   12.0798  -20.6307 C   0  0  0  0  0  0  0  0  0  0  0  0
  -19.2144   12.0685  -17.6265 C   0  0  0  0  0  0  0  0  0  0  0  0
  -18.8980   13.2557  -17.6304 O   0  0  0  0  0  0  0  0  0  0  0  0
  -18.7904   11.0554  -18.4807 N   0  0  0  0  0  0  0  0  0  0  0  0
  -19.1910   10.0889  -18.3090 H   0  0  0  0  0  0  0  0  0  0  0  0
  -21.6795   12.2902  -14.7677 C   0  0  0  0  0  0  0  0  0  0  0  0
  -20.7789   12.6463  -15.7644 C   0  0  0  0  0  0  0  0  0  0  0  0
  -20.1810   11.7023  -16.5560 C   0  0  0  0  0  0  0  0  0  0  0  0
  -20.4636   10.3771  -16.3783 C   0  0  0  0  0  0  0  0  0  0  0  0
  -21.3507    9.9805  -15.3988 C   0  0  0  0  0  0  0  0  0  0  0  0
  -21.9404   10.9316  -14.6158 C   0  0  0  0  0  0  0  0  0  0  0  0
  -21.6530    8.5137  -15.2011 C   0  0  0  0  0  0  0  0  0  0  0  0
  -20.7024    7.7533  -15.8578 F   0  0  0  0  0  0  0  0  0  0  0  0
  -22.8792    8.1745  -15.6777 F   0  0  0  0  0  0  0  0  0  0  0  0
  -21.6008    8.1838  -13.8519 F   0  0  0  0  0  0  0  0  0  0  0  0
  -22.3147   13.2003  -13.9429 O   0  0  0  0  0  0  0  0  0  0  0  0
  -24.7009   16.1748  -10.9190 C   0  0  0  0  0  0  0  0  0  0  0  0
  -23.5529   15.4013  -11.3914 N   0  0  0  0  0  0  0  0  0  0  0  0
  -23.5137   14.0832  -10.8240 C   0  0  0  0  0  0  0  0  0  0  0  0
  -22.7942   13.0531  -11.6352 C   0  0  0  0  0  0  0  0  0  0  0  0
  -23.3532   12.9427  -13.0593 C   0  0  0  0  0  0  0  0  0  0  0  0
  -24.4049   14.0523  -13.1527 C   0  0  0  0  0  0  0  0  0  0  0  0
  -23.6634   15.3467  -12.8388 C   0  0  0  0  0  0  0  0  0  0  0  0
  -17.3094   13.1004  -22.7294 N   0  0  0  0  0  0  0  0  0  0  0  0
  -17.0108   12.7407  -23.6817 H   0  0  0  0  0  0  0  0  0  0  0  0
  -17.8102   14.4294  -22.6362 C   0  0  0  0  0  0  0  0  0  0  0  0
  -18.7738   14.9667  -21.8958 N   0  0  0  0  0  0  0  0  0  0  0  0
  -18.9234   16.2856  -22.1085 C   0  0  0  0  0  0  0  0  0  0  0  0
  -19.7574   17.2509  -21.6084 C   0  0  0  0  0  0  0  0  0  0  0  0
  -19.6960   18.5603  -22.0159 C   0  0  0  0  0  0  0  0  0  0  0  0
  -18.7534   18.9084  -22.9701 C   0  0  0  0  0  0  0  0  0  0  0  0
  -17.9236   17.9355  -23.4659 C   0  0  0  0  0  0  0  0  0  0  0  0
  -17.9726   16.6138  -23.0651 C   0  0  0  0  0  0  0  0  0  0  0  0
  -17.3237   15.5007  -23.3642 N   0  0  0  0  0  0  0  0  0  0  0  0
  -16.2706   15.4034  -24.2956 C   0  0  0  0  0  0  0  0  0  0  0  0
  -16.4154   15.6643  -25.6380 C   0  0  0  0  0  0  0  0  0  0  0  0
  -15.3322   15.5466  -26.5126 C   0  0  0  0  0  0  0  0  0  0  0  0
  -15.5271   15.8334  -27.8785 N   0  0  0  0  0  0  0  0  0  0  0  0
  -14.1629   15.1713  -25.9870 N   0  0  0  0  0  0  0  0  0  0  0  0
  -14.0157   14.9165  -24.6787 C   0  0  0  0  0  0  0  0  0  0  0  0
  -15.0526   15.0304  -23.8403 N   0  0  0  0  0  0  0  0  0  0  0  0
  -15.5555   15.0600  -28.5618 H   0  0  0  0  0  0  0  0  0  0  0  0
  -15.6453   16.8092  -28.1893 H   0  0  0  0  0  0  0  0  0  0  0  0
 23 24  1  0  0  0
 24 25  1  0  0  0
 25 26  1  0  0  0
 26 27  1  0  0  0
 27 28  1  0  0  0
 28 29  1  0  0  0
 27 22  1  0  0  0
 22 12  1  0  0  0
 12 13  2  0  0  0
 13 14  1  0  0  0
 14 15  2  0  0  0
 15 16  1  0  0  0
 16 17  2  0  0  0
 16 18  1  0  0  0
 18 19  1  0  0  0
 18 20  1  0  0  0
 18 21  1  0  0  0
 14  8  1  0  0  0
  8  9  2  0  0  0
  8 10  1  0  0  0
 10  1  1  0  0  0
  1  2  2  0  0  0
  2  3  1  0  0  0
  3  4  2  0  0  0
  4  5  1  0  0  0
  4  6  1  0  0  0
  6 30  1  0  0  0
 30 32  1  0  0  0
 32 33  2  0  0  0
 33 34  1  0  0  0
 34 35  2  0  0  0
 35 36  1  0  0  0
 36 37  2  0  0  0
 37 38  1  0  0  0
 38 39  2  0  0  0
 39 40  1  0  0  0
 40 41  1  0  0  0
 41 42  2  0  0  0
 42 43  1  0  0  0
 43 44  1  0  0  0
 43 45  2  0  0  0
 45 46  1  0  0  0
 46 47  2  0  0  0
  6  7  2  0  0  0
 29 24  1  0  0  0
 17 12  1  0  0  0
  7  1  1  0  0  0
 40 32  1  0  0  0
 47 41  1  0  0  0
 39 34  1  0  0  0
 10 11  1  0  0  0
 30 31  1  0  0  0
 44 48  1  0  0  0
 44 49  1  0  0  0
M  END
> <minimizedAffinity>
-9.56216

> <CNNscore>
0.1536573023

> <CNNaffinity>
6.7771673203

> <CNN_VS>
1.0413612127

> <CNNaffinity_variance>
0.5042121410

$$$$
[H]c1nc(N([H])[H])c([H])c(-n2c(N([H])c3c([H])c(N([H])C(=O)c4c([H])c(OC5([H])C([H])([H])C([H])([H])N(C([H])([H])[H])C([H])([H])C5([H])[H])c([H])c(C(F)(F)F)c4[H])c([H])c([H])c3C([H])([H])[H])nc3c([H])c([H])c([H])c([H])c32)n1


 49 54  0  0  0  0  0  0  0  0999 V2000
  -18.4160   10.9761  -18.4176 C   0  0  0  0  0  0  0  0  0  0  0  0
  -17.2888   10.1633  -18.6001 C   0  0  0  0  0  0  0  0  0  0  0  0
  -16.5247   10.3417  -19.7138 C   0  0  0  0  0  0  0  0  0  0  0  0
  -16.8147   11.2882  -20.6677 C   0  0  0  0  0  0  0  0  0  0  0  0
  -15.9486   11.4152  -21.8812 C   0  0  0  0  0  0  0  0  0  0  0  0
  -17.9296   12.1215  -20.5283 C   0  0  0  0  0  0  0  0  0  0  0  0
  -18.6820   11.9310  -19.4119 C   0  0  0  0  0  0  0  0  0  0  0  0
  -19.4858    9.5323  -16.6997 C   0  0  0  0  0  0  0  0  0  0  0  0
  -19.1493    8.4141  -17.0819 O   0  0  0  0  0  0  0  0  0  0  0  0
  -19.1860   10.7681  -17.2641 N   0  0  0  0  0  0  0  0  0  0  0  0
  -19.5736   11.6232  -16.7717 H   0  0  0  0  0  0  0  0  0  0  0  0
  -22.4462    9.3493  -14.3542 C   0  0  0  0  0  0  0  0  0  0  0  0
  -21.6784    9.3525  -15.5125 C   0  0  0  0  0  0  0  0  0  0  0  0
  -20.3207    9.5260  -15.4680 C   0  0  0  0  0  0  0  0  0  0  0  0
  -19.6890    9.7002  -14.2687 C   0  0  0  0  0  0  0  0  0  0  0  0
  -20.4144    9.7055  -13.0950 C   0  0  0  0  0  0  0  0  0  0  0  0
  -21.7678    9.5315  -13.1528 C   0  0  0  0  0  0  0  0  0  0  0  0
  -19.7120    9.9069  -11.7728 C   0  0  0  0  0  0  0  0  0  0  0  0
  -20.6178   10.3660  -10.8337 F   0  0  0  0  0  0  0  0  0  0  0  0
  -18.6954   10.8036  -11.8641 F   0  0  0  0  0  0  0  0  0  0  0  0
  -19.1943    8.7034  -11.3087 F   0  0  0  0  0  0  0  0  0  0  0  0
  -23.8179    9.1748  -14.3401 O   0  0  0  0  0  0  0  0  0  0  0  0
  -27.3085   12.0450  -12.5337 C   0  0  0  0  0  0  0  0  0  0  0  0
  -26.6638   10.7685  -12.8407 N   0  0  0  0  0  0  0  0  0  0  0  0
  -27.1014   10.2252  -14.0952 C   0  0  0  0  0  0  0  0  0  0  0  0
  -26.1363    9.3034  -14.7705 C   0  0  0  0  0  0  0  0  0  0  0  0
  -24.7653    9.9564  -14.9859 C   0  0  0  0  0  0  0  0  0  0  0  0
  -24.8711   11.3215  -14.2994 C   0  0  0  0  0  0  0  0  0  0  0  0
  -25.2338   11.0234  -12.8491 C   0  0  0  0  0  0  0  0  0  0  0  0
  -18.1704   13.0864  -21.5092 N   0  0  0  0  0  0  0  0  0  0  0  0
  -18.3133   12.7291  -22.4978 H   0  0  0  0  0  0  0  0  0  0  0  0
  -18.2331   14.4901  -21.2828 C   0  0  0  0  0  0  0  0  0  0  0  0
  -18.7413   15.2084  -20.2873 N   0  0  0  0  0  0  0  0  0  0  0  0
  -18.5785   16.5315  -20.4604 C   0  0  0  0  0  0  0  0  0  0  0  0
  -18.9228   17.6444  -19.7390 C   0  0  0  0  0  0  0  0  0  0  0  0
  -18.6287   18.9166  -20.1626 C   0  0  0  0  0  0  0  0  0  0  0  0
  -17.9599   19.0706  -21.3664 C   0  0  0  0  0  0  0  0  0  0  0  0
  -17.6201   17.9512  -22.0823 C   0  0  0  0  0  0  0  0  0  0  0  0
  -17.9084   16.6644  -21.6687 C   0  0  0  0  0  0  0  0  0  0  0  0
  -17.7131   15.4438  -22.1397 N   0  0  0  0  0  0  0  0  0  0  0  0
  -17.0594   15.1387  -23.3503 C   0  0  0  0  0  0  0  0  0  0  0  0
  -15.7070   15.2938  -23.5450 C   0  0  0  0  0  0  0  0  0  0  0  0
  -15.1178   14.9765  -24.7715 C   0  0  0  0  0  0  0  0  0  0  0  0
  -13.7265   15.1433  -24.9206 N   0  0  0  0  0  0  0  0  0  0  0  0
  -15.9236   14.5217  -25.7349 N   0  0  0  0  0  0  0  0  0  0  0  0
  -17.2428   14.3678  -25.5504 C   0  0  0  0  0  0  0  0  0  0  0  0
  -17.8076   14.6701  -24.3754 N   0  0  0  0  0  0  0  0  0  0  0  0
  -13.3658   15.9278  -25.4866 H   0  0  0  0  0  0  0  0  0  0  0  0
  -13.0759   14.4880  -24.4621 H   0  0  0  0  0  0  0  0  0  0  0  0
 23 24  1  0  0  0
 24 25  1  0  0  0
 25 26  1  0  0  0
 26 27  1  0  0  0
 27 28  1  0  0  0
 28 29  1  0  0  0
 27 22  1  0  0  0
 22 12  1  0  0  0
 12 13  2  0  0  0
 13 14  1  0  0  0
 14 15  2  0  0  0
 15 16  1  0  0  0
 16 17  2  0  0  0
 16 18  1  0  0  0
 18 19  1  0  0  0
 18 20  1  0  0  0
 18 21  1  0  0  0
 14  8  1  0  0  0
  8  9  2  0  0  0
  8 10  1  0  0  0
 10  1  1  0  0  0
  1  2  2  0  0  0
  2  3  1  0  0  0
  3  4  2  0  0  0
  4  5  1  0  0  0
  4  6  1  0  0  0
  6 30  1  0  0  0
 30 32  1  0  0  0
 32 33  2  0  0  0
 33 34  1  0  0  0
 34 35  2  0  0  0
 35 36  1  0  0  0
 36 37  2  0  0  0
 37 38  1  0  0  0
 38 39  2  0  0  0
 39 40  1  0  0  0
 40 41  1  0  0  0
 41 42  2  0  0  0
 42 43  1  0  0  0
 43 44  1  0  0  0
 43 45  2  0  0  0
 45 46  1  0  0  0
 46 47  2  0  0  0
  6  7  2  0  0  0
 29 24  1  0  0  0
 17 12  1  0  0  0
  7  1  1  0  0  0
 40 32  1  0  0  0
 47 41  1  0  0  0
 39 34  1  0  0  0
 10 11  1  0  0  0
 30 31  1  0  0  0
 44 48  1  0  0  0
 44 49  1  0  0  0
M  END
> <minimizedAffinity>
-9.06977

> <CNNscore>
0.1309995949

> <CNNaffinity>
6.8708062172

> <CNN_VS>
0.9000728130

> <CNNaffinity_variance>
0.1764661372

$$$$
[H]c1nc(N([H])[H])c([H])c(-n2c(N([H])c3c([H])c(N([H])C(=O)c4c([H])c(OC5([H])C([H])([H])C([H])([H])N(C([H])([H])[H])C([H])([H])C5([H])[H])c([H])c(C(F)(F)F)c4[H])c([H])c([H])c3C([H])([H])[H])nc3c([H])c([H])c([H])c([H])c32)n1


 49 54  0  0  0  0  0  0  0  0999 V2000
  -17.8822   11.5329  -19.1007 C   0  0  0  0  0  0  0  0  0  0  0  0
  -16.8120   10.6301  -19.1672 C   0  0  0  0  0  0  0  0  0  0  0  0
  -16.0496   10.5985  -20.2957 C   0  0  0  0  0  0  0  0  0  0  0  0
  -16.2875   11.4173  -21.3741 C   0  0  0  0  0  0  0  0  0  0  0  0
  -15.4277   11.3140  -22.5942 C   0  0  0  0  0  0  0  0  0  0  0  0
  -17.3445   12.3334  -21.3531 C   0  0  0  0  0  0  0  0  0  0  0  0
  -18.0960   12.3527  -20.2201 C   0  0  0  0  0  0  0  0  0  0  0  0
  -19.4953   12.5689  -17.5180 C   0  0  0  0  0  0  0  0  0  0  0  0
  -19.7290   13.6374  -18.0778 O   0  0  0  0  0  0  0  0  0  0  0  0
  -18.6520   11.5413  -17.9285 N   0  0  0  0  0  0  0  0  0  0  0  0
  -18.5942   10.6917  -17.2970 H   0  0  0  0  0  0  0  0  0  0  0  0
  -22.0556   12.8847  -14.7533 C   0  0  0  0  0  0  0  0  0  0  0  0
  -21.3804   13.0682  -15.9540 C   0  0  0  0  0  0  0  0  0  0  0  0
  -20.2293   12.3826  -16.2370 C   0  0  0  0  0  0  0  0  0  0  0  0
  -19.7183   11.4942  -15.3329 C   0  0  0  0  0  0  0  0  0  0  0  0
  -20.3565   11.2838  -14.1278 C   0  0  0  0  0  0  0  0  0  0  0  0
  -21.5038   11.9738  -13.8574 C   0  0  0  0  0  0  0  0  0  0  0  0
  -19.7827   10.3070  -13.1286 C   0  0  0  0  0  0  0  0  0  0  0  0
  -19.0464   10.9945  -12.1807 F   0  0  0  0  0  0  0  0  0  0  0  0
  -18.9742    9.3874  -13.7172 F   0  0  0  0  0  0  0  0  0  0  0  0
  -20.8023    9.6337  -12.4660 F   0  0  0  0  0  0  0  0  0  0  0  0
  -23.2223   13.5464  -14.4171 O   0  0  0  0  0  0  0  0  0  0  0  0
  -25.3240   17.7487  -15.6859 C   0  0  0  0  0  0  0  0  0  0  0  0
  -24.3063   16.6999  -15.7469 N   0  0  0  0  0  0  0  0  0  0  0  0
  -23.1926   16.9709  -14.8828 C   0  0  0  0  0  0  0  0  0  0  0  0
  -22.4300   15.7711  -14.4181 C   0  0  0  0  0  0  0  0  0  0  0  0
  -23.3329   14.7436  -13.7242 C   0  0  0  0  0  0  0  0  0  0  0  0
  -24.7500   15.3046  -13.8750 C   0  0  0  0  0  0  0  0  0  0  0  0
  -24.9704   15.4626  -15.3751 C   0  0  0  0  0  0  0  0  0  0  0  0
  -17.5324   13.1634  -22.4608 N   0  0  0  0  0  0  0  0  0  0  0  0
  -17.3237   12.7383  -23.4101 H   0  0  0  0  0  0  0  0  0  0  0  0
  -17.9725   14.5159  -22.4085 C   0  0  0  0  0  0  0  0  0  0  0  0
  -18.9330   15.1121  -21.7105 N   0  0  0  0  0  0  0  0  0  0  0  0
  -19.0130   16.4321  -21.9521 C   0  0  0  0  0  0  0  0  0  0  0  0
  -19.8161   17.4450  -21.4976 C   0  0  0  0  0  0  0  0  0  0  0  0
  -19.6796   18.7419  -21.9267 C   0  0  0  0  0  0  0  0  0  0  0  0
  -18.6913   19.0266  -22.8552 C   0  0  0  0  0  0  0  0  0  0  0  0
  -17.8928   18.0064  -23.3053 C   0  0  0  0  0  0  0  0  0  0  0  0
  -18.0173   16.6966  -22.8823 C   0  0  0  0  0  0  0  0  0  0  0  0
  -17.4125   15.5486  -23.1394 N   0  0  0  0  0  0  0  0  0  0  0  0
  -16.3356   15.3839  -24.0333 C   0  0  0  0  0  0  0  0  0  0  0  0
  -16.4154   15.6551  -25.3791 C   0  0  0  0  0  0  0  0  0  0  0  0
  -15.3118   15.4679  -26.2153 C   0  0  0  0  0  0  0  0  0  0  0  0
  -15.4390   15.7682  -27.5862 N   0  0  0  0  0  0  0  0  0  0  0  0
  -14.1888   15.0166  -25.6500 N   0  0  0  0  0  0  0  0  0  0  0  0
  -14.1051   14.7513  -24.3382 C   0  0  0  0  0  0  0  0  0  0  0  0
  -15.1613   14.9318  -23.5365 N   0  0  0  0  0  0  0  0  0  0  0  0
  -15.4935   14.9991  -28.2727 H   0  0  0  0  0  0  0  0  0  0  0  0
  -15.4824   16.7501  -27.8978 H   0  0  0  0  0  0  0  0  0  0  0  0
 23 24  1  0  0  0
 24 25  1  0  0  0
 25 26  1  0  0  0
 26 27  1  0  0  0
 27 28  1  0  0  0
 28 29  1  0  0  0
 27 22  1  0  0  0
 22 12  1  0  0  0
 12 13  2  0  0  0
 13 14  1  0  0  0
 14 15  2  0  0  0
 15 16  1  0  0  0
 16 17  2  0  0  0
 16 18  1  0  0  0
 18 19  1  0  0  0
 18 20  1  0  0  0
 18 21  1  0  0  0
 14  8  1  0  0  0
  8  9  2  0  0  0
  8 10  1  0  0  0
 10  1  1  0  0  0
  1  2  2  0  0  0
  2  3  1  0  0  0
  3  4  2  0  0  0
  4  5  1  0  0  0
  4  6  1  0  0  0
  6 30  1  0  0  0
 30 32  1  0  0  0
 32 33  2  0  0  0
 33 34  1  0  0  0
 34 35  2  0  0  0
 35 36  1  0  0  0
 36 37  2  0  0  0
 37 38  1  0  0  0
 38 39  2  0  0  0
 39 40  1  0  0  0
 40 41  1  0  0  0
 41 42  2  0  0  0
 42 43  1  0  0  0
 43 44  1  0  0  0
 43 45  2  0  0  0
 45 46  1  0  0  0
 46 47  2  0  0  0
  6  7  2  0  0  0
 29 24  1  0  0  0
 17 12  1  0  0  0
  7  1  1  0  0  0
 40 32  1  0  0  0
 47 41  1  0  0  0
 39 34  1  0  0  0
 10 11  1  0  0  0
 30 31  1  0  0  0
 44 48  1  0  0  0
 44 49  1  0  0  0
M  END
> <minimizedAffinity>
-9.45136

> <CNNscore>
0.1249748990

> <CNNaffinity>
6.9814300537

> <CNN_VS>
0.8725035191

> <CNNaffinity_variance>
0.4310089946

$$$$
[H]c1nc(N([H])[H])c([H])c(-n2c(N([H])c3c([H])c(N([H])C(=O)c4c([H])c(OC5([H])C([H])([H])C([H])([H])N(C([H])([H])[H])C([H])([H])C5([H])[H])c([H])c(C(F)(F)F)c4[H])c([H])c([H])c3C([H])([H])[H])nc3c([H])c([H])c([H])c([H])c32)n1


 49 54  0  0  0  0  0  0  0  0999 V2000
  -18.0954   11.7083  -18.5281 C   0  0  0  0  0  0  0  0  0  0  0  0
  -16.9118   11.0177  -18.2336 C   0  0  0  0  0  0  0  0  0  0  0  0
  -16.0850   10.6665  -19.2579 C   0  0  0  0  0  0  0  0  0  0  0  0
  -16.3651   10.9619  -20.5709 C   0  0  0  0  0  0  0  0  0  0  0  0
  -15.4269   10.5243  -21.6513 C   0  0  0  0  0  0  0  0  0  0  0  0
  -17.5347   11.6490  -20.9125 C   0  0  0  0  0  0  0  0  0  0  0  0
  -18.3492   11.9925  -19.8793 C   0  0  0  0  0  0  0  0  0  0  0  0
  -19.6975   11.1692  -16.7051 C   0  0  0  0  0  0  0  0  0  0  0  0
  -19.7983    9.9507  -16.8260 O   0  0  0  0  0  0  0  0  0  0  0  0
  -18.9289   12.0543  -17.4546 N   0  0  0  0  0  0  0  0  0  0  0  0
  -18.9796   13.0776  -17.1823 H   0  0  0  0  0  0  0  0  0  0  0  0
  -22.1792   13.2685  -14.7730 C   0  0  0  0  0  0  0  0  0  0  0  0
  -21.4206   12.7456  -15.8134 C   0  0  0  0  0  0  0  0  0  0  0  0
  -20.5171   11.7386  -15.6013 C   0  0  0  0  0  0  0  0  0  0  0  0
  -20.3441   11.2231  -14.3476 C   0  0  0  0  0  0  0  0  0  0  0  0
  -21.0759   11.7150  -13.2863 C   0  0  0  0  0  0  0  0  0  0  0  0
  -21.9737   12.7195  -13.5108 C   0  0  0  0  0  0  0  0  0  0  0  0
  -20.8745   11.1473  -11.9010 C   0  0  0  0  0  0  0  0  0  0  0  0
  -21.2210   12.0974  -10.9574 F   0  0  0  0  0  0  0  0  0  0  0  0
  -19.5866   10.7740  -11.6825 F   0  0  0  0  0  0  0  0  0  0  0  0
  -21.6909   10.0395  -11.7059 F   0  0  0  0  0  0  0  0  0  0  0  0
  -23.1074   14.2813  -14.9304 O   0  0  0  0  0  0  0  0  0  0  0  0
  -23.9977   18.5441  -17.1033 C   0  0  0  0  0  0  0  0  0  0  0  0
  -23.2535   17.3104  -16.8516 N   0  0  0  0  0  0  0  0  0  0  0  0
  -22.2220   17.4875  -15.8690 C   0  0  0  0  0  0  0  0  0  0  0  0
  -21.8236   16.2541  -15.1228 C   0  0  0  0  0  0  0  0  0  0  0  0
  -23.0197   15.5771  -14.4418 C   0  0  0  0  0  0  0  0  0  0  0  0
  -24.2371   16.3888  -14.8943 C   0  0  0  0  0  0  0  0  0  0  0  0
  -24.2286   16.3251  -16.4174 C   0  0  0  0  0  0  0  0  0  0  0  0
  -17.7650   11.9507  -22.2568 N   0  0  0  0  0  0  0  0  0  0  0  0
  -18.5165   11.3838  -22.7459 H   0  0  0  0  0  0  0  0  0  0  0  0
  -17.0736   12.9440  -23.0058 C   0  0  0  0  0  0  0  0  0  0  0  0
  -16.2924   12.8660  -24.0777 N   0  0  0  0  0  0  0  0  0  0  0  0
  -15.8398   14.0650  -24.4837 C   0  0  0  0  0  0  0  0  0  0  0  0
  -15.0272   14.4908  -25.5014 C   0  0  0  0  0  0  0  0  0  0  0  0
  -14.7156   15.8143  -25.6903 C   0  0  0  0  0  0  0  0  0  0  0  0
  -15.2462   16.7463  -24.8129 C   0  0  0  0  0  0  0  0  0  0  0  0
  -16.0577   16.3110  -23.7965 C   0  0  0  0  0  0  0  0  0  0  0  0
  -16.3812   14.9827  -23.5941 C   0  0  0  0  0  0  0  0  0  0  0  0
  -17.1088   14.2987  -22.7267 N   0  0  0  0  0  0  0  0  0  0  0  0
  -17.8336   14.8614  -21.6571 C   0  0  0  0  0  0  0  0  0  0  0  0
  -17.2431   15.4653  -20.5721 C   0  0  0  0  0  0  0  0  0  0  0  0
  -18.0174   16.0021  -19.5404 C   0  0  0  0  0  0  0  0  0  0  0  0
  -17.3674   16.6196  -18.4531 N   0  0  0  0  0  0  0  0  0  0  0  0
  -19.3441   15.8999  -19.6580 N   0  0  0  0  0  0  0  0  0  0  0  0
  -19.9253   15.3128  -20.7142 C   0  0  0  0  0  0  0  0  0  0  0  0
  -19.1842   14.7997  -21.7033 N   0  0  0  0  0  0  0  0  0  0  0  0
  -17.3342   16.1385  -17.5403 H   0  0  0  0  0  0  0  0  0  0  0  0
  -16.9244   17.5428  -18.5731 H   0  0  0  0  0  0  0  0  0  0  0  0
 23 24  1  0  0  0
 24 25  1  0  0  0
 25 26  1  0  0  0
 26 27  1  0  0  0
 27 28  1  0  0  0
 28 29  1  0  0  0
 27 22  1  0  0  0
 22 12  1  0  0  0
 12 13  2  0  0  0
 13 14  1  0  0  0
 14 15  2  0  0  0
 15 16  1  0  0  0
 16 17  2  0  0  0
 16 18  1  0  0  0
 18 19  1  0  0  0
 18 20  1  0  0  0
 18 21  1  0  0  0
 14  8  1  0  0  0
  8  9  2  0  0  0
  8 10  1  0  0  0
 10  1  1  0  0  0
  1  2  2  0  0  0
  2  3  1  0  0  0
  3  4  2  0  0  0
  4  5  1  0  0  0
  4  6  1  0  0  0
  6 30  1  0  0  0
 30 32  1  0  0  0
 32 33  2  0  0  0
 33 34  1  0  0  0
 34 35  2  0  0  0
 35 36  1  0  0  0
 36 37  2  0  0  0
 37 38  1  0  0  0
 38 39  2  0  0  0
 39 40  1  0  0  0
 40 41  1  0  0  0
 41 42  2  0  0  0
 42 43  1  0  0  0
 43 44  1  0  0  0
 43 45  2  0  0  0
 45 46  1  0  0  0
 46 47  2  0  0  0
  6  7  2  0  0  0
 29 24  1  0  0  0
 17 12  1  0  0  0
  7  1  1  0  0  0
 40 32  1  0  0  0
 47 41  1  0  0  0
 39 34  1  0  0  0
 10 11  1  0  0  0
 30 31  1  0  0  0
 44 48  1  0  0  0
 44 49  1  0  0  0
M  END
> <minimizedAffinity>
-9.40101

> <CNNscore>
0.1181660146

> <CNNaffinity>
7.0732698441

> <CNN_VS>
0.8358200788

> <CNNaffinity_variance>
0.2734376192

$$$$
[H]c1nc(N([H])[H])c([H])c(-n2c(N([H])c3c([H])c(N([H])C(=O)c4c([H])c(OC5([H])C([H])([H])C([H])([H])N(C([H])([H])[H])C([H])([H])C5([H])[H])c([H])c(C(F)(F)F)c4[H])c([H])c([H])c3C([H])([H])[H])nc3c([H])c([H])c([H])c([H])c32)n1


 49 54  0  0  0  0  0  0  0  0999 V2000
  -17.8490   11.2391  -19.6556 C   0  0  0  0  0  0  0  0  0  0  0  0
  -16.6451   10.5213  -19.6504 C   0  0  0  0  0  0  0  0  0  0  0  0
  -15.7707   10.6993  -20.6798 C   0  0  0  0  0  0  0  0  0  0  0  0
  -16.0215   11.5556  -21.7256 C   0  0  0  0  0  0  0  0  0  0  0  0
  -15.0301   11.6854  -22.8387 C   0  0  0  0  0  0  0  0  0  0  0  0
  -17.2098   12.2922  -21.7736 C   0  0  0  0  0  0  0  0  0  0  0  0
  -18.0719   12.1035  -20.7392 C   0  0  0  0  0  0  0  0  0  0  0  0
  -19.1278   11.9970  -17.6629 C   0  0  0  0  0  0  0  0  0  0  0  0
  -18.7984   13.1791  -17.6011 O   0  0  0  0  0  0  0  0  0  0  0  0
  -18.7315   11.0337  -18.5852 N   0  0  0  0  0  0  0  0  0  0  0  0
  -19.1394   10.0626  -18.4645 H   0  0  0  0  0  0  0  0  0  0  0  0
  -21.1738    9.8785  -15.2914 C   0  0  0  0  0  0  0  0  0  0  0  0
  -20.2833   10.2578  -16.2886 C   0  0  0  0  0  0  0  0  0  0  0  0
  -20.0775   11.5759  -16.5976 C   0  0  0  0  0  0  0  0  0  0  0  0
  -20.7518   12.5538  -15.9217 C   0  0  0  0  0  0  0  0  0  0  0  0
  -21.6465   12.2203  -14.9257 C   0  0  0  0  0  0  0  0  0  0  0  0
  -21.8429   10.9021  -14.6270 C   0  0  0  0  0  0  0  0  0  0  0  0
  -22.3955   13.3048  -14.1876 C   0  0  0  0  0  0  0  0  0  0  0  0
  -21.9343   14.5437  -14.5944 F   0  0  0  0  0  0  0  0  0  0  0  0
  -22.2406   13.2091  -12.8412 F   0  0  0  0  0  0  0  0  0  0  0  0
  -23.7533   13.2422  -14.4779 F   0  0  0  0  0  0  0  0  0  0  0  0
  -21.4174    8.5647  -14.9356 O   0  0  0  0  0  0  0  0  0  0  0  0
  -21.7525    3.8904  -13.6225 C   0  0  0  0  0  0  0  0  0  0  0  0
  -21.3235    5.2820  -13.4856 N   0  0  0  0  0  0  0  0  0  0  0  0
  -20.0360    5.5156  -14.0759 C   0  0  0  0  0  0  0  0  0  0  0  0
  -19.7748    6.9201  -14.5185 C   0  0  0  0  0  0  0  0  0  0  0  0
  -20.8451    7.4295  -15.4918 C   0  0  0  0  0  0  0  0  0  0  0  0
  -21.8802    6.3026  -15.5583 C   0  0  0  0  0  0  0  0  0  0  0  0
  -22.3479    6.0910  -14.1229 C   0  0  0  0  0  0  0  0  0  0  0  0
  -17.4102   13.1696  -22.8418 N   0  0  0  0  0  0  0  0  0  0  0  0
  -17.2063   12.7883  -23.8106 H   0  0  0  0  0  0  0  0  0  0  0  0
  -17.8570   14.5160  -22.7263 C   0  0  0  0  0  0  0  0  0  0  0  0
  -18.8064   15.0773  -21.9855 N   0  0  0  0  0  0  0  0  0  0  0  0
  -18.8991   16.4054  -22.1720 C   0  0  0  0  0  0  0  0  0  0  0  0
  -19.6985   17.3939  -21.6609 C   0  0  0  0  0  0  0  0  0  0  0  0
  -19.5784   18.7078  -22.0401 C   0  0  0  0  0  0  0  0  0  0  0  0
  -18.6110   19.0361  -22.9763 C   0  0  0  0  0  0  0  0  0  0  0  0
  -17.8160   18.0401  -23.4832 C   0  0  0  0  0  0  0  0  0  0  0  0
  -17.9242   16.7135  -23.1109 C   0  0  0  0  0  0  0  0  0  0  0  0
  -17.3181   15.5809  -23.4262 N   0  0  0  0  0  0  0  0  0  0  0  0
  -16.2589   15.4593  -24.3477 C   0  0  0  0  0  0  0  0  0  0  0  0
  -16.4006   15.6599  -25.7007 C   0  0  0  0  0  0  0  0  0  0  0  0
  -15.3112   15.5208  -26.5645 C   0  0  0  0  0  0  0  0  0  0  0  0
  -15.5032   15.7455  -27.9424 N   0  0  0  0  0  0  0  0  0  0  0  0
  -14.1393   15.1860  -26.0179 N   0  0  0  0  0  0  0  0  0  0  0  0
  -13.9952   14.9900  -24.6992 C   0  0  0  0  0  0  0  0  0  0  0  0
  -15.0379   15.1245  -23.8712 N   0  0  0  0  0  0  0  0  0  0  0  0
  -15.5167   14.9430  -28.5918 H   0  0  0  0  0  0  0  0  0  0  0  0
  -15.6342   16.7052  -28.2956 H   0  0  0  0  0  0  0  0  0  0  0  0
 23 24  1  0  0  0
 24 25  1  0  0  0
 25 26  1  0  0  0
 26 27  1  0  0  0
 27 28  1  0  0  0
 28 29  1  0  0  0
 27 22  1  0  0  0
 22 12  1  0  0  0
 12 13  2  0  0  0
 13 14  1  0  0  0
 14 15  2  0  0  0
 15 16  1  0  0  0
 16 17  2  0  0  0
 16 18  1  0  0  0
 18 19  1  0  0  0
 18 20  1  0  0  0
 18 21  1  0  0  0
 14  8  1  0  0  0
  8  9  2  0  0  0
  8 10  1  0  0  0
 10  1  1  0  0  0
  1  2  2  0  0  0
  2  3  1  0  0  0
  3  4  2  0  0  0
  4  5  1  0  0  0
  4  6  1  0  0  0
  6 30  1  0  0  0
 30 32  1  0  0  0
 32 33  2  0  0  0
 33 34  1  0  0  0
 34 35  2  0  0  0
 35 36  1  0  0  0
 36 37  2  0  0  0
 37 38  1  0  0  0
 38 39  2  0  0  0
 39 40  1  0  0  0
 40 41  1  0  0  0
 41 42  2  0  0  0
 42 43  1  0  0  0
 43 44  1  0  0  0
 43 45  2  0  0  0
 45 46  1  0  0  0
 46 47  2  0  0  0
  6  7  2  0  0  0
 29 24  1  0  0  0
 17 12  1  0  0  0
  7  1  1  0  0  0
 40 32  1  0  0  0
 47 41  1  0  0  0
 39 34  1  0  0  0
 10 11  1  0  0  0
 30 31  1  0  0  0
 44 48  1  0  0  0
 44 49  1  0  0  0
M  END
> <minimizedAffinity>
-9.76545

> <CNNscore>
0.1066360697

> <CNNaffinity>
6.8532381058

> <CNN_VS>
0.7308023572

> <CNNaffinity_variance>
0.4904826283

$$$$
[H]c1nc(N([H])[H])c([H])c(-n2c(N([H])c3c([H])c(N([H])C(=O)c4c([H])c(OC5([H])C([H])([H])C([H])([H])N(C([H])([H])[H])C([H])([H])C5([H])[H])c([H])c(C(F)(F)F)c4[H])c([H])c([H])c3C([H])([H])[H])nc3c([H])c([H])c([H])c([H])c32)n1


 49 54  0  0  0  0  0  0  0  0999 V2000
  -18.1084   11.5092  -19.2046 C   0  0  0  0  0  0  0  0  0  0  0  0
  -17.0330   10.6102  -19.2107 C   0  0  0  0  0  0  0  0  0  0  0  0
  -16.1887   10.6046  -20.2798 C   0  0  0  0  0  0  0  0  0  0  0  0
  -16.3488   11.4461  -21.3550 C   0  0  0  0  0  0  0  0  0  0  0  0
  -15.4003   11.3710  -22.5097 C   0  0  0  0  0  0  0  0  0  0  0  0
  -17.4077   12.3594  -21.3932 C   0  0  0  0  0  0  0  0  0  0  0  0
  -18.2414   12.3527  -20.3191 C   0  0  0  0  0  0  0  0  0  0  0  0
  -19.3613   12.6015  -17.3559 C   0  0  0  0  0  0  0  0  0  0  0  0
  -19.0570   13.7802  -17.5227 O   0  0  0  0  0  0  0  0  0  0  0  0
  -18.9633   11.4907  -18.0931 N   0  0  0  0  0  0  0  0  0  0  0  0
  -19.3468   10.5518  -17.7841 H   0  0  0  0  0  0  0  0  0  0  0  0
  -21.1733   10.9730  -14.4641 C   0  0  0  0  0  0  0  0  0  0  0  0
  -20.3111   11.1767  -15.5348 C   0  0  0  0  0  0  0  0  0  0  0  0
  -20.2786   12.3690  -16.2076 C   0  0  0  0  0  0  0  0  0  0  0  0
  -21.1029   13.3925  -15.8327 C   0  0  0  0  0  0  0  0  0  0  0  0
  -21.9756   13.2313  -14.7762 C   0  0  0  0  0  0  0  0  0  0  0  0
  -21.9985   12.0373  -14.1133 C   0  0  0  0  0  0  0  0  0  0  0  0
  -22.8906   14.3631  -14.3715 C   0  0  0  0  0  0  0  0  0  0  0  0
  -22.1744   15.5458  -14.3348 F   0  0  0  0  0  0  0  0  0  0  0  0
  -23.4476   14.1595  -13.1491 F   0  0  0  0  0  0  0  0  0  0  0  0
  -23.9141   14.5166  -15.2993 F   0  0  0  0  0  0  0  0  0  0  0  0
  -21.2454    9.7926  -13.7474 O   0  0  0  0  0  0  0  0  0  0  0  0
  -17.9979    7.1945  -11.2198 C   0  0  0  0  0  0  0  0  0  0  0  0
  -19.1552    7.3882  -12.0929 N   0  0  0  0  0  0  0  0  0  0  0  0
  -20.3874    7.4468  -11.3588 C   0  0  0  0  0  0  0  0  0  0  0  0
  -21.4961    8.2029  -12.0190 C   0  0  0  0  0  0  0  0  0  0  0  0
  -21.0862    9.6368  -12.3778 C   0  0  0  0  0  0  0  0  0  0  0  0
  -19.6012    9.7211  -12.0123 C   0  0  0  0  0  0  0  0  0  0  0  0
  -18.9179    8.6233  -12.8197 C   0  0  0  0  0  0  0  0  0  0  0  0
  -17.5157   13.2128  -22.4937 N   0  0  0  0  0  0  0  0  0  0  0  0
  -17.2411   12.8069  -23.4346 H   0  0  0  0  0  0  0  0  0  0  0  0
  -17.9564   14.5652  -22.4443 C   0  0  0  0  0  0  0  0  0  0  0  0
  -18.9100   15.1645  -21.7395 N   0  0  0  0  0  0  0  0  0  0  0  0
  -18.9938   16.4830  -21.9876 C   0  0  0  0  0  0  0  0  0  0  0  0
  -19.7930   17.4978  -21.5303 C   0  0  0  0  0  0  0  0  0  0  0  0
  -19.6622   18.7923  -21.9679 C   0  0  0  0  0  0  0  0  0  0  0  0
  -18.6839   19.0728  -22.9083 C   0  0  0  0  0  0  0  0  0  0  0  0
  -17.8893   18.0507  -23.3612 C   0  0  0  0  0  0  0  0  0  0  0  0
  -18.0082   16.7431  -22.9297 C   0  0  0  0  0  0  0  0  0  0  0  0
  -17.4050   15.5943  -23.1867 N   0  0  0  0  0  0  0  0  0  0  0  0
  -16.3375   15.4256  -24.0911 C   0  0  0  0  0  0  0  0  0  0  0  0
  -16.4384   15.6669  -25.4410 C   0  0  0  0  0  0  0  0  0  0  0  0
  -15.3431   15.4772  -26.2875 C   0  0  0  0  0  0  0  0  0  0  0  0
  -15.4920   15.7465  -27.6627 N   0  0  0  0  0  0  0  0  0  0  0  0
  -14.2066   15.0536  -25.7276 N   0  0  0  0  0  0  0  0  0  0  0  0
  -14.1024   14.8176  -24.4117 C   0  0  0  0  0  0  0  0  0  0  0  0
  -15.1507   15.0004  -23.6003 N   0  0  0  0  0  0  0  0  0  0  0  0
  -15.5445   14.9623  -28.3320 H   0  0  0  0  0  0  0  0  0  0  0  0
  -15.5533   16.7208  -27.9943 H   0  0  0  0  0  0  0  0  0  0  0  0
 23 24  1  0  0  0
 24 25  1  0  0  0
 25 26  1  0  0  0
 26 27  1  0  0  0
 27 28  1  0  0  0
 28 29  1  0  0  0
 27 22  1  0  0  0
 22 12  1  0  0  0
 12 13  2  0  0  0
 13 14  1  0  0  0
 14 15  2  0  0  0
 15 16  1  0  0  0
 16 17  2  0  0  0
 16 18  1  0  0  0
 18 19  1  0  0  0
 18 20  1  0  0  0
 18 21  1  0  0  0
 14  8  1  0  0  0
  8  9  2  0  0  0
  8 10  1  0  0  0
 10  1  1  0  0  0
  1  2  2  0  0  0
  2  3  1  0  0  0
  3  4  2  0  0  0
  4  5  1  0  0  0
  4  6  1  0  0  0
  6 30  1  0  0  0
 30 32  1  0  0  0
 32 33  2  0  0  0
 33 34  1  0  0  0
 34 35  2  0  0  0
 35 36  1  0  0  0
 36 37  2  0  0  0
 37 38  1  0  0  0
 38 39  2  0  0  0
 39 40  1  0  0  0
 40 41  1  0  0  0
 41 42  2  0  0  0
 42 43  1  0  0  0
 43 44  1  0  0  0
 43 45  2  0  0  0
 45 46  1  0  0  0
 46 47  2  0  0  0
  6  7  2  0  0  0
 29 24  1  0  0  0
 17 12  1  0  0  0
  7  1  1  0  0  0
 40 32  1  0  0  0
 47 41  1  0  0  0
 39 34  1  0  0  0
 10 11  1  0  0  0
 30 31  1  0  0  0
 44 48  1  0  0  0
 44 49  1  0  0  0
M  END
> <minimizedAffinity>
-9.69143

> <CNNscore>
0.1032370254

> <CNNaffinity>
6.7597527504

> <CNN_VS>
0.6978567839

> <CNNaffinity_variance>
0.4667088389

$$$$
[H]c1nc(N([H])[H])c([H])c(-n2c(N([H])c3c([H])c(N([H])C(=O)c4c([H])c(OC5([H])C([H])([H])C([H])([H])N(C([H])([H])[H])C([H])([H])C5([H])[H])c([H])c(C(F)(F)F)c4[H])c([H])c([H])c3C([H])([H])[H])nc3c([H])c([H])c([H])c([H])c32)n1


 49 54  0  0  0  0  0  0  0  0999 V2000
  -20.6751   16.5072  -19.9045 C   0  0  0  0  0  0  0  0  0  0  0  0
  -20.7797   16.6667  -18.5159 C   0  0  0  0  0  0  0  0  0  0  0  0
  -21.7404   17.4965  -18.0213 C   0  0  0  0  0  0  0  0  0  0  0  0
  -22.6129   18.1852  -18.8303 C   0  0  0  0  0  0  0  0  0  0  0  0
  -23.6287   19.1012  -18.2238 C   0  0  0  0  0  0  0  0  0  0  0  0
  -22.5456   18.0577  -20.2217 C   0  0  0  0  0  0  0  0  0  0  0  0
  -21.5817   17.2262  -20.6996 C   0  0  0  0  0  0  0  0  0  0  0  0
  -19.7412   14.2603  -20.4140 C   0  0  0  0  0  0  0  0  0  0  0  0
  -20.6546   13.5294  -20.0383 O   0  0  0  0  0  0  0  0  0  0  0  0
  -19.6751   15.6497  -20.3855 N   0  0  0  0  0  0  0  0  0  0  0  0
  -18.7900   16.0923  -20.7660 H   0  0  0  0  0  0  0  0  0  0  0  0
  -16.8115   13.2721  -22.5908 C   0  0  0  0  0  0  0  0  0  0  0  0
  -17.9045   13.9645  -22.0836 C   0  0  0  0  0  0  0  0  0  0  0  0
  -18.5693   13.5297  -20.9681 C   0  0  0  0  0  0  0  0  0  0  0  0
  -18.1640   12.3938  -20.3254 C   0  0  0  0  0  0  0  0  0  0  0  0
  -17.0845   11.6755  -20.7971 C   0  0  0  0  0  0  0  0  0  0  0  0
  -16.4299   12.1194  -21.9106 C   0  0  0  0  0  0  0  0  0  0  0  0
  -16.6461   10.4159  -20.0878 C   0  0  0  0  0  0  0  0  0  0  0  0
  -16.2300    9.4819  -21.0193 F   0  0  0  0  0  0  0  0  0  0  0  0
  -17.6464    9.8696  -19.3483 F   0  0  0  0  0  0  0  0  0  0  0  0
  -15.5728   10.6807  -19.2452 F   0  0  0  0  0  0  0  0  0  0  0  0
  -16.1016   13.6669  -23.7099 O   0  0  0  0  0  0  0  0  0  0  0  0
  -15.9253   15.6667  -28.1433 C   0  0  0  0  0  0  0  0  0  0  0  0
  -15.4631   14.8080  -27.0532 N   0  0  0  0  0  0  0  0  0  0  0  0
  -14.5224   15.4736  -26.1972 C   0  0  0  0  0  0  0  0  0  0  0  0
  -14.4480   14.9567  -24.7957 C   0  0  0  0  0  0  0  0  0  0  0  0
  -15.8153   14.9672  -24.1008 C   0  0  0  0  0  0  0  0  0  0  0  0
  -16.8004   15.4149  -25.1847 C   0  0  0  0  0  0  0  0  0  0  0  0
  -16.6493   14.4059  -26.3174 C   0  0  0  0  0  0  0  0  0  0  0  0
  -23.4693   18.7561  -21.0028 N   0  0  0  0  0  0  0  0  0  0  0  0
  -24.3070   19.1619  -20.4938 H   0  0  0  0  0  0  0  0  0  0  0  0
  -23.3715   18.9560  -22.4086 C   0  0  0  0  0  0  0  0  0  0  0  0
  -23.9253   18.3233  -23.4373 N   0  0  0  0  0  0  0  0  0  0  0  0
  -23.5728   18.8462  -24.6245 C   0  0  0  0  0  0  0  0  0  0  0  0
  -23.8667   18.5507  -25.9298 C   0  0  0  0  0  0  0  0  0  0  0  0
  -23.3506   19.2668  -26.9811 C   0  0  0  0  0  0  0  0  0  0  0  0
  -22.5005   20.3248  -26.7017 C   0  0  0  0  0  0  0  0  0  0  0  0
  -22.2110   20.6127  -25.3923 C   0  0  0  0  0  0  0  0  0  0  0  0
  -22.7233   19.9019  -24.3235 C   0  0  0  0  0  0  0  0  0  0  0  0
  -22.6172   19.9502  -23.0059 N   0  0  0  0  0  0  0  0  0  0  0  0
  -21.8456   20.8875  -22.2902 C   0  0  0  0  0  0  0  0  0  0  0  0
  -20.4790   20.8076  -22.1606 C   0  0  0  0  0  0  0  0  0  0  0  0
  -19.7700   21.7676  -21.4340 C   0  0  0  0  0  0  0  0  0  0  0  0
  -18.3692   21.6489  -21.3368 N   0  0  0  0  0  0  0  0  0  0  0  0
  -20.4770   22.7546  -20.8768 N   0  0  0  0  0  0  0  0  0  0  0  0
  -21.8096   22.8379  -21.0007 C   0  0  0  0  0  0  0  0  0  0  0  0
  -22.4890   21.9195  -21.6977 N   0  0  0  0  0  0  0  0  0  0  0  0
  -17.9448   21.3462  -20.4456 H   0  0  0  0  0  0  0  0  0  0  0  0
  -17.7754   21.8583  -22.1532 H   0  0  0  0  0  0  0  0  0  0  0  0
 23 24  1  0  0  0
 24 25  1  0  0  0
 25 26  1  0  0  0
 26 27  1  0  0  0
 27 28  1  0  0  0
 28 29  1  0  0  0
 27 22  1  0  0  0
 22 12  1  0  0  0
 12 13  2  0  0  0
 13 14  1  0  0  0
 14 15  2  0  0  0
 15 16  1  0  0  0
 16 17  2  0  0  0
 16 18  1  0  0  0
 18 19  1  0  0  0
 18 20  1  0  0  0
 18 21  1  0  0  0
 14  8  1  0  0  0
  8  9  2  0  0  0
  8 10  1  0  0  0
 10  1  1  0  0  0
  1  2  2  0  0  0
  2  3  1  0  0  0
  3  4  2  0  0  0
  4  5  1  0  0  0
  4  6  1  0  0  0
  6 30  1  0  0  0
 30 32  1  0  0  0
 32 33  2  0  0  0
 33 34  1  0  0  0
 34 35  2  0  0  0
 35 36  1  0  0  0
 36 37  2  0  0  0
 37 38  1  0  0  0
 38 39  2  0  0  0
 39 40  1  0  0  0
 40 41  1  0  0  0
 41 42  2  0  0  0
 42 43  1  0  0  0
 43 44  1  0  0  0
 43 45  2  0  0  0
 45 46  1  0  0  0
 46 47  2  0  0  0
  6  7  2  0  0  0
 29 24  1  0  0  0
 17 12  1  0  0  0
  7  1  1  0  0  0
 40 32  1  0  0  0
 47 41  1  0  0  0
 39 34  1  0  0  0
 10 11  1  0  0  0
 30 31  1  0  0  0
 44 48  1  0  0  0
 44 49  1  0  0  0
M  END
> <minimizedAffinity>
-10.92810

> <CNNscore>
0.0826043710

> <CNNaffinity>
7.0131821632

> <CNN_VS>
0.5793194771

> <CNNaffinity_variance>
0.8971624374

$$$$
[H]c1nc(N([H])[H])c([H])c(-n2c(N([H])c3c([H])c(N([H])C(=O)c4c([H])c(OC5([H])C([H])([H])C([H])([H])N(C([H])([H])[H])C([H])([H])C5([H])[H])c([H])c(C(F)(F)F)c4[H])c([H])c([H])c3C([H])([H])[H])nc3c([H])c([H])c([H])c([H])c32)n1


 49 54  0  0  0  0  0  0  0  0999 V2000
  -18.2504   11.3799  -19.0355 C   0  0  0  0  0  0  0  0  0  0  0  0
  -17.1082   10.5698  -19.0982 C   0  0  0  0  0  0  0  0  0  0  0  0
  -16.3014   10.6570  -20.1925 C   0  0  0  0  0  0  0  0  0  0  0  0
  -16.5625   11.5084  -21.2398 C   0  0  0  0  0  0  0  0  0  0  0  0
  -15.6494   11.5366  -22.4247 C   0  0  0  0  0  0  0  0  0  0  0  0
  -17.6908   12.3351  -21.2214 C   0  0  0  0  0  0  0  0  0  0  0  0
  -18.4859   12.2363  -20.1227 C   0  0  0  0  0  0  0  0  0  0  0  0
  -19.2924   12.2683  -16.9605 C   0  0  0  0  0  0  0  0  0  0  0  0
  -18.8448   13.4123  -16.9374 O   0  0  0  0  0  0  0  0  0  0  0  0
  -19.0643   11.2669  -17.8990 N   0  0  0  0  0  0  0  0  0  0  0  0
  -19.5550   10.3412  -17.7366 H   0  0  0  0  0  0  0  0  0  0  0  0
  -21.0046   10.4490  -14.1220 C   0  0  0  0  0  0  0  0  0  0  0  0
  -20.1558   10.7357  -15.1844 C   0  0  0  0  0  0  0  0  0  0  0  0
  -20.1945   11.9473  -15.8215 C   0  0  0  0  0  0  0  0  0  0  0  0
  -21.0787   12.9080  -15.4182 C   0  0  0  0  0  0  0  0  0  0  0  0
  -21.9405   12.6636  -14.3687 C   0  0  0  0  0  0  0  0  0  0  0  0
  -21.8921   11.4512  -13.7416 C   0  0  0  0  0  0  0  0  0  0  0  0
  -22.9217   13.7260  -13.9326 C   0  0  0  0  0  0  0  0  0  0  0  0
  -24.1508   13.4896  -14.5212 F   0  0  0  0  0  0  0  0  0  0  0  0
  -22.5123   14.9745  -14.2783 F   0  0  0  0  0  0  0  0  0  0  0  0
  -23.0982   13.6888  -12.5544 F   0  0  0  0  0  0  0  0  0  0  0  0
  -21.0061    9.2457  -13.4408 O   0  0  0  0  0  0  0  0  0  0  0  0
  -19.9855    4.6099  -14.5146 C   0  0  0  0  0  0  0  0  0  0  0  0
  -20.0843    6.0449  -14.7797 N   0  0  0  0  0  0  0  0  0  0  0  0
  -21.3390    6.4030  -15.3781 C   0  0  0  0  0  0  0  0  0  0  0  0
  -21.7835    7.8126  -15.1493 C   0  0  0  0  0  0  0  0  0  0  0  0
  -21.8488    8.1648  -13.6579 C   0  0  0  0  0  0  0  0  0  0  0  0
  -21.3039    6.9262  -12.9403 C   0  0  0  0  0  0  0  0  0  0  0  0
  -19.9030    6.7109  -13.5016 C   0  0  0  0  0  0  0  0  0  0  0  0
  -17.9019   13.2030  -22.2952 N   0  0  0  0  0  0  0  0  0  0  0  0
  -17.8515   12.7755  -23.2648 H   0  0  0  0  0  0  0  0  0  0  0  0
  -18.1712   14.5962  -22.1847 C   0  0  0  0  0  0  0  0  0  0  0  0
  -18.8753   15.2986  -21.3038 N   0  0  0  0  0  0  0  0  0  0  0  0
  -18.8678   16.6181  -21.5606 C   0  0  0  0  0  0  0  0  0  0  0  0
  -19.4315   17.7160  -20.9653 C   0  0  0  0  0  0  0  0  0  0  0  0
  -19.2602   18.9876  -21.4533 C   0  0  0  0  0  0  0  0  0  0  0  0
  -18.4883   19.1565  -22.5915 C   0  0  0  0  0  0  0  0  0  0  0  0
  -17.9287   18.0519  -23.1813 C   0  0  0  0  0  0  0  0  0  0  0  0
  -18.0912   16.7660  -22.7016 C   0  0  0  0  0  0  0  0  0  0  0  0
  -17.6880   15.5569  -23.0553 N   0  0  0  0  0  0  0  0  0  0  0  0
  -16.8704   15.2696  -24.1666 C   0  0  0  0  0  0  0  0  0  0  0  0
  -15.5070   15.4480  -24.1746 C   0  0  0  0  0  0  0  0  0  0  0  0
  -14.7509   15.1475  -25.3104 C   0  0  0  0  0  0  0  0  0  0  0  0
  -13.3553   15.3380  -25.2680 N   0  0  0  0  0  0  0  0  0  0  0  0
  -15.4101   14.6849  -26.3762 N   0  0  0  0  0  0  0  0  0  0  0  0
  -16.7393   14.5082  -26.3737 C   0  0  0  0  0  0  0  0  0  0  0  0
  -17.4639   14.7945  -25.2856 N   0  0  0  0  0  0  0  0  0  0  0  0
  -12.9343   16.1316  -25.7769 H   0  0  0  0  0  0  0  0  0  0  0  0
  -12.7621   14.6909  -24.7273 H   0  0  0  0  0  0  0  0  0  0  0  0
 23 24  1  0  0  0
 24 25  1  0  0  0
 25 26  1  0  0  0
 26 27  1  0  0  0
 27 28  1  0  0  0
 28 29  1  0  0  0
 27 22  1  0  0  0
 22 12  1  0  0  0
 12 13  2  0  0  0
 13 14  1  0  0  0
 14 15  2  0  0  0
 15 16  1  0  0  0
 16 17  2  0  0  0
 16 18  1  0  0  0
 18 19  1  0  0  0
 18 20  1  0  0  0
 18 21  1  0  0  0
 14  8  1  0  0  0
  8  9  2  0  0  0
  8 10  1  0  0  0
 10  1  1  0  0  0
  1  2  2  0  0  0
  2  3  1  0  0  0
  3  4  2  0  0  0
  4  5  1  0  0  0
  4  6  1  0  0  0
  6 30  1  0  0  0
 30 32  1  0  0  0
 32 33  2  0  0  0
 33 34  1  0  0  0
 34 35  2  0  0  0
 35 36  1  0  0  0
 36 37  2  0  0  0
 37 38  1  0  0  0
 38 39  2  0  0  0
 39 40  1  0  0  0
 40 41  1  0  0  0
 41 42  2  0  0  0
 42 43  1  0  0  0
 43 44  1  0  0  0
 43 45  2  0  0  0
 45 46  1  0  0  0
 46 47  2  0  0  0
  6  7  2  0  0  0
 29 24  1  0  0  0
 17 12  1  0  0  0
  7  1  1  0  0  0
 40 32  1  0  0  0
 47 41  1  0  0  0
 39 34  1  0  0  0
 10 11  1  0  0  0
 30 31  1  0  0  0
 44 48  1  0  0  0
 44 49  1  0  0  0
M  END
> <minimizedAffinity>
-9.21207

> <CNNscore>
0.0778520331

> <CNNaffinity>
6.8163809776

> <CNN_VS>
0.5306690931

> <CNNaffinity_variance>
0.4187169671

$$$$
[H]c1nc(N([H])[H])c([H])c(-n2c(N([H])c3c([H])c(N([H])C(=O)c4c([H])c(OC5([H])C([H])([H])C([H])([H])N(C([H])([H])[H])C([H])([H])C5([H])[H])c([H])c(C(F)(F)F)c4[H])c([H])c([H])c3C([H])([H])[H])nc3c([H])c([H])c([H])c([H])c32)n1


 49 54  0  0  0  0  0  0  0  0999 V2000
  -18.2152   11.6338  -19.0951 C   0  0  0  0  0  0  0  0  0  0  0  0
  -17.6171   10.5268  -19.7127 C   0  0  0  0  0  0  0  0  0  0  0  0
  -16.8803   10.7240  -20.8415 C   0  0  0  0  0  0  0  0  0  0  0  0
  -16.6994   11.9667  -21.4007 C   0  0  0  0  0  0  0  0  0  0  0  0
  -15.8994   12.1110  -22.6569 C   0  0  0  0  0  0  0  0  0  0  0  0
  -17.2776   13.1002  -20.8196 C   0  0  0  0  0  0  0  0  0  0  0  0
  -18.0099   12.8869  -19.6939 C   0  0  0  0  0  0  0  0  0  0  0  0
  -19.1198   10.1742  -17.2973 C   0  0  0  0  0  0  0  0  0  0  0  0
  -18.6378    9.0867  -17.6052 O   0  0  0  0  0  0  0  0  0  0  0  0
  -18.9706   11.4009  -17.9367 N   0  0  0  0  0  0  0  0  0  0  0  0
  -19.4715   12.2283  -17.5025 H   0  0  0  0  0  0  0  0  0  0  0  0
  -21.7830   10.9691  -14.7335 C   0  0  0  0  0  0  0  0  0  0  0  0
  -21.0005   11.0142  -15.8810 C   0  0  0  0  0  0  0  0  0  0  0  0
  -19.9664   10.1375  -16.0742 C   0  0  0  0  0  0  0  0  0  0  0  0
  -19.6828    9.1905  -15.1307 C   0  0  0  0  0  0  0  0  0  0  0  0
  -20.4339    9.1125  -13.9759 C   0  0  0  0  0  0  0  0  0  0  0  0
  -21.4626    9.9926  -13.7950 C   0  0  0  0  0  0  0  0  0  0  0  0
  -20.1107    8.0691  -12.9324 C   0  0  0  0  0  0  0  0  0  0  0  0
  -21.2765    7.6616  -12.3097 F   0  0  0  0  0  0  0  0  0  0  0  0
  -19.2586    8.5394  -11.9844 F   0  0  0  0  0  0  0  0  0  0  0  0
  -19.5339    6.9516  -13.5244 F   0  0  0  0  0  0  0  0  0  0  0  0
  -22.8405   11.8258  -14.4883 O   0  0  0  0  0  0  0  0  0  0  0  0
  -26.1920   15.2883  -13.8073 C   0  0  0  0  0  0  0  0  0  0  0  0
  -25.1386   14.5832  -14.5371 N   0  0  0  0  0  0  0  0  0  0  0  0
  -23.8366   15.1283  -14.2759 C   0  0  0  0  0  0  0  0  0  0  0  0
  -22.6928   14.1825  -14.4598 C   0  0  0  0  0  0  0  0  0  0  0  0
  -22.8535   12.9086  -13.6208 C   0  0  0  0  0  0  0  0  0  0  0  0
  -24.2344   13.0406  -12.9717 C   0  0  0  0  0  0  0  0  0  0  0  0
  -25.2172   13.1918  -14.1273 C   0  0  0  0  0  0  0  0  0  0  0  0
  -17.0452   14.3458  -21.4075 N   0  0  0  0  0  0  0  0  0  0  0  0
  -16.0408   14.5635  -21.6709 H   0  0  0  0  0  0  0  0  0  0  0  0
  -18.0405   15.3285  -21.6707 C   0  0  0  0  0  0  0  0  0  0  0  0
  -18.8641   15.9965  -20.8703 N   0  0  0  0  0  0  0  0  0  0  0  0
  -19.6549   16.8575  -21.5339 C   0  0  0  0  0  0  0  0  0  0  0  0
  -20.6386   17.7376  -21.1661 C   0  0  0  0  0  0  0  0  0  0  0  0
  -21.3083   18.5163  -22.0770 C   0  0  0  0  0  0  0  0  0  0  0  0
  -20.9708   18.3994  -23.4158 C   0  0  0  0  0  0  0  0  0  0  0  0
  -19.9858   17.5153  -23.7750 C   0  0  0  0  0  0  0  0  0  0  0  0
  -19.3022   16.7255  -22.8700 C   0  0  0  0  0  0  0  0  0  0  0  0
  -18.3444   15.8153  -22.9297 N   0  0  0  0  0  0  0  0  0  0  0  0
  -17.7048   15.3901  -24.1113 C   0  0  0  0  0  0  0  0  0  0  0  0
  -17.8640   14.1368  -24.6542 C   0  0  0  0  0  0  0  0  0  0  0  0
  -17.1988   13.7736  -25.8279 C   0  0  0  0  0  0  0  0  0  0  0  0
  -17.4006   12.4809  -26.3515 N   0  0  0  0  0  0  0  0  0  0  0  0
  -16.4087   14.6926  -26.3896 N   0  0  0  0  0  0  0  0  0  0  0  0
  -16.2503   15.9165  -25.8651 C   0  0  0  0  0  0  0  0  0  0  0  0
  -16.8884   16.2654  -24.7416 N   0  0  0  0  0  0  0  0  0  0  0  0
  -16.6511   11.7758  -26.2690 H   0  0  0  0  0  0  0  0  0  0  0  0
  -18.2936   12.2426  -26.8085 H   0  0  0  0  0  0  0  0  0  0  0  0
 23 24  1  0  0  0
 24 25  1  0  0  0
 25 26  1  0  0  0
 26 27  1  0  0  0
 27 28  1  0  0  0
 28 29  1  0  0  0
 27 22  1  0  0  0
 22 12  1  0  0  0
 12 13  2  0  0  0
 13 14  1  0  0  0
 14 15  2  0  0  0
 15 16  1  0  0  0
 16 17  2  0  0  0
 16 18  1  0  0  0
 18 19  1  0  0  0
 18 20  1  0  0  0
 18 21  1  0  0  0
 14  8  1  0  0  0
  8  9  2  0  0  0
  8 10  1  0  0  0
 10  1  1  0  0  0
  1  2  2  0  0  0
  2  3  1  0  0  0
  3  4  2  0  0  0
  4  5  1  0  0  0
  4  6  1  0  0  0
  6 30  1  0  0  0
 30 32  1  0  0  0
 32 33  2  0  0  0
 33 34  1  0  0  0
 34 35  2  0  0  0
 35 36  1  0  0  0
 36 37  2  0  0  0
 37 38  1  0  0  0
 38 39  2  0  0  0
 39 40  1  0  0  0
 40 41  1  0  0  0
 41 42  2  0  0  0
 42 43  1  0  0  0
 43 44  1  0  0  0
 43 45  2  0  0  0
 45 46  1  0  0  0
 46 47  2  0  0  0
  6  7  2  0  0  0
 29 24  1  0  0  0
 17 12  1  0  0  0
  7  1  1  0  0  0
 40 32  1  0  0  0
 47 41  1  0  0  0
 39 34  1  0  0  0
 10 11  1  0  0  0
 30 31  1  0  0  0
 44 48  1  0  0  0
 44 49  1  0  0  0
M  END
> <minimizedAffinity>
-9.28042

> <CNNscore>
0.0602012016

> <CNNaffinity>
6.7698545456

> <CNN_VS>
0.4075533748

> <CNNaffinity_variance>
0.2086579800

$$$$
[H]c1nc(N([H])[H])c2c(-c3c([H])nc4c(c3[H])c([H])c([H])n4[H])nn(C([H])([H])C([H])([H])N3C([H])([H])C([H])([H])C([H])(C([H])([H])N(C([H])([H])[H])C([H])([H])[H])C([H])([H])C3([H])[H])c2n1


 34 38  0  0  0  0  0  0  0  0999 V2000
  -18.4458   12.9105  -20.6314 N   0  0  0  0  0  0  0  0  0  0  0  0
  -18.1782   13.7569  -21.5919 N   0  0  0  0  0  0  0  0  0  0  0  0
  -17.0705   13.3644  -22.3116 C   0  0  0  0  0  0  0  0  0  0  0  0
  -16.6288   12.1973  -21.7576 C   0  0  0  0  0  0  0  0  0  0  0  0
  -15.5902   11.3381  -22.0505 C   0  0  0  0  0  0  0  0  0  0  0  0
  -14.6892   11.5294  -23.1185 N   0  0  0  0  0  0  0  0  0  0  0  0
  -15.4759   10.2333  -21.2557 N   0  0  0  0  0  0  0  0  0  0  0  0
  -16.3273    9.9930  -20.2436 C   0  0  0  0  0  0  0  0  0  0  0  0
  -17.3435   10.8419  -19.9670 N   0  0  0  0  0  0  0  0  0  0  0  0
  -17.5082   11.9371  -20.7067 C   0  0  0  0  0  0  0  0  0  0  0  0
  -14.9696   11.3311  -24.0918 H   0  0  0  0  0  0  0  0  0  0  0  0
  -13.7334   11.8718  -22.9305 H   0  0  0  0  0  0  0  0  0  0  0  0
  -16.5414   14.0712  -23.4559 C   0  0  0  0  0  0  0  0  0  0  0  0
  -15.5140   14.9711  -23.2452 C   0  0  0  0  0  0  0  0  0  0  0  0
  -14.9435   15.6195  -24.2829 N   0  0  0  0  0  0  0  0  0  0  0  0
  -15.3429   15.4247  -25.5650 C   0  0  0  0  0  0  0  0  0  0  0  0
  -14.9694   15.9162  -26.7478 N   0  0  0  0  0  0  0  0  0  0  0  0
  -15.6914   15.3941  -27.7430 C   0  0  0  0  0  0  0  0  0  0  0  0
  -16.5844   14.5143  -27.1787 C   0  0  0  0  0  0  0  0  0  0  0  0
  -16.3628   14.5369  -25.8204 C   0  0  0  0  0  0  0  0  0  0  0  0
  -16.9485   13.8677  -24.7348 C   0  0  0  0  0  0  0  0  0  0  0  0
  -14.2122   16.6164  -26.8807 H   0  0  0  0  0  0  0  0  0  0  0  0
  -19.5481   12.9829  -19.6571 C   0  0  0  0  0  0  0  0  0  0  0  0
  -20.3297   14.2561  -19.9760 C   0  0  0  0  0  0  0  0  0  0  0  0
  -19.4517   16.5258  -16.5683 C   0  0  0  0  0  0  0  0  0  0  0  0
  -20.8219   15.9984  -16.8264 C   0  0  0  0  0  0  0  0  0  0  0  0
  -20.6521   14.7350  -17.7052 C   0  0  0  0  0  0  0  0  0  0  0  0
  -20.2266   15.2693  -18.9904 N   0  0  0  0  0  0  0  0  0  0  0  0
  -18.9532   15.9107  -18.9132 C   0  0  0  0  0  0  0  0  0  0  0  0
  -18.4132   15.9297  -17.5226 C   0  0  0  0  0  0  0  0  0  0  0  0
  -19.3714   18.0019  -16.7021 C   0  0  0  0  0  0  0  0  0  0  0  0
  -20.7578   19.8338  -15.8949 C   0  0  0  0  0  0  0  0  0  0  0  0
  -19.8202   18.8108  -15.6540 N   0  0  0  0  0  0  0  0  0  0  0  0
  -19.5743   18.4215  -14.3186 C   0  0  0  0  0  0  0  0  0  0  0  0
 32 33  1  0  0  0
 33 34  1  0  0  0
 33 31  1  0  0  0
 31 25  1  0  0  0
 25 26  1  0  0  0
 26 27  1  0  0  0
 27 28  1  0  0  0
 28 24  1  0  0  0
 24 23  1  0  0  0
 23  1  1  0  0  0
  1  2  1  0  0  0
  2  3  2  0  0  0
  3 13  1  0  0  0
 13 14  2  0  0  0
 14 15  1  0  0  0
 15 16  2  0  0  0
 16 17  1  0  0  0
 17 18  1  0  0  0
 18 19  2  0  0  0
 19 20  1  0  0  0
 20 21  2  0  0  0
  3  4  1  0  0  0
  4  5  2  0  0  0
  5  6  1  0  0  0
  5  7  1  0  0  0
  7  8  2  0  0  0
  8  9  1  0  0  0
  9 10  2  0  0  0
 28 29  1  0  0  0
 29 30  1  0  0  0
 30 25  1  0  0  0
 10  1  1  0  0  0
 21 13  1  0  0  0
 10  4  1  0  0  0
 20 16  1  0  0  0
 17 22  1  0  0  0
  6 11  1  0  0  0
  6 12  1  0  0  0
M  END
> <minimizedAffinity>
-9.02994

> <CNNscore>
0.9913769960

> <CNNaffinity>
8.0113258362

> <CNN_VS>
7.9422440529

> <CNNaffinity_variance>
0.0123617696

$$$$
[H]c1nc(N([H])[H])c2c(-c3c([H])nc4c(c3[H])c([H])c([H])n4[H])nn(C([H])([H])C([H])([H])N3C([H])([H])C([H])([H])C([H])(C([H])([H])N(C([H])([H])[H])C([H])([H])[H])C([H])([H])C3([H])[H])c2n1


 34 38  0  0  0  0  0  0  0  0999 V2000
  -18.4534   12.9045  -20.6795 N   0  0  0  0  0  0  0  0  0  0  0  0
  -18.1858   13.7552  -21.6363 N   0  0  0  0  0  0  0  0  0  0  0  0
  -17.0689   13.3740  -22.3478 C   0  0  0  0  0  0  0  0  0  0  0  0
  -16.6210   12.2100  -21.7925 C   0  0  0  0  0  0  0  0  0  0  0  0
  -15.5725   11.3608  -22.0788 C   0  0  0  0  0  0  0  0  0  0  0  0
  -14.6647   11.5623  -23.1392 N   0  0  0  0  0  0  0  0  0  0  0  0
  -15.4545   10.2555  -21.2851 N   0  0  0  0  0  0  0  0  0  0  0  0
  -16.3116   10.0055  -20.2803 C   0  0  0  0  0  0  0  0  0  0  0  0
  -17.3377   10.8446  -20.0103 N   0  0  0  0  0  0  0  0  0  0  0  0
  -17.5064   11.9398  -20.7492 C   0  0  0  0  0  0  0  0  0  0  0  0
  -14.9355   11.3633  -24.1150 H   0  0  0  0  0  0  0  0  0  0  0  0
  -13.7136   11.9129  -22.9429 H   0  0  0  0  0  0  0  0  0  0  0  0
  -16.5372   14.0879  -23.4865 C   0  0  0  0  0  0  0  0  0  0  0  0
  -15.5347   15.0125  -23.2631 C   0  0  0  0  0  0  0  0  0  0  0  0
  -14.9619   15.6692  -24.2942 N   0  0  0  0  0  0  0  0  0  0  0  0
  -15.3350   15.4594  -25.5819 C   0  0  0  0  0  0  0  0  0  0  0  0
  -14.9531   15.9541  -26.7607 N   0  0  0  0  0  0  0  0  0  0  0  0
  -15.6458   15.4109  -27.7653 C   0  0  0  0  0  0  0  0  0  0  0  0
  -16.5276   14.5131  -27.2117 C   0  0  0  0  0  0  0  0  0  0  0  0
  -16.3295   14.5469  -25.8500 C   0  0  0  0  0  0  0  0  0  0  0  0
  -16.9177   13.8691  -24.7711 C   0  0  0  0  0  0  0  0  0  0  0  0
  -14.2103   16.6712  -26.8843 H   0  0  0  0  0  0  0  0  0  0  0  0
  -19.5640   12.9650  -19.7139 C   0  0  0  0  0  0  0  0  0  0  0  0
  -18.9986   13.5837  -18.4366 C   0  0  0  0  0  0  0  0  0  0  0  0
  -21.1744   11.4578  -15.5589 C   0  0  0  0  0  0  0  0  0  0  0  0
  -21.3102   12.9346  -15.7102 C   0  0  0  0  0  0  0  0  0  0  0  0
  -20.9499   13.2644  -17.1796 C   0  0  0  0  0  0  0  0  0  0  0  0
  -19.5149   13.0292  -17.2388 N   0  0  0  0  0  0  0  0  0  0  0  0
  -19.1828   11.6587  -17.0144 C   0  0  0  0  0  0  0  0  0  0  0  0
  -20.3844   10.8286  -16.7098 C   0  0  0  0  0  0  0  0  0  0  0  0
  -20.4925   11.0714  -14.2984 C   0  0  0  0  0  0  0  0  0  0  0  0
  -19.2128    9.1486  -13.5270 C   0  0  0  0  0  0  0  0  0  0  0  0
  -20.4320    9.7223  -13.9372 N   0  0  0  0  0  0  0  0  0  0  0  0
  -21.6282    9.0120  -13.6925 C   0  0  0  0  0  0  0  0  0  0  0  0
 32 33  1  0  0  0
 33 34  1  0  0  0
 33 31  1  0  0  0
 31 25  1  0  0  0
 25 26  1  0  0  0
 26 27  1  0  0  0
 27 28  1  0  0  0
 28 24  1  0  0  0
 24 23  1  0  0  0
 23  1  1  0  0  0
  1  2  1  0  0  0
  2  3  2  0  0  0
  3 13  1  0  0  0
 13 14  2  0  0  0
 14 15  1  0  0  0
 15 16  2  0  0  0
 16 17  1  0  0  0
 17 18  1  0  0  0
 18 19  2  0  0  0
 19 20  1  0  0  0
 20 21  2  0  0  0
  3  4  1  0  0  0
  4  5  2  0  0  0
  5  6  1  0  0  0
  5  7  1  0  0  0
  7  8  2  0  0  0
  8  9  1  0  0  0
  9 10  2  0  0  0
 28 29  1  0  0  0
 29 30  1  0  0  0
 30 25  1  0  0  0
 10  1  1  0  0  0
 21 13  1  0  0  0
 10  4  1  0  0  0
 20 16  1  0  0  0
 17 22  1  0  0  0
  6 11  1  0  0  0
  6 12  1  0  0  0
M  END
> <minimizedAffinity>
-9.06875

> <CNNscore>
0.9890761375

> <CNNaffinity>
7.7719168663

> <CNN_VS>
7.6870174408

> <CNNaffinity_variance>
0.0183549915

$$$$
[H]c1nc(N([H])[H])c2c(-c3c([H])nc4c(c3[H])c([H])c([H])n4[H])nn(C([H])([H])C([H])([H])N3C([H])([H])C([H])([H])C([H])(C([H])([H])N(C([H])([H])[H])C([H])([H])[H])C([H])([H])C3([H])[H])c2n1


 34 38  0  0  0  0  0  0  0  0999 V2000
  -18.3506   12.9317  -20.3091 N   0  0  0  0  0  0  0  0  0  0  0  0
  -18.1309   13.7934  -21.2682 N   0  0  0  0  0  0  0  0  0  0  0  0
  -17.0963   13.3847  -22.0817 C   0  0  0  0  0  0  0  0  0  0  0  0
  -16.6517   12.1908  -21.5909 C   0  0  0  0  0  0  0  0  0  0  0  0
  -15.6682   11.3072  -21.9843 C   0  0  0  0  0  0  0  0  0  0  0  0
  -14.8474   11.4972  -23.1154 N   0  0  0  0  0  0  0  0  0  0  0  0
  -15.5289   10.1796  -21.2263 N   0  0  0  0  0  0  0  0  0  0  0  0
  -16.3062    9.9405  -20.1560 C   0  0  0  0  0  0  0  0  0  0  0  0
  -17.2691   10.8135  -19.7810 N   0  0  0  0  0  0  0  0  0  0  0  0
  -17.4545   11.9317  -20.4803 C   0  0  0  0  0  0  0  0  0  0  0  0
  -15.2094   11.3325  -24.0678 H   0  0  0  0  0  0  0  0  0  0  0  0
  -13.8691   11.8047  -22.9955 H   0  0  0  0  0  0  0  0  0  0  0  0
  -16.6351   14.1035  -23.2477 C   0  0  0  0  0  0  0  0  0  0  0  0
  -15.7097   15.1133  -23.0641 C   0  0  0  0  0  0  0  0  0  0  0  0
  -15.2019   15.7819  -24.1213 N   0  0  0  0  0  0  0  0  0  0  0  0
  -15.5680   15.5020  -25.3976 C   0  0  0  0  0  0  0  0  0  0  0  0
  -15.2385   15.9889  -26.5953 N   0  0  0  0  0  0  0  0  0  0  0  0
  -15.8933   15.3597  -27.5748 C   0  0  0  0  0  0  0  0  0  0  0  0
  -16.6936   14.4108  -26.9840 C   0  0  0  0  0  0  0  0  0  0  0  0
  -16.4868   14.5034  -25.6263 C   0  0  0  0  0  0  0  0  0  0  0  0
  -17.0079   13.8142  -24.5205 C   0  0  0  0  0  0  0  0  0  0  0  0
  -14.5580   16.7600  -26.7493 H   0  0  0  0  0  0  0  0  0  0  0  0
  -19.3705   13.0139  -19.2495 C   0  0  0  0  0  0  0  0  0  0  0  0
  -18.6238   13.2881  -17.9453 C   0  0  0  0  0  0  0  0  0  0  0  0
  -20.3726   16.9198  -16.8108 C   0  0  0  0  0  0  0  0  0  0  0  0
  -18.8987   16.7812  -16.9857 C   0  0  0  0  0  0  0  0  0  0  0  0
  -18.6789   15.6299  -17.9975 C   0  0  0  0  0  0  0  0  0  0  0  0
  -19.0638   14.4420  -17.2498 N   0  0  0  0  0  0  0  0  0  0  0  0
  -20.4488   14.4478  -16.9029 C   0  0  0  0  0  0  0  0  0  0  0  0
  -21.1346   15.7000  -17.3358 C   0  0  0  0  0  0  0  0  0  0  0  0
  -20.7663   17.1033  -15.3915 C   0  0  0  0  0  0  0  0  0  0  0  0
  -21.0302   19.5208  -15.5178 C   0  0  0  0  0  0  0  0  0  0  0  0
  -21.4348   18.2705  -15.0107 N   0  0  0  0  0  0  0  0  0  0  0  0
  -22.6881   18.1772  -14.3661 C   0  0  0  0  0  0  0  0  0  0  0  0
 32 33  1  0  0  0
 33 34  1  0  0  0
 33 31  1  0  0  0
 31 25  1  0  0  0
 25 26  1  0  0  0
 26 27  1  0  0  0
 27 28  1  0  0  0
 28 24  1  0  0  0
 24 23  1  0  0  0
 23  1  1  0  0  0
  1  2  1  0  0  0
  2  3  2  0  0  0
  3 13  1  0  0  0
 13 14  2  0  0  0
 14 15  1  0  0  0
 15 16  2  0  0  0
 16 17  1  0  0  0
 17 18  1  0  0  0
 18 19  2  0  0  0
 19 20  1  0  0  0
 20 21  2  0  0  0
  3  4  1  0  0  0
  4  5  2  0  0  0
  5  6  1  0  0  0
  5  7  1  0  0  0
  7  8  2  0  0  0
  8  9  1  0  0  0
  9 10  2  0  0  0
 28 29  1  0  0  0
 29 30  1  0  0  0
 30 25  1  0  0  0
 10  1  1  0  0  0
 21 13  1  0  0  0
 10  4  1  0  0  0
 20 16  1  0  0  0
 17 22  1  0  0  0
  6 11  1  0  0  0
  6 12  1  0  0  0
M  END
> <minimizedAffinity>
-8.51690

> <CNNscore>
0.9887760878

> <CNNaffinity>
7.9492158890

> <CNN_VS>
7.8599944115

> <CNNaffinity_variance>
0.0256032832

$$$$
[H]c1nc(N([H])[H])c2c(-c3c([H])nc4c(c3[H])c([H])c([H])n4[H])nn(C([H])([H])C([H])([H])N3C([H])([H])C([H])([H])C([H])(C([H])([H])N(C([H])([H])[H])C([H])([H])[H])C([H])([H])C3([H])[H])c2n1


 34 38  0  0  0  0  0  0  0  0999 V2000
  -18.5460   12.7398  -20.4823 N   0  0  0  0  0  0  0  0  0  0  0  0
  -18.3727   13.4198  -21.5860 N   0  0  0  0  0  0  0  0  0  0  0  0
  -17.2897   12.9517  -22.2981 C   0  0  0  0  0  0  0  0  0  0  0  0
  -16.7632   11.9131  -21.5853 C   0  0  0  0  0  0  0  0  0  0  0  0
  -15.7034   11.0555  -21.7951 C   0  0  0  0  0  0  0  0  0  0  0  0
  -14.8735   11.0954  -22.9347 N   0  0  0  0  0  0  0  0  0  0  0  0
  -15.4930   10.1070  -20.8351 N   0  0  0  0  0  0  0  0  0  0  0  0
  -16.2741   10.0111  -19.7453 C   0  0  0  0  0  0  0  0  0  0  0  0
  -17.3121   10.8566  -19.5514 N   0  0  0  0  0  0  0  0  0  0  0  0
  -17.5693   11.8031  -20.4524 C   0  0  0  0  0  0  0  0  0  0  0  0
  -15.1984   10.7241  -23.8413 H   0  0  0  0  0  0  0  0  0  0  0  0
  -13.9259   11.4998  -22.8674 H   0  0  0  0  0  0  0  0  0  0  0  0
  -16.8594   13.4726  -23.5758 C   0  0  0  0  0  0  0  0  0  0  0  0
  -17.5161   13.0348  -24.7101 C   0  0  0  0  0  0  0  0  0  0  0  0
  -17.1944   13.5278  -25.9250 N   0  0  0  0  0  0  0  0  0  0  0  0
  -16.2254   14.4628  -26.0926 C   0  0  0  0  0  0  0  0  0  0  0  0
  -15.7148   15.1052  -27.1446 N   0  0  0  0  0  0  0  0  0  0  0  0
  -14.7493   15.9521  -26.7777 C   0  0  0  0  0  0  0  0  0  0  0  0
  -14.6231   15.8570  -25.4120 C   0  0  0  0  0  0  0  0  0  0  0  0
  -15.5461   14.9272  -24.9897 C   0  0  0  0  0  0  0  0  0  0  0  0
  -15.8887   14.4088  -23.7314 C   0  0  0  0  0  0  0  0  0  0  0  0
  -16.0276   14.9663  -28.1266 H   0  0  0  0  0  0  0  0  0  0  0  0
  -19.5942   12.9363  -19.4662 C   0  0  0  0  0  0  0  0  0  0  0  0
  -19.0117   12.4532  -18.1391 C   0  0  0  0  0  0  0  0  0  0  0  0
  -20.9122   10.3387  -15.0648 C   0  0  0  0  0  0  0  0  0  0  0  0
  -20.4121    9.6559  -16.2920 C   0  0  0  0  0  0  0  0  0  0  0  0
  -19.2484   10.5200  -16.8367 C   0  0  0  0  0  0  0  0  0  0  0  0
  -19.9159   11.7124  -17.3375 N   0  0  0  0  0  0  0  0  0  0  0  0
  -20.5482   12.4552  -16.2948 C   0  0  0  0  0  0  0  0  0  0  0  0
  -20.4218   11.7859  -14.9675 C   0  0  0  0  0  0  0  0  0  0  0  0
  -22.3943   10.3738  -14.9924 C   0  0  0  0  0  0  0  0  0  0  0  0
  -23.9608   11.9895  -14.0620 C   0  0  0  0  0  0  0  0  0  0  0  0
  -23.0130   10.9626  -13.8856 N   0  0  0  0  0  0  0  0  0  0  0  0
  -22.9220   10.3379  -12.6221 C   0  0  0  0  0  0  0  0  0  0  0  0
 32 33  1  0  0  0
 33 34  1  0  0  0
 33 31  1  0  0  0
 31 25  1  0  0  0
 25 26  1  0  0  0
 26 27  1  0  0  0
 27 28  1  0  0  0
 28 24  1  0  0  0
 24 23  1  0  0  0
 23  1  1  0  0  0
  1  2  1  0  0  0
  2  3  2  0  0  0
  3 13  1  0  0  0
 13 14  2  0  0  0
 14 15  1  0  0  0
 15 16  2  0  0  0
 16 17  1  0  0  0
 17 18  1  0  0  0
 18 19  2  0  0  0
 19 20  1  0  0  0
 20 21  2  0  0  0
  3  4  1  0  0  0
  4  5  2  0  0  0
  5  6  1  0  0  0
  5  7  1  0  0  0
  7  8  2  0  0  0
  8  9  1  0  0  0
  9 10  2  0  0  0
 28 29  1  0  0  0
 29 30  1  0  0  0
 30 25  1  0  0  0
 10  1  1  0  0  0
 21 13  1  0  0  0
 10  4  1  0  0  0
 20 16  1  0  0  0
 17 22  1  0  0  0
  6 11  1  0  0  0
  6 12  1  0  0  0
M  END
> <minimizedAffinity>
-8.19414

> <CNNscore>
0.9858977795

> <CNNaffinity>
7.6973657608

> <CNN_VS>
7.5888156891

> <CNNaffinity_variance>
0.0145898135

$$$$
[H]c1nc(N([H])[H])c2c(-c3c([H])nc4c(c3[H])c([H])c([H])n4[H])nn(C([H])([H])C([H])([H])N3C([H])([H])C([H])([H])C([H])(C([H])([H])N(C([H])([H])[H])C([H])([H])[H])C([H])([H])C3([H])[H])c2n1


 34 38  0  0  0  0  0  0  0  0999 V2000
  -18.4339   12.9184  -20.6484 N   0  0  0  0  0  0  0  0  0  0  0  0
  -18.1720   13.7663  -21.6092 N   0  0  0  0  0  0  0  0  0  0  0  0
  -17.0610   13.3815  -22.3281 C   0  0  0  0  0  0  0  0  0  0  0  0
  -16.6111   12.2181  -21.7733 C   0  0  0  0  0  0  0  0  0  0  0  0
  -15.5661   11.3664  -22.0653 C   0  0  0  0  0  0  0  0  0  0  0  0
  -14.6659   11.5637  -23.1329 N   0  0  0  0  0  0  0  0  0  0  0  0
  -15.4441   10.2628  -21.2698 N   0  0  0  0  0  0  0  0  0  0  0  0
  -16.2941   10.0167  -20.2580 C   0  0  0  0  0  0  0  0  0  0  0  0
  -17.3167   10.8583  -19.9824 N   0  0  0  0  0  0  0  0  0  0  0  0
  -17.4891   11.9519  -20.7228 C   0  0  0  0  0  0  0  0  0  0  0  0
  -14.9443   11.3628  -24.1062 H   0  0  0  0  0  0  0  0  0  0  0  0
  -13.7128   11.9132  -22.9445 H   0  0  0  0  0  0  0  0  0  0  0  0
  -16.5366   14.0917  -23.4725 C   0  0  0  0  0  0  0  0  0  0  0  0
  -15.5308   15.0150  -23.2588 C   0  0  0  0  0  0  0  0  0  0  0  0
  -14.9646   15.6682  -24.2957 N   0  0  0  0  0  0  0  0  0  0  0  0
  -15.3477   15.4560  -25.5801 C   0  0  0  0  0  0  0  0  0  0  0  0
  -14.9738   15.9472  -26.7629 N   0  0  0  0  0  0  0  0  0  0  0  0
  -15.6750   15.4029  -27.7609 C   0  0  0  0  0  0  0  0  0  0  0  0
  -16.5543   14.5080  -27.1986 C   0  0  0  0  0  0  0  0  0  0  0  0
  -16.3458   14.5447  -25.8385 C   0  0  0  0  0  0  0  0  0  0  0  0
  -16.9272   13.8706  -24.7537 C   0  0  0  0  0  0  0  0  0  0  0  0
  -14.2306   16.6627  -26.8938 H   0  0  0  0  0  0  0  0  0  0  0  0
  -19.5371   12.9832  -19.6747 C   0  0  0  0  0  0  0  0  0  0  0  0
  -19.0754   13.9119  -18.5530 C   0  0  0  0  0  0  0  0  0  0  0  0
  -19.6759   18.0411  -18.9044 C   0  0  0  0  0  0  0  0  0  0  0  0
  -20.0829   17.0960  -19.9829 C   0  0  0  0  0  0  0  0  0  0  0  0
  -20.3480   15.7319  -19.2999 C   0  0  0  0  0  0  0  0  0  0  0  0
  -19.0193   15.2818  -18.9123 N   0  0  0  0  0  0  0  0  0  0  0  0
  -18.4218   16.1385  -17.9387 C   0  0  0  0  0  0  0  0  0  0  0  0
  -19.2823   17.3136  -17.6159 C   0  0  0  0  0  0  0  0  0  0  0  0
  -18.5248   18.8934  -19.2939 C   0  0  0  0  0  0  0  0  0  0  0  0
  -18.3461   19.5569  -21.6301 C   0  0  0  0  0  0  0  0  0  0  0  0
  -17.9499   18.7335  -20.5581 N   0  0  0  0  0  0  0  0  0  0  0  0
  -16.7726   17.9654  -20.6964 C   0  0  0  0  0  0  0  0  0  0  0  0
 32 33  1  0  0  0
 33 34  1  0  0  0
 33 31  1  0  0  0
 31 25  1  0  0  0
 25 26  1  0  0  0
 26 27  1  0  0  0
 27 28  1  0  0  0
 28 24  1  0  0  0
 24 23  1  0  0  0
 23  1  1  0  0  0
  1  2  1  0  0  0
  2  3  2  0  0  0
  3 13  1  0  0  0
 13 14  2  0  0  0
 14 15  1  0  0  0
 15 16  2  0  0  0
 16 17  1  0  0  0
 17 18  1  0  0  0
 18 19  2  0  0  0
 19 20  1  0  0  0
 20 21  2  0  0  0
  3  4  1  0  0  0
  4  5  2  0  0  0
  5  6  1  0  0  0
  5  7  1  0  0  0
  7  8  2  0  0  0
  8  9  1  0  0  0
  9 10  2  0  0  0
 28 29  1  0  0  0
 29 30  1  0  0  0
 30 25  1  0  0  0
 10  1  1  0  0  0
 21 13  1  0  0  0
 10  4  1  0  0  0
 20 16  1  0  0  0
 17 22  1  0  0  0
  6 11  1  0  0  0
  6 12  1  0  0  0
M  END
> <minimizedAffinity>
-9.04466

> <CNNscore>
0.9851225615

> <CNNaffinity>
8.1681032181

> <CNN_VS>
8.0465831757

> <CNNaffinity_variance>
0.0894748196

$$$$
[H]c1nc(N([H])[H])c2c(-c3c([H])nc4c(c3[H])c([H])c([H])n4[H])nn(C([H])([H])C([H])([H])N3C([H])([H])C([H])([H])C([H])(C([H])([H])N(C([H])([H])[H])C([H])([H])[H])C([H])([H])C3([H])[H])c2n1


 34 38  0  0  0  0  0  0  0  0999 V2000
  -18.4812   12.9565  -20.7567 N   0  0  0  0  0  0  0  0  0  0  0  0
  -18.2068   13.8000  -21.7178 N   0  0  0  0  0  0  0  0  0  0  0  0
  -17.0814   13.4167  -22.4147 C   0  0  0  0  0  0  0  0  0  0  0  0
  -16.6353   12.2590  -21.8450 C   0  0  0  0  0  0  0  0  0  0  0  0
  -15.5810   11.4110  -22.1134 C   0  0  0  0  0  0  0  0  0  0  0  0
  -14.6632   11.6067  -23.1662 N   0  0  0  0  0  0  0  0  0  0  0  0
  -15.4674   10.3129  -21.3091 N   0  0  0  0  0  0  0  0  0  0  0  0
  -16.3339   10.0685  -20.3110 C   0  0  0  0  0  0  0  0  0  0  0  0
  -17.3655   10.9063  -20.0586 N   0  0  0  0  0  0  0  0  0  0  0  0
  -17.5303   11.9946  -20.8085 C   0  0  0  0  0  0  0  0  0  0  0  0
  -14.9234   11.3985  -24.1430 H   0  0  0  0  0  0  0  0  0  0  0  0
  -13.7153   11.9623  -22.9632 H   0  0  0  0  0  0  0  0  0  0  0  0
  -16.5405   14.1227  -23.5540 C   0  0  0  0  0  0  0  0  0  0  0  0
  -15.5247   15.0329  -23.3316 C   0  0  0  0  0  0  0  0  0  0  0  0
  -14.9436   15.6813  -24.3633 N   0  0  0  0  0  0  0  0  0  0  0  0
  -15.3207   15.4766  -25.6506 C   0  0  0  0  0  0  0  0  0  0  0  0
  -14.9328   15.9656  -26.8298 N   0  0  0  0  0  0  0  0  0  0  0  0
  -15.6341   15.4322  -27.8337 C   0  0  0  0  0  0  0  0  0  0  0  0
  -16.5281   14.5471  -27.2793 C   0  0  0  0  0  0  0  0  0  0  0  0
  -16.3283   14.5784  -25.9177 C   0  0  0  0  0  0  0  0  0  0  0  0
  -16.9253   13.9092  -24.8382 C   0  0  0  0  0  0  0  0  0  0  0  0
  -14.1799   16.6721  -26.9542 H   0  0  0  0  0  0  0  0  0  0  0  0
  -19.6018   13.0214  -19.8029 C   0  0  0  0  0  0  0  0  0  0  0  0
  -19.1853   13.9997  -18.7060 C   0  0  0  0  0  0  0  0  0  0  0  0
  -20.3518   17.8192  -19.9651 C   0  0  0  0  0  0  0  0  0  0  0  0
  -19.4011   17.6240  -18.8336 C   0  0  0  0  0  0  0  0  0  0  0  0
  -18.7022   16.2630  -19.0719 C   0  0  0  0  0  0  0  0  0  0  0  0
  -19.7570   15.2912  -18.8247 N   0  0  0  0  0  0  0  0  0  0  0  0
  -20.8210   15.3969  -19.7710 C   0  0  0  0  0  0  0  0  0  0  0  0
  -20.6138   16.5197  -20.7313 C   0  0  0  0  0  0  0  0  0  0  0  0
  -21.6699   18.3388  -19.5227 C   0  0  0  0  0  0  0  0  0  0  0  0
  -23.9086   18.0964  -20.4497 C   0  0  0  0  0  0  0  0  0  0  0  0
  -22.6282   18.6825  -20.4807 N   0  0  0  0  0  0  0  0  0  0  0  0
  -22.4275   19.8231  -21.2893 C   0  0  0  0  0  0  0  0  0  0  0  0
 32 33  1  0  0  0
 33 34  1  0  0  0
 33 31  1  0  0  0
 31 25  1  0  0  0
 25 26  1  0  0  0
 26 27  1  0  0  0
 27 28  1  0  0  0
 28 24  1  0  0  0
 24 23  1  0  0  0
 23  1  1  0  0  0
  1  2  1  0  0  0
  2  3  2  0  0  0
  3 13  1  0  0  0
 13 14  2  0  0  0
 14 15  1  0  0  0
 15 16  2  0  0  0
 16 17  1  0  0  0
 17 18  1  0  0  0
 18 19  2  0  0  0
 19 20  1  0  0  0
 20 21  2  0  0  0
  3  4  1  0  0  0
  4  5  2  0  0  0
  5  6  1  0  0  0
  5  7  1  0  0  0
  7  8  2  0  0  0
  8  9  1  0  0  0
  9 10  2  0  0  0
 28 29  1  0  0  0
 29 30  1  0  0  0
 30 25  1  0  0  0
 10  1  1  0  0  0
 21 13  1  0  0  0
 10  4  1  0  0  0
 20 16  1  0  0  0
 17 22  1  0  0  0
  6 11  1  0  0  0
  6 12  1  0  0  0
M  END
> <minimizedAffinity>
-8.78254

> <CNNscore>
0.9786653519

> <CNNaffinity>
8.0348043442

> <CNN_VS>
7.8633847237

> <CNNaffinity_variance>
0.0077086850

$$$$
[H]c1nc(N([H])[H])c2c(-c3c([H])nc4c(c3[H])c([H])c([H])n4[H])nn(C([H])([H])C([H])([H])N3C([H])([H])C([H])([H])C([H])(C([H])([H])N(C([H])([H])[H])C([H])([H])[H])C([H])([H])C3([H])[H])c2n1


 34 38  0  0  0  0  0  0  0  0999 V2000
  -18.4953   12.8683  -20.4124 N   0  0  0  0  0  0  0  0  0  0  0  0
  -18.3484   13.5088  -21.5432 N   0  0  0  0  0  0  0  0  0  0  0  0
  -17.2953   13.0017  -22.2733 C   0  0  0  0  0  0  0  0  0  0  0  0
  -16.7602   11.9797  -21.5431 C   0  0  0  0  0  0  0  0  0  0  0  0
  -15.7194   11.1003  -21.7574 C   0  0  0  0  0  0  0  0  0  0  0  0
  -14.9261   11.0904  -22.9235 N   0  0  0  0  0  0  0  0  0  0  0  0
  -15.4909   10.1812  -20.7733 N   0  0  0  0  0  0  0  0  0  0  0  0
  -16.2378   10.1327  -19.6567 C   0  0  0  0  0  0  0  0  0  0  0  0
  -17.2575   10.9992  -19.4585 N   0  0  0  0  0  0  0  0  0  0  0  0
  -17.5308   11.9191  -20.3821 C   0  0  0  0  0  0  0  0  0  0  0  0
  -15.2849   10.6941  -23.8064 H   0  0  0  0  0  0  0  0  0  0  0  0
  -13.9715   11.4830  -22.8999 H   0  0  0  0  0  0  0  0  0  0  0  0
  -16.8994   13.4737  -23.5807 C   0  0  0  0  0  0  0  0  0  0  0  0
  -17.5798   12.9867  -24.6805 C   0  0  0  0  0  0  0  0  0  0  0  0
  -17.2907   13.4326  -25.9215 N   0  0  0  0  0  0  0  0  0  0  0  0
  -16.3328   14.3663  -26.1495 C   0  0  0  0  0  0  0  0  0  0  0  0
  -15.8521   14.9692  -27.2384 N   0  0  0  0  0  0  0  0  0  0  0  0
  -14.8843   15.8362  -26.9289 C   0  0  0  0  0  0  0  0  0  0  0  0
  -14.7249   15.7967  -25.5639 C   0  0  0  0  0  0  0  0  0  0  0  0
  -15.6308   14.8788  -25.0827 C   0  0  0  0  0  0  0  0  0  0  0  0
  -15.9395   14.4090  -23.7969 C   0  0  0  0  0  0  0  0  0  0  0  0
  -16.1871   14.7891  -28.2062 H   0  0  0  0  0  0  0  0  0  0  0  0
  -19.5075   13.1135  -19.3708 C   0  0  0  0  0  0  0  0  0  0  0  0
  -18.9447   14.2063  -18.4637 C   0  0  0  0  0  0  0  0  0  0  0  0
  -20.0631   17.8544  -20.1887 C   0  0  0  0  0  0  0  0  0  0  0  0
  -18.9719   17.7685  -19.1768 C   0  0  0  0  0  0  0  0  0  0  0  0
  -18.3925   16.3356  -19.2705 C   0  0  0  0  0  0  0  0  0  0  0  0
  -19.4538   15.5032  -18.7237 N   0  0  0  0  0  0  0  0  0  0  0  0
  -20.6354   15.5399  -19.5245 C   0  0  0  0  0  0  0  0  0  0  0  0
  -20.5057   16.4737  -20.6808 C   0  0  0  0  0  0  0  0  0  0  0  0
  -21.2723   18.5416  -19.6702 C   0  0  0  0  0  0  0  0  0  0  0  0
  -21.3457   20.5277  -18.2631 C   0  0  0  0  0  0  0  0  0  0  0  0
  -21.2663   19.9332  -19.5376 N   0  0  0  0  0  0  0  0  0  0  0  0
  -20.8812   20.7362  -20.6340 C   0  0  0  0  0  0  0  0  0  0  0  0
 32 33  1  0  0  0
 33 34  1  0  0  0
 33 31  1  0  0  0
 31 25  1  0  0  0
 25 26  1  0  0  0
 26 27  1  0  0  0
 27 28  1  0  0  0
 28 24  1  0  0  0
 24 23  1  0  0  0
 23  1  1  0  0  0
  1  2  1  0  0  0
  2  3  2  0  0  0
  3 13  1  0  0  0
 13 14  2  0  0  0
 14 15  1  0  0  0
 15 16  2  0  0  0
 16 17  1  0  0  0
 17 18  1  0  0  0
 18 19  2  0  0  0
 19 20  1  0  0  0
 20 21  2  0  0  0
  3  4  1  0  0  0
  4  5  2  0  0  0
  5  6  1  0  0  0
  5  7  1  0  0  0
  7  8  2  0  0  0
  8  9  1  0  0  0
  9 10  2  0  0  0
 28 29  1  0  0  0
 29 30  1  0  0  0
 30 25  1  0  0  0
 10  1  1  0  0  0
 21 13  1  0  0  0
 10  4  1  0  0  0
 20 16  1  0  0  0
 17 22  1  0  0  0
  6 11  1  0  0  0
  6 12  1  0  0  0
M  END
> <minimizedAffinity>
-8.08076

> <CNNscore>
0.9780473709

> <CNNaffinity>
8.1164808273

> <CNN_VS>
7.9383025169

> <CNNaffinity_variance>
0.0163774453

$$$$
[H]c1nc(N([H])[H])c2c(-c3c([H])nc4c(c3[H])c([H])c([H])n4[H])nn(C([H])([H])C([H])([H])N3C([H])([H])C([H])([H])C([H])(C([H])([H])N(C([H])([H])[H])C([H])([H])[H])C([H])([H])C3([H])[H])c2n1


 34 38  0  0  0  0  0  0  0  0999 V2000
  -17.7027   13.3731  -21.9313 N   0  0  0  0  0  0  0  0  0  0  0  0
  -18.4141   13.5575  -20.8493 N   0  0  0  0  0  0  0  0  0  0  0  0
  -18.0983   12.6320  -19.8783 C   0  0  0  0  0  0  0  0  0  0  0  0
  -17.1264   11.8259  -20.3975 C   0  0  0  0  0  0  0  0  0  0  0  0
  -16.4148   10.7531  -19.9021 C   0  0  0  0  0  0  0  0  0  0  0  0
  -16.5761   10.2368  -18.5996 N   0  0  0  0  0  0  0  0  0  0  0  0
  -15.4884   10.2019  -20.7408 N   0  0  0  0  0  0  0  0  0  0  0  0
  -15.2784   10.6766  -21.9807 C   0  0  0  0  0  0  0  0  0  0  0  0
  -15.9810   11.7308  -22.4550 N   0  0  0  0  0  0  0  0  0  0  0  0
  -16.8988   12.3123  -21.6847 C   0  0  0  0  0  0  0  0  0  0  0  0
  -16.1784   10.7251  -17.7818 H   0  0  0  0  0  0  0  0  0  0  0  0
  -17.0979    9.3576  -18.4554 H   0  0  0  0  0  0  0  0  0  0  0  0
  -18.6872   12.5921  -18.5590 C   0  0  0  0  0  0  0  0  0  0  0  0
  -18.3514   13.5931  -17.6674 C   0  0  0  0  0  0  0  0  0  0  0  0
  -18.9124   13.6383  -16.4402 N   0  0  0  0  0  0  0  0  0  0  0  0
  -19.8195   12.7183  -16.0255 C   0  0  0  0  0  0  0  0  0  0  0  0
  -20.5114   12.5251  -14.9011 N   0  0  0  0  0  0  0  0  0  0  0  0
  -21.2950   11.4471  -14.9895 C   0  0  0  0  0  0  0  0  0  0  0  0
  -21.1039   10.9075  -16.2395 C   0  0  0  0  0  0  0  0  0  0  0  0
  -20.1831   11.7042  -16.8816 C   0  0  0  0  0  0  0  0  0  0  0  0
  -19.5947   11.6668  -18.1550 C   0  0  0  0  0  0  0  0  0  0  0  0
  -20.4505   13.1354  -14.0614 H   0  0  0  0  0  0  0  0  0  0  0  0
  -17.7494   14.1582  -23.1767 C   0  0  0  0  0  0  0  0  0  0  0  0
  -16.8332   15.3627  -22.9680 C   0  0  0  0  0  0  0  0  0  0  0  0
  -17.9503   18.9925  -21.2043 C   0  0  0  0  0  0  0  0  0  0  0  0
  -16.9697   18.0758  -20.5559 C   0  0  0  0  0  0  0  0  0  0  0  0
  -16.3099   17.2572  -21.6926 C   0  0  0  0  0  0  0  0  0  0  0  0
  -17.3786   16.3776  -22.1426 N   0  0  0  0  0  0  0  0  0  0  0  0
  -18.4687   17.1013  -22.7141 C   0  0  0  0  0  0  0  0  0  0  0  0
  -18.2656   18.5776  -22.6440 C   0  0  0  0  0  0  0  0  0  0  0  0
  -19.2418   19.0578  -20.4756 C   0  0  0  0  0  0  0  0  0  0  0  0
  -19.2549   19.0043  -18.0411 C   0  0  0  0  0  0  0  0  0  0  0  0
  -19.3913   18.3487  -19.2802 N   0  0  0  0  0  0  0  0  0  0  0  0
  -19.9698   17.0602  -19.3019 C   0  0  0  0  0  0  0  0  0  0  0  0
 32 33  1  0  0  0
 33 34  1  0  0  0
 33 31  1  0  0  0
 31 25  1  0  0  0
 25 26  1  0  0  0
 26 27  1  0  0  0
 27 28  1  0  0  0
 28 24  1  0  0  0
 24 23  1  0  0  0
 23  1  1  0  0  0
  1  2  1  0  0  0
  2  3  2  0  0  0
  3 13  1  0  0  0
 13 14  2  0  0  0
 14 15  1  0  0  0
 15 16  2  0  0  0
 16 17  1  0  0  0
 17 18  1  0  0  0
 18 19  2  0  0  0
 19 20  1  0  0  0
 20 21  2  0  0  0
  3  4  1  0  0  0
  4  5  2  0  0  0
  5  6  1  0  0  0
  5  7  1  0  0  0
  7  8  2  0  0  0
  8  9  1  0  0  0
  9 10  2  0  0  0
 28 29  1  0  0  0
 29 30  1  0  0  0
 30 25  1  0  0  0
 10  1  1  0  0  0
 21 13  1  0  0  0
 10  4  1  0  0  0
 20 16  1  0  0  0
 17 22  1  0  0  0
  6 11  1  0  0  0
  6 12  1  0  0  0
M  END
> <minimizedAffinity>
-7.86039

> <CNNscore>
0.7489428520

> <CNNaffinity>
7.3741464615

> <CNN_VS>
5.5228142738

> <CNNaffinity_variance>
0.0239386261

$$$$
[H]c1nc(N([H])[H])c2c(-c3c([H])nc4c(c3[H])c([H])c([H])n4[H])nn(C([H])([H])C([H])([H])N3C([H])([H])C([H])([H])C([H])(C([H])([H])N(C([H])([H])[H])C([H])([H])[H])C([H])([H])C3([H])[H])c2n1


 34 38  0  0  0  0  0  0  0  0999 V2000
  -18.5421   14.0515  -19.4421 N   0  0  0  0  0  0  0  0  0  0  0  0
  -18.2433   14.6264  -20.5782 N   0  0  0  0  0  0  0  0  0  0  0  0
  -17.4993   13.7903  -21.3824 C   0  0  0  0  0  0  0  0  0  0  0  0
  -17.3313   12.6225  -20.6953 C   0  0  0  0  0  0  0  0  0  0  0  0
  -16.7024   11.4297  -20.9856 C   0  0  0  0  0  0  0  0  0  0  0  0
  -16.0449   11.1640  -22.2047 N   0  0  0  0  0  0  0  0  0  0  0  0
  -16.7648   10.4625  -20.0232 N   0  0  0  0  0  0  0  0  0  0  0  0
  -17.4038   10.6585  -18.8569 C   0  0  0  0  0  0  0  0  0  0  0  0
  -18.0190   11.8319  -18.5843 N   0  0  0  0  0  0  0  0  0  0  0  0
  -17.9940   12.8145  -19.4831 C   0  0  0  0  0  0  0  0  0  0  0  0
  -16.5801   10.9525  -23.0615 H   0  0  0  0  0  0  0  0  0  0  0  0
  -15.0134   11.1789  -22.2470 H   0  0  0  0  0  0  0  0  0  0  0  0
  -17.0425   14.1224  -22.7128 C   0  0  0  0  0  0  0  0  0  0  0  0
  -17.9843   14.2064  -23.7207 C   0  0  0  0  0  0  0  0  0  0  0  0
  -17.6240   14.5665  -24.9709 N   0  0  0  0  0  0  0  0  0  0  0  0
  -16.3398   14.8592  -25.2974 C   0  0  0  0  0  0  0  0  0  0  0  0
  -15.7192   15.2303  -26.4187 N   0  0  0  0  0  0  0  0  0  0  0  0
  -14.4096   15.4004  -26.2181 C   0  0  0  0  0  0  0  0  0  0  0  0
  -14.1625   15.1253  -24.8939 C   0  0  0  0  0  0  0  0  0  0  0  0
  -15.3695   14.7887  -24.3242 C   0  0  0  0  0  0  0  0  0  0  0  0
  -15.7547   14.4142  -23.0278 C   0  0  0  0  0  0  0  0  0  0  0  0
  -16.1928   15.3704  -27.3338 H   0  0  0  0  0  0  0  0  0  0  0  0
  -19.3243   14.6198  -18.3309 C   0  0  0  0  0  0  0  0  0  0  0  0
  -20.7844   14.2553  -18.5936 C   0  0  0  0  0  0  0  0  0  0  0  0
  -22.3045   14.2881  -14.6919 C   0  0  0  0  0  0  0  0  0  0  0  0
  -21.7909   13.0384  -15.3219 C   0  0  0  0  0  0  0  0  0  0  0  0
  -20.7527   13.4726  -16.3854 C   0  0  0  0  0  0  0  0  0  0  0  0
  -21.5663   14.0883  -17.4233 N   0  0  0  0  0  0  0  0  0  0  0  0
  -22.2261   15.2680  -16.9632 C   0  0  0  0  0  0  0  0  0  0  0  0
  -21.9681   15.5327  -15.5179 C   0  0  0  0  0  0  0  0  0  0  0  0
  -23.7769   14.2723  -14.5055 C   0  0  0  0  0  0  0  0  0  0  0  0
  -24.0315   13.2882  -12.2927 C   0  0  0  0  0  0  0  0  0  0  0  0
  -24.3514   13.3151  -13.6641 N   0  0  0  0  0  0  0  0  0  0  0  0
  -25.4676   12.5740  -14.1114 C   0  0  0  0  0  0  0  0  0  0  0  0
 32 33  1  0  0  0
 33 34  1  0  0  0
 33 31  1  0  0  0
 31 25  1  0  0  0
 25 26  1  0  0  0
 26 27  1  0  0  0
 27 28  1  0  0  0
 28 24  1  0  0  0
 24 23  1  0  0  0
 23  1  1  0  0  0
  1  2  1  0  0  0
  2  3  2  0  0  0
  3 13  1  0  0  0
 13 14  2  0  0  0
 14 15  1  0  0  0
 15 16  2  0  0  0
 16 17  1  0  0  0
 17 18  1  0  0  0
 18 19  2  0  0  0
 19 20  1  0  0  0
 20 21  2  0  0  0
  3  4  1  0  0  0
  4  5  2  0  0  0
  5  6  1  0  0  0
  5  7  1  0  0  0
  7  8  2  0  0  0
  8  9  1  0  0  0
  9 10  2  0  0  0
 28 29  1  0  0  0
 29 30  1  0  0  0
 30 25  1  0  0  0
 10  1  1  0  0  0
 21 13  1  0  0  0
 10  4  1  0  0  0
 20 16  1  0  0  0
 17 22  1  0  0  0
  6 11  1  0  0  0
  6 12  1  0  0  0
M  END
> <minimizedAffinity>
-7.17699

> <CNNscore>
0.7113513350

> <CNNaffinity>
7.2036437988

> <CNN_VS>
5.1243214607

> <CNNaffinity_variance>
0.2676658630

$$$$
[H]c1nc(N([H])[H])c([H])c(-n2c(N([H])c3c([H])c(N([H])C(=O)c4c([H])c([H])c([H])c(C(F)(F)F)c4[H])c([H])c([H])c3C([H])([H])[H])nc3c([H])c([H])c([H])c([H])c32)n1


 41 45  0  0  0  0  0  0  0  0999 V2000
  -18.9205   17.2888  -17.3598 C   0  0  0  0  0  0  0  0  0  0  0  0
  -18.8828   16.8077  -18.7862 C   0  0  0  0  0  0  0  0  0  0  0  0
  -19.0017   17.6703  -19.8256 C   0  0  0  0  0  0  0  0  0  0  0  0
  -19.0013   17.2253  -21.1280 C   0  0  0  0  0  0  0  0  0  0  0  0
  -18.8782   15.8787  -21.4296 C   0  0  0  0  0  0  0  0  0  0  0  0
  -18.7619   14.9916  -20.3928 C   0  0  0  0  0  0  0  0  0  0  0  0
  -18.7584   15.4134  -19.0596 C   0  0  0  0  0  0  0  0  0  0  0  0
  -18.8053   15.5402  -22.8455 N   0  0  0  0  0  0  0  0  0  0  0  0
  -17.7518   14.7309  -23.3057 C   0  0  0  0  0  0  0  0  0  0  0  0
  -16.9123   14.2644  -22.4445 O   0  0  0  0  0  0  0  0  0  0  0  0
  -19.5403   15.9040  -23.4512 H   0  0  0  0  0  0  0  0  0  0  0  0
  -17.4677   14.3371  -24.6583 C   0  0  0  0  0  0  0  0  0  0  0  0
  -17.8318   13.0403  -25.0927 C   0  0  0  0  0  0  0  0  0  0  0  0
  -17.5230   12.5762  -26.3423 C   0  0  0  0  0  0  0  0  0  0  0  0
  -16.8388   13.3665  -27.2252 C   0  0  0  0  0  0  0  0  0  0  0  0
  -16.4576   14.6407  -26.8582 C   0  0  0  0  0  0  0  0  0  0  0  0
  -16.7788   15.0929  -25.5953 C   0  0  0  0  0  0  0  0  0  0  0  0
  -15.7061   15.4271  -27.8710 C   0  0  0  0  0  0  0  0  0  0  0  0
  -14.8623   16.3196  -27.1949 F   0  0  0  0  0  0  0  0  0  0  0  0
  -16.4847   16.1561  -28.7162 F   0  0  0  0  0  0  0  0  0  0  0  0
  -14.9516   14.5655  -28.6723 F   0  0  0  0  0  0  0  0  0  0  0  0
  -18.5386   14.6499  -17.9269 N   0  0  0  0  0  0  0  0  0  0  0  0
  -17.5577   14.8468  -17.4529 H   0  0  0  0  0  0  0  0  0  0  0  0
  -19.3281   13.6567  -17.3376 C   0  0  0  0  0  0  0  0  0  0  0  0
  -20.3271   13.6343  -16.4514 N   0  0  0  0  0  0  0  0  0  0  0  0
  -20.6974   12.3658  -16.1254 C   0  0  0  0  0  0  0  0  0  0  0  0
  -21.6042   11.7943  -15.2697 C   0  0  0  0  0  0  0  0  0  0  0  0
  -21.6995   10.4275  -15.1377 C   0  0  0  0  0  0  0  0  0  0  0  0
  -20.8806    9.5886  -15.8724 C   0  0  0  0  0  0  0  0  0  0  0  0
  -19.9689   10.1600  -16.7358 C   0  0  0  0  0  0  0  0  0  0  0  0
  -19.8978   11.5486  -16.8401 C   0  0  0  0  0  0  0  0  0  0  0  0
  -19.0841   12.3036  -17.5645 N   0  0  0  0  0  0  0  0  0  0  0  0
  -18.0965   11.8010  -18.4464 C   0  0  0  0  0  0  0  0  0  0  0  0
  -18.3252   11.7760  -19.8046 C   0  0  0  0  0  0  0  0  0  0  0  0
  -17.3892   11.2996  -20.6831 C   0  0  0  0  0  0  0  0  0  0  0  0
  -17.6017   11.2804  -22.0952 N   0  0  0  0  0  0  0  0  0  0  0  0
  -16.2055   10.8394  -20.1898 N   0  0  0  0  0  0  0  0  0  0  0  0
  -15.9844   10.8654  -18.8542 C   0  0  0  0  0  0  0  0  0  0  0  0
  -16.9066   11.3312  -18.0269 N   0  0  0  0  0  0  0  0  0  0  0  0
  -17.0659   10.6152  -22.6871 H   0  0  0  0  0  0  0  0  0  0  0  0
  -18.3032   11.9435  -22.5060 H   0  0  0  0  0  0  0  0  0  0  0  0
  1  2  1  0  0  0
  2  3  2  0  0  0
  3  4  1  0  0  0
  4  5  2  0  0  0
  5  8  1  0  0  0
  8  9  1  0  0  0
  9 10  2  0  0  0
  9 12  1  0  0  0
 12 13  2  0  0  0
 13 14  1  0  0  0
 14 15  2  0  0  0
 15 16  1  0  0  0
 16 17  2  0  0  0
 16 18  1  0  0  0
 18 19  1  0  0  0
 18 20  1  0  0  0
 18 21  1  0  0  0
  5  6  1  0  0  0
  6  7  2  0  0  0
  7 22  1  0  0  0
 22 24  1  0  0  0
 24 25  2  0  0  0
 25 26  1  0  0  0
 26 27  2  0  0  0
 27 28  1  0  0  0
 28 29  2  0  0  0
 29 30  1  0  0  0
 30 31  2  0  0  0
 31 32  1  0  0  0
 32 33  1  0  0  0
 33 34  2  0  0  0
 34 35  1  0  0  0
 35 36  1  0  0  0
 35 37  2  0  0  0
 37 38  1  0  0  0
 38 39  2  0  0  0
  7  2  1  0  0  0
 32 24  1  0  0  0
 39 33  1  0  0  0
 17 12  1  0  0  0
 31 26  1  0  0  0
  8 11  1  0  0  0
 22 23  1  0  0  0
 36 40  1  0  0  0
 36 41  1  0  0  0
M  END
> <minimizedAffinity>
-9.53258

> <CNNscore>
0.3494637012

> <CNNaffinity>
7.2994332314

> <CNN_VS>
2.5508868694

> <CNNaffinity_variance>
0.3692701757

$$$$
[H]c1nc(N([H])[H])c([H])c(-n2c(N([H])c3c([H])c(N([H])C(=O)c4c([H])c([H])c([H])c(C(F)(F)F)c4[H])c([H])c([H])c3C([H])([H])[H])nc3c([H])c([H])c([H])c([H])c32)n1


 41 45  0  0  0  0  0  0  0  0999 V2000
  -18.7249   17.2706  -23.6499 C   0  0  0  0  0  0  0  0  0  0  0  0
  -18.7413   17.4998  -22.1617 C   0  0  0  0  0  0  0  0  0  0  0  0
  -18.7957   18.7505  -21.6405 C   0  0  0  0  0  0  0  0  0  0  0  0
  -18.7762   18.9600  -20.2804 C   0  0  0  0  0  0  0  0  0  0  0  0
  -18.7015   17.9019  -19.3891 C   0  0  0  0  0  0  0  0  0  0  0  0
  -18.6409   16.6315  -19.8968 C   0  0  0  0  0  0  0  0  0  0  0  0
  -18.6594   16.3869  -21.2735 C   0  0  0  0  0  0  0  0  0  0  0  0
  -18.7743   18.2456  -17.9744 N   0  0  0  0  0  0  0  0  0  0  0  0
  -20.0334   18.3959  -17.3672 C   0  0  0  0  0  0  0  0  0  0  0  0
  -21.0886   18.1662  -18.0727 O   0  0  0  0  0  0  0  0  0  0  0  0
  -17.8925   18.3553  -17.4744 H   0  0  0  0  0  0  0  0  0  0  0  0
  -20.3194   18.7882  -16.0146 C   0  0  0  0  0  0  0  0  0  0  0  0
  -19.3955   18.4687  -14.9911 C   0  0  0  0  0  0  0  0  0  0  0  0
  -19.6415   18.7456  -13.6740 C   0  0  0  0  0  0  0  0  0  0  0  0
  -20.8108   19.3496  -13.2998 C   0  0  0  0  0  0  0  0  0  0  0  0
  -21.7497   19.6852  -14.2535 C   0  0  0  0  0  0  0  0  0  0  0  0
  -21.4844   19.4004  -15.5768 C   0  0  0  0  0  0  0  0  0  0  0  0
  -22.9976   20.3251  -13.7611 C   0  0  0  0  0  0  0  0  0  0  0  0
  -22.7438   20.8597  -12.4901 F   0  0  0  0  0  0  0  0  0  0  0  0
  -24.0614   19.4837  -13.6494 F   0  0  0  0  0  0  0  0  0  0  0  0
  -23.3862   21.3396  -14.6406 F   0  0  0  0  0  0  0  0  0  0  0  0
  -18.7164   15.1646  -21.9192 N   0  0  0  0  0  0  0  0  0  0  0  0
  -19.2976   15.1965  -22.8608 H   0  0  0  0  0  0  0  0  0  0  0  0
  -18.2064   13.9175  -21.5427 C   0  0  0  0  0  0  0  0  0  0  0  0
  -18.3427   13.1116  -20.4864 N   0  0  0  0  0  0  0  0  0  0  0  0
  -17.5299   12.0224  -20.5619 C   0  0  0  0  0  0  0  0  0  0  0  0
  -17.2520   10.9444  -19.7608 C   0  0  0  0  0  0  0  0  0  0  0  0
  -16.3070   10.0107  -20.1214 C   0  0  0  0  0  0  0  0  0  0  0  0
  -15.6112   10.1336  -21.3109 C   0  0  0  0  0  0  0  0  0  0  0  0
  -15.8899   11.2156  -22.1201 C   0  0  0  0  0  0  0  0  0  0  0  0
  -16.8506   12.1436  -21.7202 C   0  0  0  0  0  0  0  0  0  0  0  0
  -17.2462   13.2622  -22.3111 N   0  0  0  0  0  0  0  0  0  0  0  0
  -16.7542   13.7298  -23.5541 C   0  0  0  0  0  0  0  0  0  0  0  0
  -15.4567   14.1799  -23.6632 C   0  0  0  0  0  0  0  0  0  0  0  0
  -14.9506   14.6348  -24.8514 C   0  0  0  0  0  0  0  0  0  0  0  0
  -13.6039   15.0902  -24.9877 N   0  0  0  0  0  0  0  0  0  0  0  0
  -15.7605   14.6393  -25.9469 N   0  0  0  0  0  0  0  0  0  0  0  0
  -17.0352   14.1963  -25.8357 C   0  0  0  0  0  0  0  0  0  0  0  0
  -17.4994   13.7619  -24.6749 N   0  0  0  0  0  0  0  0  0  0  0  0
  -13.3563   15.7401  -25.7598 H   0  0  0  0  0  0  0  0  0  0  0  0
  -12.8890   14.7566  -24.2961 H   0  0  0  0  0  0  0  0  0  0  0  0
  1  2  1  0  0  0
  2  3  2  0  0  0
  3  4  1  0  0  0
  4  5  2  0  0  0
  5  8  1  0  0  0
  8  9  1  0  0  0
  9 10  2  0  0  0
  9 12  1  0  0  0
 12 13  2  0  0  0
 13 14  1  0  0  0
 14 15  2  0  0  0
 15 16  1  0  0  0
 16 17  2  0  0  0
 16 18  1  0  0  0
 18 19  1  0  0  0
 18 20  1  0  0  0
 18 21  1  0  0  0
  5  6  1  0  0  0
  6  7  2  0  0  0
  7 22  1  0  0  0
 22 24  1  0  0  0
 24 25  2  0  0  0
 25 26  1  0  0  0
 26 27  2  0  0  0
 27 28  1  0  0  0
 28 29  2  0  0  0
 29 30  1  0  0  0
 30 31  2  0  0  0
 31 32  1  0  0  0
 32 33  1  0  0  0
 33 34  2  0  0  0
 34 35  1  0  0  0
 35 36  1  0  0  0
 35 37  2  0  0  0
 37 38  1  0  0  0
 38 39  2  0  0  0
  7  2  1  0  0  0
 32 24  1  0  0  0
 39 33  1  0  0  0
 17 12  1  0  0  0
 31 26  1  0  0  0
  8 11  1  0  0  0
 22 23  1  0  0  0
 36 40  1  0  0  0
 36 41  1  0  0  0
M  END
> <minimizedAffinity>
-9.06208

> <CNNscore>
0.1824566424

> <CNNaffinity>
6.5379266739

> <CNN_VS>
1.1928881407

> <CNNaffinity_variance>
0.2707988322

$$$$
[H]c1nc(N([H])[H])c([H])c(-n2c(N([H])c3c([H])c(N([H])C(=O)c4c([H])c([H])c([H])c(C(F)(F)F)c4[H])c([H])c([H])c3C([H])([H])[H])nc3c([H])c([H])c([H])c([H])c32)n1


 41 45  0  0  0  0  0  0  0  0999 V2000
  -15.6745   11.4548  -22.3360 C   0  0  0  0  0  0  0  0  0  0  0  0
  -16.5034   11.3782  -21.0811 C   0  0  0  0  0  0  0  0  0  0  0  0
  -16.3289   10.3805  -20.1795 C   0  0  0  0  0  0  0  0  0  0  0  0
  -17.1104   10.2925  -19.0500 C   0  0  0  0  0  0  0  0  0  0  0  0
  -18.1055   11.2201  -18.7879 C   0  0  0  0  0  0  0  0  0  0  0  0
  -18.3000   12.2324  -19.6896 C   0  0  0  0  0  0  0  0  0  0  0  0
  -17.5219   12.3485  -20.8456 C   0  0  0  0  0  0  0  0  0  0  0  0
  -18.8076   11.0699  -17.5194 N   0  0  0  0  0  0  0  0  0  0  0  0
  -19.1308    9.7806  -17.0609 C   0  0  0  0  0  0  0  0  0  0  0  0
  -18.7415    8.7649  -17.7543 O   0  0  0  0  0  0  0  0  0  0  0  0
  -19.0302   11.9215  -17.0049 H   0  0  0  0  0  0  0  0  0  0  0  0
  -19.8669    9.4232  -15.8795 C   0  0  0  0  0  0  0  0  0  0  0  0
  -19.1651    8.9687  -14.7376 C   0  0  0  0  0  0  0  0  0  0  0  0
  -19.8086    8.5414  -13.6082 C   0  0  0  0  0  0  0  0  0  0  0  0
  -21.1755    8.5393  -13.5486 C   0  0  0  0  0  0  0  0  0  0  0  0
  -21.9137    8.9719  -14.6310 C   0  0  0  0  0  0  0  0  0  0  0  0
  -21.2486    9.4009  -15.7607 C   0  0  0  0  0  0  0  0  0  0  0  0
  -23.3924    8.9241  -14.4886 C   0  0  0  0  0  0  0  0  0  0  0  0
  -23.8319   10.1834  -14.0565 F   0  0  0  0  0  0  0  0  0  0  0  0
  -23.8478    8.0009  -13.5984 F   0  0  0  0  0  0  0  0  0  0  0  0
  -23.9748    8.6079  -15.7192 F   0  0  0  0  0  0  0  0  0  0  0  0
  -17.5315   13.3708  -21.7778 N   0  0  0  0  0  0  0  0  0  0  0  0
  -16.8373   13.1963  -22.6223 H   0  0  0  0  0  0  0  0  0  0  0  0
  -18.2307   14.5825  -21.7851 C   0  0  0  0  0  0  0  0  0  0  0  0
  -19.0622   15.2080  -20.9476 N   0  0  0  0  0  0  0  0  0  0  0  0
  -19.5639   16.3549  -21.4818 C   0  0  0  0  0  0  0  0  0  0  0  0
  -20.4550   17.3185  -21.0836 C   0  0  0  0  0  0  0  0  0  0  0  0
  -20.7933   18.3650  -21.9113 C   0  0  0  0  0  0  0  0  0  0  0  0
  -20.2370   18.4754  -23.1732 C   0  0  0  0  0  0  0  0  0  0  0  0
  -19.3386   17.5090  -23.5761 C   0  0  0  0  0  0  0  0  0  0  0  0
  -19.0230   16.4610  -22.7123 C   0  0  0  0  0  0  0  0  0  0  0  0
  -18.2286   15.4168  -22.9012 N   0  0  0  0  0  0  0  0  0  0  0  0
  -17.4826   15.1799  -24.0814 C   0  0  0  0  0  0  0  0  0  0  0  0
  -16.3851   15.9580  -24.3780 C   0  0  0  0  0  0  0  0  0  0  0  0
  -15.6416   15.7517  -25.5092 C   0  0  0  0  0  0  0  0  0  0  0  0
  -14.4916   16.5374  -25.8255 N   0  0  0  0  0  0  0  0  0  0  0  0
  -16.0069   14.7496  -26.3567 N   0  0  0  0  0  0  0  0  0  0  0  0
  -17.0862   13.9870  -26.0619 C   0  0  0  0  0  0  0  0  0  0  0  0
  -17.7877   14.2079  -24.9615 N   0  0  0  0  0  0  0  0  0  0  0  0
  -14.1726   16.6084  -26.8118 H   0  0  0  0  0  0  0  0  0  0  0  0
  -13.9922   17.0319  -25.0465 H   0  0  0  0  0  0  0  0  0  0  0  0
  1  2  1  0  0  0
  2  3  2  0  0  0
  3  4  1  0  0  0
  4  5  2  0  0  0
  5  8  1  0  0  0
  8  9  1  0  0  0
  9 10  2  0  0  0
  9 12  1  0  0  0
 12 13  2  0  0  0
 13 14  1  0  0  0
 14 15  2  0  0  0
 15 16  1  0  0  0
 16 17  2  0  0  0
 16 18  1  0  0  0
 18 19  1  0  0  0
 18 20  1  0  0  0
 18 21  1  0  0  0
  5  6  1  0  0  0
  6  7  2  0  0  0
  7 22  1  0  0  0
 22 24  1  0  0  0
 24 25  2  0  0  0
 25 26  1  0  0  0
 26 27  2  0  0  0
 27 28  1  0  0  0
 28 29  2  0  0  0
 29 30  1  0  0  0
 30 31  2  0  0  0
 31 32  1  0  0  0
 32 33  1  0  0  0
 33 34  2  0  0  0
 34 35  1  0  0  0
 35 36  1  0  0  0
 35 37  2  0  0  0
 37 38  1  0  0  0
 38 39  2  0  0  0
  7  2  1  0  0  0
 32 24  1  0  0  0
 39 33  1  0  0  0
 17 12  1  0  0  0
 31 26  1  0  0  0
  8 11  1  0  0  0
 22 23  1  0  0  0
 36 40  1  0  0  0
 36 41  1  0  0  0
M  END
> <minimizedAffinity>
-9.54842

> <CNNscore>
0.1727733016

> <CNNaffinity>
6.7087869644

> <CNN_VS>
1.1590992212

> <CNNaffinity_variance>
0.1881031692

$$$$
[H]c1nc(N([H])[H])c([H])c(-n2c(N([H])c3c([H])c(N([H])C(=O)c4c([H])c([H])c([H])c(C(F)(F)F)c4[H])c([H])c([H])c3C([H])([H])[H])nc3c([H])c([H])c([H])c([H])c32)n1


 41 45  0  0  0  0  0  0  0  0999 V2000
  -15.5944   11.6201  -22.6623 C   0  0  0  0  0  0  0  0  0  0  0  0
  -16.4243   11.5793  -21.4064 C   0  0  0  0  0  0  0  0  0  0  0  0
  -16.1619   10.6919  -20.4153 C   0  0  0  0  0  0  0  0  0  0  0  0
  -16.9422   10.6328  -19.2831 C   0  0  0  0  0  0  0  0  0  0  0  0
  -18.0260   11.4783  -19.1097 C   0  0  0  0  0  0  0  0  0  0  0  0
  -18.3096   12.3783  -20.1023 C   0  0  0  0  0  0  0  0  0  0  0  0
  -17.5352   12.4624  -21.2635 C   0  0  0  0  0  0  0  0  0  0  0  0
  -18.7226   11.3783  -17.8332 N   0  0  0  0  0  0  0  0  0  0  0  0
  -19.0576   10.1088  -17.3304 C   0  0  0  0  0  0  0  0  0  0  0  0
  -18.6836    9.0662  -17.9916 O   0  0  0  0  0  0  0  0  0  0  0  0
  -18.9327   12.2491  -17.3462 H   0  0  0  0  0  0  0  0  0  0  0  0
  -19.7911    9.7992  -16.1339 C   0  0  0  0  0  0  0  0  0  0  0  0
  -21.0610   10.3892  -15.9284 C   0  0  0  0  0  0  0  0  0  0  0  0
  -21.7771   10.1967  -14.7784 C   0  0  0  0  0  0  0  0  0  0  0  0
  -21.2767    9.4145  -13.7735 C   0  0  0  0  0  0  0  0  0  0  0  0
  -20.0436    8.8125  -13.9171 C   0  0  0  0  0  0  0  0  0  0  0  0
  -19.3362    9.0159  -15.0836 C   0  0  0  0  0  0  0  0  0  0  0  0
  -19.5679    7.9913  -12.7732 C   0  0  0  0  0  0  0  0  0  0  0  0
  -18.3116    8.4738  -12.3800 F   0  0  0  0  0  0  0  0  0  0  0  0
  -19.4336    6.6643  -13.0437 F   0  0  0  0  0  0  0  0  0  0  0  0
  -20.4738    8.0893  -11.7133 F   0  0  0  0  0  0  0  0  0  0  0  0
  -17.6356   13.3876  -22.2873 N   0  0  0  0  0  0  0  0  0  0  0  0
  -17.2700   13.0030  -23.2588 H   0  0  0  0  0  0  0  0  0  0  0  0
  -18.0704   14.7171  -22.2662 C   0  0  0  0  0  0  0  0  0  0  0  0
  -19.0473   15.3907  -21.6532 N   0  0  0  0  0  0  0  0  0  0  0  0
  -19.1096   16.6887  -22.0577 C   0  0  0  0  0  0  0  0  0  0  0  0
  -19.9157   17.7655  -21.7897 C   0  0  0  0  0  0  0  0  0  0  0  0
  -19.7325   18.9717  -22.4270 C   0  0  0  0  0  0  0  0  0  0  0  0
  -18.7214   19.1320  -23.3576 C   0  0  0  0  0  0  0  0  0  0  0  0
  -17.9072   18.0516  -23.6279 C   0  0  0  0  0  0  0  0  0  0  0  0
  -18.1253   16.8440  -22.9660 C   0  0  0  0  0  0  0  0  0  0  0  0
  -17.5010   15.6818  -23.0950 N   0  0  0  0  0  0  0  0  0  0  0  0
  -16.4058   15.4520  -23.9630 C   0  0  0  0  0  0  0  0  0  0  0  0
  -16.5333   15.6735  -25.3166 C   0  0  0  0  0  0  0  0  0  0  0  0
  -15.4922   15.4640  -26.1810 C   0  0  0  0  0  0  0  0  0  0  0  0
  -15.6003   15.7031  -27.5849 N   0  0  0  0  0  0  0  0  0  0  0  0
  -14.3050   15.0235  -25.6785 N   0  0  0  0  0  0  0  0  0  0  0  0
  -14.1835   14.8068  -24.3474 C   0  0  0  0  0  0  0  0  0  0  0  0
  -15.2061   15.0172  -23.5338 N   0  0  0  0  0  0  0  0  0  0  0  0
  -14.9570   15.2174  -28.2405 H   0  0  0  0  0  0  0  0  0  0  0  0
  -16.3365   16.3686  -27.9252 H   0  0  0  0  0  0  0  0  0  0  0  0
  1  2  1  0  0  0
  2  3  2  0  0  0
  3  4  1  0  0  0
  4  5  2  0  0  0
  5  8  1  0  0  0
  8  9  1  0  0  0
  9 10  2  0  0  0
  9 12  1  0  0  0
 12 13  2  0  0  0
 13 14  1  0  0  0
 14 15  2  0  0  0
 15 16  1  0  0  0
 16 17  2  0  0  0
 16 18  1  0  0  0
 18 19  1  0  0  0
 18 20  1  0  0  0
 18 21  1  0  0  0
  5  6  1  0  0  0
  6  7  2  0  0  0
  7 22  1  0  0  0
 22 24  1  0  0  0
 24 25  2  0  0  0
 25 26  1  0  0  0
 26 27  2  0  0  0
 27 28  1  0  0  0
 28 29  2  0  0  0
 29 30  1  0  0  0
 30 31  2  0  0  0
 31 32  1  0  0  0
 32 33  1  0  0  0
 33 34  2  0  0  0
 34 35  1  0  0  0
 35 36  1  0  0  0
 35 37  2  0  0  0
 37 38  1  0  0  0
 38 39  2  0  0  0
  7  2  1  0  0  0
 32 24  1  0  0  0
 39 33  1  0  0  0
 17 12  1  0  0  0
 31 26  1  0  0  0
  8 11  1  0  0  0
 22 23  1  0  0  0
 36 40  1  0  0  0
 36 41  1  0  0  0
M  END
> <minimizedAffinity>
-9.79732

> <CNNscore>
0.1584219486

> <CNNaffinity>
6.5937881470

> <CNN_VS>
1.0446007252

> <CNNaffinity_variance>
0.2544887364

$$$$
[H]c1nc(N([H])[H])c([H])c(-n2c(N([H])c3c([H])c(N([H])C(=O)c4c([H])c([H])c([H])c(C(F)(F)F)c4[H])c([H])c([H])c3C([H])([H])[H])nc3c([H])c([H])c([H])c([H])c32)n1


 41 45  0  0  0  0  0  0  0  0999 V2000
  -18.0321   17.0160  -23.8335 C   0  0  0  0  0  0  0  0  0  0  0  0
  -18.2109   17.4955  -22.4173 C   0  0  0  0  0  0  0  0  0  0  0  0
  -18.0843   18.8064  -22.0945 C   0  0  0  0  0  0  0  0  0  0  0  0
  -18.2143   19.2385  -20.7942 C   0  0  0  0  0  0  0  0  0  0  0  0
  -18.4809   18.3522  -19.7633 C   0  0  0  0  0  0  0  0  0  0  0  0
  -18.6074   17.0233  -20.0692 C   0  0  0  0  0  0  0  0  0  0  0  0
  -18.4812   16.5541  -21.3804 C   0  0  0  0  0  0  0  0  0  0  0  0
  -18.6808   18.9400  -18.4446 N   0  0  0  0  0  0  0  0  0  0  0  0
  -19.9449   18.8491  -17.8357 C   0  0  0  0  0  0  0  0  0  0  0  0
  -20.8753   18.1939  -18.4431 O   0  0  0  0  0  0  0  0  0  0  0  0
  -17.8780   19.3923  -18.0081 H   0  0  0  0  0  0  0  0  0  0  0  0
  -20.3616   19.4100  -16.5798 C   0  0  0  0  0  0  0  0  0  0  0  0
  -20.7383   20.7730  -16.5214 C   0  0  0  0  0  0  0  0  0  0  0  0
  -21.0719   21.3877  -15.3454 C   0  0  0  0  0  0  0  0  0  0  0  0
  -21.0494   20.6902  -14.1685 C   0  0  0  0  0  0  0  0  0  0  0  0
  -20.6907   19.3579  -14.1631 C   0  0  0  0  0  0  0  0  0  0  0  0
  -20.3591   18.7538  -15.3579 C   0  0  0  0  0  0  0  0  0  0  0  0
  -20.6786   18.6785  -12.8412 C   0  0  0  0  0  0  0  0  0  0  0  0
  -21.6804   17.6975  -12.8437 F   0  0  0  0  0  0  0  0  0  0  0  0
  -20.9072   19.4981  -11.7791 F   0  0  0  0  0  0  0  0  0  0  0  0
  -19.4296   18.0896  -12.6250 F   0  0  0  0  0  0  0  0  0  0  0  0
  -18.6927   15.2692  -21.8478 N   0  0  0  0  0  0  0  0  0  0  0  0
  -19.2476   15.2401  -22.8052 H   0  0  0  0  0  0  0  0  0  0  0  0
  -18.3636   14.0339  -21.2795 C   0  0  0  0  0  0  0  0  0  0  0  0
  -18.6459   13.4059  -20.1350 N   0  0  0  0  0  0  0  0  0  0  0  0
  -17.9780   12.2258  -20.0174 C   0  0  0  0  0  0  0  0  0  0  0  0
  -17.8744   11.2442  -19.0651 C   0  0  0  0  0  0  0  0  0  0  0  0
  -17.0438   10.1611  -19.2425 C   0  0  0  0  0  0  0  0  0  0  0  0
  -16.2897   10.0310  -20.3951 C   0  0  0  0  0  0  0  0  0  0  0  0
  -16.3931   11.0154  -21.3560 C   0  0  0  0  0  0  0  0  0  0  0  0
  -17.2417   12.1004  -21.1399 C   0  0  0  0  0  0  0  0  0  0  0  0
  -17.4652   13.1656  -21.8966 N   0  0  0  0  0  0  0  0  0  0  0  0
  -16.8664   13.3917  -23.1599 C   0  0  0  0  0  0  0  0  0  0  0  0
  -17.3781   12.7910  -24.2891 C   0  0  0  0  0  0  0  0  0  0  0  0
  -16.8239   12.9924  -25.5250 C   0  0  0  0  0  0  0  0  0  0  0  0
  -17.3497   12.3913  -26.7090 N   0  0  0  0  0  0  0  0  0  0  0  0
  -15.7378   13.8085  -25.6282 N   0  0  0  0  0  0  0  0  0  0  0  0
  -15.2377   14.3970  -24.5161 C   0  0  0  0  0  0  0  0  0  0  0  0
  -15.7927   14.1851  -23.3333 N   0  0  0  0  0  0  0  0  0  0  0  0
  -16.7355   12.2635  -27.5373 H   0  0  0  0  0  0  0  0  0  0  0  0
  -18.3538   12.0872  -26.7138 H   0  0  0  0  0  0  0  0  0  0  0  0
  1  2  1  0  0  0
  2  3  2  0  0  0
  3  4  1  0  0  0
  4  5  2  0  0  0
  5  8  1  0  0  0
  8  9  1  0  0  0
  9 10  2  0  0  0
  9 12  1  0  0  0
 12 13  2  0  0  0
 13 14  1  0  0  0
 14 15  2  0  0  0
 15 16  1  0  0  0
 16 17  2  0  0  0
 16 18  1  0  0  0
 18 19  1  0  0  0
 18 20  1  0  0  0
 18 21  1  0  0  0
  5  6  1  0  0  0
  6  7  2  0  0  0
  7 22  1  0  0  0
 22 24  1  0  0  0
 24 25  2  0  0  0
 25 26  1  0  0  0
 26 27  2  0  0  0
 27 28  1  0  0  0
 28 29  2  0  0  0
 29 30  1  0  0  0
 30 31  2  0  0  0
 31 32  1  0  0  0
 32 33  1  0  0  0
 33 34  2  0  0  0
 34 35  1  0  0  0
 35 36  1  0  0  0
 35 37  2  0  0  0
 37 38  1  0  0  0
 38 39  2  0  0  0
  7  2  1  0  0  0
 32 24  1  0  0  0
 39 33  1  0  0  0
 17 12  1  0  0  0
 31 26  1  0  0  0
  8 11  1  0  0  0
 22 23  1  0  0  0
 36 40  1  0  0  0
 36 41  1  0  0  0
M  END
> <minimizedAffinity>
-9.45254

> <CNNscore>
0.1311529875

> <CNNaffinity>
6.5920438766

> <CNN_VS>
0.8645662665

> <CNNaffinity_variance>
0.1681998074

$$$$
[H]c1nc(N([H])[H])c([H])c(-n2c(N([H])c3c([H])c(N([H])C(=O)c4c([H])c([H])c([H])c(C(F)(F)F)c4[H])c([H])c([H])c3C([H])([H])[H])nc3c([H])c([H])c([H])c([H])c32)n1


 41 45  0  0  0  0  0  0  0  0999 V2000
  -16.1095   10.7442  -21.0570 C   0  0  0  0  0  0  0  0  0  0  0  0
  -17.0605   10.7379  -19.8895 C   0  0  0  0  0  0  0  0  0  0  0  0
  -17.0499    9.7361  -18.9757 C   0  0  0  0  0  0  0  0  0  0  0  0
  -17.9424    9.7140  -17.9282 C   0  0  0  0  0  0  0  0  0  0  0  0
  -18.8864   10.7147  -17.7644 C   0  0  0  0  0  0  0  0  0  0  0  0
  -18.9157   11.7326  -18.6802 C   0  0  0  0  0  0  0  0  0  0  0  0
  -18.0219   11.7828  -19.7543 C   0  0  0  0  0  0  0  0  0  0  0  0
  -19.7184   10.6256  -16.5708 N   0  0  0  0  0  0  0  0  0  0  0  0
  -20.0711    9.3595  -16.0715 C   0  0  0  0  0  0  0  0  0  0  0  0
  -19.5957    8.3126  -16.6564 O   0  0  0  0  0  0  0  0  0  0  0  0
  -20.0066   11.5015  -16.1358 H   0  0  0  0  0  0  0  0  0  0  0  0
  -20.9247    9.0577  -14.9555 C   0  0  0  0  0  0  0  0  0  0  0  0
  -21.4618   10.1187  -14.1881 C   0  0  0  0  0  0  0  0  0  0  0  0
  -22.2187    9.8994  -13.0695 C   0  0  0  0  0  0  0  0  0  0  0  0
  -22.4825    8.6238  -12.6508 C   0  0  0  0  0  0  0  0  0  0  0  0
  -21.9861    7.5488  -13.3591 C   0  0  0  0  0  0  0  0  0  0  0  0
  -21.2265    7.7882  -14.4853 C   0  0  0  0  0  0  0  0  0  0  0  0
  -22.3073    6.1981  -12.8285 C   0  0  0  0  0  0  0  0  0  0  0  0
  -22.7364    5.3983  -13.8972 F   0  0  0  0  0  0  0  0  0  0  0  0
  -23.2834    6.1775  -11.8805 F   0  0  0  0  0  0  0  0  0  0  0  0
  -21.1699    5.6408  -12.2374 F   0  0  0  0  0  0  0  0  0  0  0  0
  -17.8640   12.7966  -20.6824 N   0  0  0  0  0  0  0  0  0  0  0  0
  -17.6972   12.4230  -21.7110 H   0  0  0  0  0  0  0  0  0  0  0  0
  -17.8332   14.1846  -20.5101 C   0  0  0  0  0  0  0  0  0  0  0  0
  -18.2422   15.0371  -19.5667 N   0  0  0  0  0  0  0  0  0  0  0  0
  -18.0620   16.3354  -19.9334 C   0  0  0  0  0  0  0  0  0  0  0  0
  -18.3347   17.5609  -19.3814 C   0  0  0  0  0  0  0  0  0  0  0  0
  -18.0590   18.7272  -20.0585 C   0  0  0  0  0  0  0  0  0  0  0  0
  -17.4922   18.6940  -21.3201 C   0  0  0  0  0  0  0  0  0  0  0  0
  -17.2145   17.4629  -21.8774 C   0  0  0  0  0  0  0  0  0  0  0  0
  -17.5114   16.3025  -21.1637 C   0  0  0  0  0  0  0  0  0  0  0  0
  -17.3687   15.0321  -21.5140 N   0  0  0  0  0  0  0  0  0  0  0  0
  -16.8220   14.5964  -22.7456 C   0  0  0  0  0  0  0  0  0  0  0  0
  -15.5847   15.0438  -23.1539 C   0  0  0  0  0  0  0  0  0  0  0  0
  -15.0277   14.6385  -24.3373 C   0  0  0  0  0  0  0  0  0  0  0  0
  -13.7398   15.0788  -24.7699 N   0  0  0  0  0  0  0  0  0  0  0  0
  -15.7248   13.7716  -25.1238 N   0  0  0  0  0  0  0  0  0  0  0  0
  -16.9407   13.3341  -24.7192 C   0  0  0  0  0  0  0  0  0  0  0  0
  -17.4561   13.7420  -23.5704 N   0  0  0  0  0  0  0  0  0  0  0  0
  -13.5014   15.0567  -25.7810 H   0  0  0  0  0  0  0  0  0  0  0  0
  -13.0582   15.4205  -24.0492 H   0  0  0  0  0  0  0  0  0  0  0  0
  1  2  1  0  0  0
  2  3  2  0  0  0
  3  4  1  0  0  0
  4  5  2  0  0  0
  5  8  1  0  0  0
  8  9  1  0  0  0
  9 10  2  0  0  0
  9 12  1  0  0  0
 12 13  2  0  0  0
 13 14  1  0  0  0
 14 15  2  0  0  0
 15 16  1  0  0  0
 16 17  2  0  0  0
 16 18  1  0  0  0
 18 19  1  0  0  0
 18 20  1  0  0  0
 18 21  1  0  0  0
  5  6  1  0  0  0
  6  7  2  0  0  0
  7 22  1  0  0  0
 22 24  1  0  0  0
 24 25  2  0  0  0
 25 26  1  0  0  0
 26 27  2  0  0  0
 27 28  1  0  0  0
 28 29  2  0  0  0
 29 30  1  0  0  0
 30 31  2  0  0  0
 31 32  1  0  0  0
 32 33  1  0  0  0
 33 34  2  0  0  0
 34 35  1  0  0  0
 35 36  1  0  0  0
 35 37  2  0  0  0
 37 38  1  0  0  0
 38 39  2  0  0  0
  7  2  1  0  0  0
 32 24  1  0  0  0
 39 33  1  0  0  0
 17 12  1  0  0  0
 31 26  1  0  0  0
  8 11  1  0  0  0
 22 23  1  0  0  0
 36 40  1  0  0  0
 36 41  1  0  0  0
M  END
> <minimizedAffinity>
-8.71699

> <CNNscore>
0.1174436808

> <CNNaffinity>
6.6775078773

> <CNN_VS>
0.7842311263

> <CNNaffinity_variance>
0.0949501097

$$$$
[H]c1nc(N([H])[H])c([H])c(-n2c(N([H])c3c([H])c(N([H])C(=O)c4c([H])c([H])c([H])c(C(F)(F)F)c4[H])c([H])c([H])c3C([H])([H])[H])nc3c([H])c([H])c([H])c([H])c32)n1


 41 45  0  0  0  0  0  0  0  0999 V2000
  -15.6378   11.6487  -22.6514 C   0  0  0  0  0  0  0  0  0  0  0  0
  -16.4439   11.6026  -21.3804 C   0  0  0  0  0  0  0  0  0  0  0  0
  -16.1497   10.7253  -20.3891 C   0  0  0  0  0  0  0  0  0  0  0  0
  -16.9082   10.6610  -19.2425 C   0  0  0  0  0  0  0  0  0  0  0  0
  -18.0017   11.4906  -19.0541 C   0  0  0  0  0  0  0  0  0  0  0  0
  -18.3175   12.3800  -20.0465 C   0  0  0  0  0  0  0  0  0  0  0  0
  -17.5657   12.4691  -21.2222 C   0  0  0  0  0  0  0  0  0  0  0  0
  -18.6733   11.3875  -17.7645 N   0  0  0  0  0  0  0  0  0  0  0  0
  -19.0071   10.1172  -17.2627 C   0  0  0  0  0  0  0  0  0  0  0  0
  -18.6537    9.0762  -17.9376 O   0  0  0  0  0  0  0  0  0  0  0  0
  -18.8676   12.2566  -17.2682 H   0  0  0  0  0  0  0  0  0  0  0  0
  -19.7186    9.8053  -16.0537 C   0  0  0  0  0  0  0  0  0  0  0  0
  -20.1233    8.4705  -15.8134 C   0  0  0  0  0  0  0  0  0  0  0  0
  -20.8684    8.1198  -14.7207 C   0  0  0  0  0  0  0  0  0  0  0  0
  -21.2529    9.0671  -13.8115 C   0  0  0  0  0  0  0  0  0  0  0  0
  -20.8875   10.3852  -13.9924 C   0  0  0  0  0  0  0  0  0  0  0  0
  -20.1348   10.7207  -15.0985 C   0  0  0  0  0  0  0  0  0  0  0  0
  -21.3581   11.3520  -12.9663 C   0  0  0  0  0  0  0  0  0  0  0  0
  -21.5647   12.5895  -13.5923 F   0  0  0  0  0  0  0  0  0  0  0  0
  -20.4931   11.5514  -11.9347 F   0  0  0  0  0  0  0  0  0  0  0  0
  -22.5511   10.8949  -12.3994 F   0  0  0  0  0  0  0  0  0  0  0  0
  -17.6992   13.3865  -22.2492 N   0  0  0  0  0  0  0  0  0  0  0  0
  -17.3854   12.9872  -23.2329 H   0  0  0  0  0  0  0  0  0  0  0  0
  -18.1116   14.7230  -22.2211 C   0  0  0  0  0  0  0  0  0  0  0  0
  -19.0694   15.4118  -21.5949 N   0  0  0  0  0  0  0  0  0  0  0  0
  -19.1153   16.7112  -21.9971 C   0  0  0  0  0  0  0  0  0  0  0  0
  -19.9000   17.8008  -21.7176 C   0  0  0  0  0  0  0  0  0  0  0  0
  -19.7049   19.0047  -22.3557 C   0  0  0  0  0  0  0  0  0  0  0  0
  -18.7032   19.1496  -23.2989 C   0  0  0  0  0  0  0  0  0  0  0  0
  -17.9105   18.0562  -23.5808 C   0  0  0  0  0  0  0  0  0  0  0  0
  -18.1402   16.8514  -22.9176 C   0  0  0  0  0  0  0  0  0  0  0  0
  -17.5369   15.6793  -23.0559 N   0  0  0  0  0  0  0  0  0  0  0  0
  -16.4568   15.4325  -23.9380 C   0  0  0  0  0  0  0  0  0  0  0  0
  -16.6419   15.5057  -25.3011 C   0  0  0  0  0  0  0  0  0  0  0  0
  -15.6170   15.2760  -26.1796 C   0  0  0  0  0  0  0  0  0  0  0  0
  -15.7856   15.3628  -27.5952 N   0  0  0  0  0  0  0  0  0  0  0  0
  -14.3873   14.9664  -25.6815 N   0  0  0  0  0  0  0  0  0  0  0  0
  -14.2092   14.8953  -24.3411 C   0  0  0  0  0  0  0  0  0  0  0  0
  -15.2173   15.1219  -23.5140 N   0  0  0  0  0  0  0  0  0  0  0  0
  -15.1320   14.8548  -28.2232 H   0  0  0  0  0  0  0  0  0  0  0  0
  -16.5756   15.9414  -27.9717 H   0  0  0  0  0  0  0  0  0  0  0  0
  1  2  1  0  0  0
  2  3  2  0  0  0
  3  4  1  0  0  0
  4  5  2  0  0  0
  5  8  1  0  0  0
  8  9  1  0  0  0
  9 10  2  0  0  0
  9 12  1  0  0  0
 12 13  2  0  0  0
 13 14  1  0  0  0
 14 15  2  0  0  0
 15 16  1  0  0  0
 16 17  2  0  0  0
 16 18  1  0  0  0
 18 19  1  0  0  0
 18 20  1  0  0  0
 18 21  1  0  0  0
  5  6  1  0  0  0
  6  7  2  0  0  0
  7 22  1  0  0  0
 22 24  1  0  0  0
 24 25  2  0  0  0
 25 26  1  0  0  0
 26 27  2  0  0  0
 27 28  1  0  0  0
 28 29  2  0  0  0
 29 30  1  0  0  0
 30 31  2  0  0  0
 31 32  1  0  0  0
 32 33  1  0  0  0
 33 34  2  0  0  0
 34 35  1  0  0  0
 35 36  1  0  0  0
 35 37  2  0  0  0
 37 38  1  0  0  0
 38 39  2  0  0  0
  7  2  1  0  0  0
 32 24  1  0  0  0
 39 33  1  0  0  0
 17 12  1  0  0  0
 31 26  1  0  0  0
  8 11  1  0  0  0
 22 23  1  0  0  0
 36 40  1  0  0  0
 36 41  1  0  0  0
M  END
> <minimizedAffinity>
-9.59246

> <CNNscore>
0.1151639968

> <CNNaffinity>
6.5167970657

> <CNN_VS>
0.7505003810

> <CNNaffinity_variance>
0.2604547441

$$$$
[H]c1nc(N([H])[H])c([H])c(-n2c(N([H])c3c([H])c(N([H])C(=O)c4c([H])c([H])c([H])c(C(F)(F)F)c4[H])c([H])c([H])c3C([H])([H])[H])nc3c([H])c([H])c([H])c([H])c32)n1


 41 45  0  0  0  0  0  0  0  0999 V2000
  -19.4537   16.9882  -22.6689 C   0  0  0  0  0  0  0  0  0  0  0  0
  -19.7436   17.2639  -21.2172 C   0  0  0  0  0  0  0  0  0  0  0  0
  -20.6980   18.1519  -20.8440 C   0  0  0  0  0  0  0  0  0  0  0  0
  -20.9384   18.4281  -19.5173 C   0  0  0  0  0  0  0  0  0  0  0  0
  -20.2163   17.8093  -18.5098 C   0  0  0  0  0  0  0  0  0  0  0  0
  -19.2447   16.9128  -18.8673 C   0  0  0  0  0  0  0  0  0  0  0  0
  -18.9777   16.6112  -20.2064 C   0  0  0  0  0  0  0  0  0  0  0  0
  -20.6204   18.1199  -17.1442 N   0  0  0  0  0  0  0  0  0  0  0  0
  -21.4211   17.2043  -16.4390 C   0  0  0  0  0  0  0  0  0  0  0  0
  -21.7250   16.0868  -17.0072 O   0  0  0  0  0  0  0  0  0  0  0  0
  -20.2913   18.9999  -16.7483 H   0  0  0  0  0  0  0  0  0  0  0  0
  -21.9724   17.3478  -15.1196 C   0  0  0  0  0  0  0  0  0  0  0  0
  -23.2599   16.8272  -14.8469 C   0  0  0  0  0  0  0  0  0  0  0  0
  -23.8733   16.9960  -13.6356 C   0  0  0  0  0  0  0  0  0  0  0  0
  -23.2491   17.6874  -12.6334 C   0  0  0  0  0  0  0  0  0  0  0  0
  -21.9923   18.2177  -12.8404 C   0  0  0  0  0  0  0  0  0  0  0  0
  -21.3880   18.0365  -14.0670 C   0  0  0  0  0  0  0  0  0  0  0  0
  -21.3916   18.9659  -11.7053 C   0  0  0  0  0  0  0  0  0  0  0  0
  -22.2332   18.8242  -10.5929 F   0  0  0  0  0  0  0  0  0  0  0  0
  -21.2239   20.2979  -11.9282 F   0  0  0  0  0  0  0  0  0  0  0  0
  -20.1245   18.4502  -11.4183 F   0  0  0  0  0  0  0  0  0  0  0  0
  -18.1124   15.6542  -20.7062 N   0  0  0  0  0  0  0  0  0  0  0  0
  -17.4798   16.0291  -21.5336 H   0  0  0  0  0  0  0  0  0  0  0  0
  -17.9591   14.3062  -20.3650 C   0  0  0  0  0  0  0  0  0  0  0  0
  -18.2229   13.5593  -19.2895 N   0  0  0  0  0  0  0  0  0  0  0  0
  -17.7797   12.2802  -19.4302 C   0  0  0  0  0  0  0  0  0  0  0  0
  -17.7553   11.1552  -18.6459 C   0  0  0  0  0  0  0  0  0  0  0  0
  -17.1685    9.9902  -19.0854 C   0  0  0  0  0  0  0  0  0  0  0  0
  -16.5879    9.9214  -20.3392 C   0  0  0  0  0  0  0  0  0  0  0  0
  -16.6127   11.0505  -21.1316 C   0  0  0  0  0  0  0  0  0  0  0  0
  -17.2122   12.2142  -20.6514 C   0  0  0  0  0  0  0  0  0  0  0  0
  -17.3158   13.4092  -21.2155 N   0  0  0  0  0  0  0  0  0  0  0  0
  -16.8323   13.7308  -22.5072 C   0  0  0  0  0  0  0  0  0  0  0  0
  -17.2286   12.9934  -23.6012 C   0  0  0  0  0  0  0  0  0  0  0  0
  -16.7816   13.2814  -24.8631 C   0  0  0  0  0  0  0  0  0  0  0  0
  -17.1935   12.5386  -26.0113 N   0  0  0  0  0  0  0  0  0  0  0  0
  -15.9220   14.3253  -25.0287 N   0  0  0  0  0  0  0  0  0  0  0  0
  -15.5347   15.0477  -23.9510 C   0  0  0  0  0  0  0  0  0  0  0  0
  -15.9818   14.7477  -22.7419 N   0  0  0  0  0  0  0  0  0  0  0  0
  -16.5964   12.5330  -26.8617 H   0  0  0  0  0  0  0  0  0  0  0  0
  -18.0976   12.0081  -25.9677 H   0  0  0  0  0  0  0  0  0  0  0  0
  1  2  1  0  0  0
  2  3  2  0  0  0
  3  4  1  0  0  0
  4  5  2  0  0  0
  5  8  1  0  0  0
  8  9  1  0  0  0
  9 10  2  0  0  0
  9 12  1  0  0  0
 12 13  2  0  0  0
 13 14  1  0  0  0
 14 15  2  0  0  0
 15 16  1  0  0  0
 16 17  2  0  0  0
 16 18  1  0  0  0
 18 19  1  0  0  0
 18 20  1  0  0  0
 18 21  1  0  0  0
  5  6  1  0  0  0
  6  7  2  0  0  0
  7 22  1  0  0  0
 22 24  1  0  0  0
 24 25  2  0  0  0
 25 26  1  0  0  0
 26 27  2  0  0  0
 27 28  1  0  0  0
 28 29  2  0  0  0
 29 30  1  0  0  0
 30 31  2  0  0  0
 31 32  1  0  0  0
 32 33  1  0  0  0
 33 34  2  0  0  0
 34 35  1  0  0  0
 35 36  1  0  0  0
 35 37  2  0  0  0
 37 38  1  0  0  0
 38 39  2  0  0  0
  7  2  1  0  0  0
 32 24  1  0  0  0
 39 33  1  0  0  0
 17 12  1  0  0  0
 31 26  1  0  0  0
  8 11  1  0  0  0
 22 23  1  0  0  0
 36 40  1  0  0  0
 36 41  1  0  0  0
M  END
> <minimizedAffinity>
-8.48027

> <CNNscore>
0.0982600823

> <CNNaffinity>
6.4422926903

> <CNN_VS>
0.6330202222

> <CNNaffinity_variance>
0.1249889508

$$$$
[H]c1nc(N([H])[H])c([H])c(-n2c(N([H])c3c([H])c(N([H])C(=O)c4c([H])c([H])c([H])c(C(F)(F)F)c4[H])c([H])c([H])c3C([H])([H])[H])nc3c([H])c([H])c([H])c([H])c32)n1


 41 45  0  0  0  0  0  0  0  0999 V2000
  -16.4687   10.1232  -19.4965 C   0  0  0  0  0  0  0  0  0  0  0  0
  -17.6564   10.5164  -18.6584 C   0  0  0  0  0  0  0  0  0  0  0  0
  -18.2601    9.6295  -17.8292 C   0  0  0  0  0  0  0  0  0  0  0  0
  -19.3663    9.9806  -17.0895 C   0  0  0  0  0  0  0  0  0  0  0  0
  -19.9068   11.2543  -17.1611 C   0  0  0  0  0  0  0  0  0  0  0  0
  -19.3136   12.1626  -17.9970 C   0  0  0  0  0  0  0  0  0  0  0  0
  -18.1886   11.8357  -18.7605 C   0  0  0  0  0  0  0  0  0  0  0  0
  -21.0246   11.5304  -16.2674 N   0  0  0  0  0  0  0  0  0  0  0  0
  -20.7788   11.7139  -14.8952 C   0  0  0  0  0  0  0  0  0  0  0  0
  -19.5579   11.6891  -14.4797 O   0  0  0  0  0  0  0  0  0  0  0  0
  -21.9530   11.5889  -16.6847 H   0  0  0  0  0  0  0  0  0  0  0  0
  -21.7390   11.9319  -13.8484 C   0  0  0  0  0  0  0  0  0  0  0  0
  -23.0813   12.2229  -14.1899 C   0  0  0  0  0  0  0  0  0  0  0  0
  -24.0272   12.5150  -13.2454 C   0  0  0  0  0  0  0  0  0  0  0  0
  -23.6970   12.5363  -11.9178 C   0  0  0  0  0  0  0  0  0  0  0  0
  -22.4038   12.2602  -11.5242 C   0  0  0  0  0  0  0  0  0  0  0  0
  -21.4635   11.9660  -12.4895 C   0  0  0  0  0  0  0  0  0  0  0  0
  -22.1265   12.3185  -10.0651 C   0  0  0  0  0  0  0  0  0  0  0  0
  -23.2422   12.8815   -9.4293 F   0  0  0  0  0  0  0  0  0  0  0  0
  -21.0388   13.0613   -9.7229 F   0  0  0  0  0  0  0  0  0  0  0  0
  -21.8947   11.0294   -9.5771 F   0  0  0  0  0  0  0  0  0  0  0  0
  -17.4264   12.6748  -19.5537 N   0  0  0  0  0  0  0  0  0  0  0  0
  -16.6625   13.2376  -18.9834 H   0  0  0  0  0  0  0  0  0  0  0  0
  -17.5098   12.9483  -20.9231 C   0  0  0  0  0  0  0  0  0  0  0  0
  -17.2197   12.2866  -22.0465 N   0  0  0  0  0  0  0  0  0  0  0  0
  -17.3952   13.0550  -23.1561 C   0  0  0  0  0  0  0  0  0  0  0  0
  -17.2108   12.8919  -24.5054 C   0  0  0  0  0  0  0  0  0  0  0  0
  -17.4467   13.9210  -25.3885 C   0  0  0  0  0  0  0  0  0  0  0  0
  -17.8827   15.1536  -24.9361 C   0  0  0  0  0  0  0  0  0  0  0  0
  -18.0714   15.3204  -23.5797 C   0  0  0  0  0  0  0  0  0  0  0  0
  -17.8182   14.2566  -22.7146 C   0  0  0  0  0  0  0  0  0  0  0  0
  -17.8925   14.2034  -21.3922 N   0  0  0  0  0  0  0  0  0  0  0  0
  -18.3012   15.2801  -20.5680 C   0  0  0  0  0  0  0  0  0  0  0  0
  -17.5442   16.4291  -20.4993 C   0  0  0  0  0  0  0  0  0  0  0  0
  -17.9143   17.4885  -19.7147 C   0  0  0  0  0  0  0  0  0  0  0  0
  -17.1512   18.6936  -19.6428 N   0  0  0  0  0  0  0  0  0  0  0  0
  -19.0616   17.3920  -18.9864 N   0  0  0  0  0  0  0  0  0  0  0  0
  -19.8030   16.2611  -19.0565 C   0  0  0  0  0  0  0  0  0  0  0  0
  -19.4221   15.2516  -19.8230 N   0  0  0  0  0  0  0  0  0  0  0  0
  -17.2399   19.3097  -18.8107 H   0  0  0  0  0  0  0  0  0  0  0  0
  -16.5102   18.9297  -20.4390 H   0  0  0  0  0  0  0  0  0  0  0  0
  1  2  1  0  0  0
  2  3  2  0  0  0
  3  4  1  0  0  0
  4  5  2  0  0  0
  5  8  1  0  0  0
  8  9  1  0  0  0
  9 10  2  0  0  0
  9 12  1  0  0  0
 12 13  2  0  0  0
 13 14  1  0  0  0
 14 15  2  0  0  0
 15 16  1  0  0  0
 16 17  2  0  0  0
 16 18  1  0  0  0
 18 19  1  0  0  0
 18 20  1  0  0  0
 18 21  1  0  0  0
  5  6  1  0  0  0
  6  7  2  0  0  0
  7 22  1  0  0  0
 22 24  1  0  0  0
 24 25  2  0  0  0
 25 26  1  0  0  0
 26 27  2  0  0  0
 27 28  1  0  0  0
 28 29  2  0  0  0
 29 30  1  0  0  0
 30 31  2  0  0  0
 31 32  1  0  0  0
 32 33  1  0  0  0
 33 34  2  0  0  0
 34 35  1  0  0  0
 35 36  1  0  0  0
 35 37  2  0  0  0
 37 38  1  0  0  0
 38 39  2  0  0  0
  7  2  1  0  0  0
 32 24  1  0  0  0
 39 33  1  0  0  0
 17 12  1  0  0  0
 31 26  1  0  0  0
  8 11  1  0  0  0
 22 23  1  0  0  0
 36 40  1  0  0  0
 36 41  1  0  0  0
M  END
> <minimizedAffinity>
-9.31923

> <CNNscore>
0.0847520754

> <CNNaffinity>
6.4242582321

> <CNN_VS>
0.5444692373

> <CNNaffinity_variance>
0.1672568619

$$$$
[H]c1c([H])c([H])c(C([H])([H])[H])c(N([H])c2nc3c([H])c(F)c(N([H])C([H])([H])[H])c([H])c3n3c([H])nc([H])c23)c1[H]


 26 29  0  0  0  0  0  0  0  0999 V2000
  -19.9321   13.3651  -18.6570 C   0  0  0  0  0  0  0  0  0  0  0  0
  -18.9499   12.3988  -18.9114 C   0  0  0  0  0  0  0  0  0  0  0  0
  -18.2130   12.4277  -20.0747 C   0  0  0  0  0  0  0  0  0  0  0  0
  -18.4760   13.4379  -20.9760 C   0  0  0  0  0  0  0  0  0  0  0  0
  -19.4534   14.3980  -20.7211 C   0  0  0  0  0  0  0  0  0  0  0  0
  -20.1903   14.3725  -19.5622 C   0  0  0  0  0  0  0  0  0  0  0  0
  -21.1476   15.3170  -19.3176 F   0  0  0  0  0  0  0  0  0  0  0  0
  -17.7480   13.4434  -22.0954 N   0  0  0  0  0  0  0  0  0  0  0  0
  -16.7922   12.5576  -22.4135 C   0  0  0  0  0  0  0  0  0  0  0  0
  -16.5751   11.5526  -21.4485 C   0  0  0  0  0  0  0  0  0  0  0  0
  -15.6951   10.5001  -21.4353 C   0  0  0  0  0  0  0  0  0  0  0  0
  -15.8446    9.7978  -20.3010 N   0  0  0  0  0  0  0  0  0  0  0  0
  -16.8174   10.4209  -19.6184 C   0  0  0  0  0  0  0  0  0  0  0  0
  -17.2705   11.4923  -20.3084 N   0  0  0  0  0  0  0  0  0  0  0  0
  -20.6741   12.1264  -16.6190 C   0  0  0  0  0  0  0  0  0  0  0  0
  -20.6638   13.2996  -17.4544 N   0  0  0  0  0  0  0  0  0  0  0  0
  -21.2163   14.1202  -17.1536 H   0  0  0  0  0  0  0  0  0  0  0  0
  -16.0137   12.5311  -23.5688 N   0  0  0  0  0  0  0  0  0  0  0  0
  -15.5070   11.6026  -23.7673 H   0  0  0  0  0  0  0  0  0  0  0  0
  -15.8002   13.5870  -24.5314 C   0  0  0  0  0  0  0  0  0  0  0  0
  -14.8148   14.5210  -24.4172 C   0  0  0  0  0  0  0  0  0  0  0  0
  -14.6852   15.5082  -25.4017 C   0  0  0  0  0  0  0  0  0  0  0  0
  -15.5236   15.5699  -26.4890 C   0  0  0  0  0  0  0  0  0  0  0  0
  -16.5183   14.6101  -26.5844 C   0  0  0  0  0  0  0  0  0  0  0  0
  -16.6478   13.6510  -25.6323 C   0  0  0  0  0  0  0  0  0  0  0  0
  -17.7350   12.6155  -25.7523 C   0  0  0  0  0  0  0  0  0  0  0  0
 15 16  1  0  0  0
 16  1  1  0  0  0
  1  2  2  0  0  0
  2  3  1  0  0  0
  3  4  2  0  0  0
  4  5  1  0  0  0
  5  6  2  0  0  0
  6  7  1  0  0  0
  4  8  1  0  0  0
  8  9  2  0  0  0
  9 18  1  0  0  0
 18 20  1  0  0  0
 20 21  2  0  0  0
 21 22  1  0  0  0
 22 23  2  0  0  0
 23 24  1  0  0  0
 24 25  2  0  0  0
 25 26  1  0  0  0
  9 10  1  0  0  0
 10 11  2  0  0  0
 11 12  1  0  0  0
 12 13  2  0  0  0
 13 14  1  0  0  0
  6  1  1  0  0  0
 25 20  1  0  0  0
 14 10  1  0  0  0
 14  3  1  0  0  0
 16 17  1  0  0  0
 18 19  1  0  0  0
M  END
> <minimizedAffinity>
-9.26098

> <CNNscore>
0.9765746593

> <CNNaffinity>
7.5335340500

> <CNN_VS>
7.3570585251

> <CNNaffinity_variance>
0.0692200214

$$$$
[H]c1c([H])c([H])c(C([H])([H])[H])c(N([H])c2nc3c([H])c(F)c(N([H])C([H])([H])[H])c([H])c3n3c([H])nc([H])c23)c1[H]


 26 29  0  0  0  0  0  0  0  0999 V2000
  -19.7780   12.1524  -17.4095 C   0  0  0  0  0  0  0  0  0  0  0  0
  -18.7335   11.5238  -18.1002 C   0  0  0  0  0  0  0  0  0  0  0  0
  -18.3338   11.9722  -19.3397 C   0  0  0  0  0  0  0  0  0  0  0  0
  -18.9961   13.0575  -19.8738 C   0  0  0  0  0  0  0  0  0  0  0  0
  -20.0349   13.6812  -19.1852 C   0  0  0  0  0  0  0  0  0  0  0  0
  -20.4363   13.2370  -17.9490 C   0  0  0  0  0  0  0  0  0  0  0  0
  -21.4557   13.8529  -17.2783 F   0  0  0  0  0  0  0  0  0  0  0  0
  -18.5895   13.4722  -21.0761 N   0  0  0  0  0  0  0  0  0  0  0  0
  -17.6008   12.9272  -21.8006 C   0  0  0  0  0  0  0  0  0  0  0  0
  -16.9668   11.8224  -21.1958 C   0  0  0  0  0  0  0  0  0  0  0  0
  -15.9358   11.0312  -21.6356 C   0  0  0  0  0  0  0  0  0  0  0  0
  -15.6623   10.0905  -20.7179 N   0  0  0  0  0  0  0  0  0  0  0  0
  -16.5267   10.3056  -19.7144 C   0  0  0  0  0  0  0  0  0  0  0  0
  -17.3272   11.3591  -19.9947 N   0  0  0  0  0  0  0  0  0  0  0  0
  -21.2599   10.7546  -15.9644 C   0  0  0  0  0  0  0  0  0  0  0  0
  -20.1561   11.6623  -16.1435 N   0  0  0  0  0  0  0  0  0  0  0  0
  -19.6265   11.9607  -15.3071 H   0  0  0  0  0  0  0  0  0  0  0  0
  -17.1494   13.3312  -23.0554 N   0  0  0  0  0  0  0  0  0  0  0  0
  -16.8933   12.5375  -23.7356 H   0  0  0  0  0  0  0  0  0  0  0  0
  -16.9819   14.6749  -23.5588 C   0  0  0  0  0  0  0  0  0  0  0  0
  -18.0118   15.5528  -23.7170 C   0  0  0  0  0  0  0  0  0  0  0  0
  -17.7519   16.8362  -24.2129 C   0  0  0  0  0  0  0  0  0  0  0  0
  -16.4840   17.2463  -24.5490 C   0  0  0  0  0  0  0  0  0  0  0  0
  -15.4522   16.3371  -24.3800 C   0  0  0  0  0  0  0  0  0  0  0  0
  -15.6994   15.0917  -23.8995 C   0  0  0  0  0  0  0  0  0  0  0  0
  -14.5654   14.1163  -23.7222 C   0  0  0  0  0  0  0  0  0  0  0  0
 15 16  1  0  0  0
 16  1  1  0  0  0
  1  2  2  0  0  0
  2  3  1  0  0  0
  3  4  2  0  0  0
  4  5  1  0  0  0
  5  6  2  0  0  0
  6  7  1  0  0  0
  4  8  1  0  0  0
  8  9  2  0  0  0
  9 18  1  0  0  0
 18 20  1  0  0  0
 20 21  2  0  0  0
 21 22  1  0  0  0
 22 23  2  0  0  0
 23 24  1  0  0  0
 24 25  2  0  0  0
 25 26  1  0  0  0
  9 10  1  0  0  0
 10 11  2  0  0  0
 11 12  1  0  0  0
 12 13  2  0  0  0
 13 14  1  0  0  0
  6  1  1  0  0  0
 25 20  1  0  0  0
 14 10  1  0  0  0
 14  3  1  0  0  0
 16 17  1  0  0  0
 18 19  1  0  0  0
M  END
> <minimizedAffinity>
-8.31022

> <CNNscore>
0.9317231774

> <CNNaffinity>
7.1836915016

> <CNN_VS>
6.6932120323

> <CNNaffinity_variance>
0.0546613820

$$$$
[H]c1c([H])c([H])c(C([H])([H])[H])c(N([H])c2nc3c([H])c(F)c(N([H])C([H])([H])[H])c([H])c3n3c([H])nc([H])c23)c1[H]


 26 29  0  0  0  0  0  0  0  0999 V2000
  -20.0182   13.5169  -18.8965 C   0  0  0  0  0  0  0  0  0  0  0  0
  -19.0242   12.5529  -19.1106 C   0  0  0  0  0  0  0  0  0  0  0  0
  -18.2519   12.5736  -20.2508 C   0  0  0  0  0  0  0  0  0  0  0  0
  -18.4915   13.5733  -21.1702 C   0  0  0  0  0  0  0  0  0  0  0  0
  -19.4808   14.5311  -20.9555 C   0  0  0  0  0  0  0  0  0  0  0  0
  -20.2530   14.5138  -19.8196 C   0  0  0  0  0  0  0  0  0  0  0  0
  -21.2217   15.4559  -19.6144 F   0  0  0  0  0  0  0  0  0  0  0  0
  -17.7294   13.5709  -22.2666 N   0  0  0  0  0  0  0  0  0  0  0  0
  -16.7601   12.6867  -22.5459 C   0  0  0  0  0  0  0  0  0  0  0  0
  -16.5683   11.6925  -21.5644 C   0  0  0  0  0  0  0  0  0  0  0  0
  -15.6844   10.6445  -21.5132 C   0  0  0  0  0  0  0  0  0  0  0  0
  -15.8656    9.9531  -20.3768 N   0  0  0  0  0  0  0  0  0  0  0  0
  -16.8618   10.5784  -19.7310 C   0  0  0  0  0  0  0  0  0  0  0  0
  -17.2983   11.6404  -20.4457 N   0  0  0  0  0  0  0  0  0  0  0  0
  -20.5821   14.3676  -16.6169 C   0  0  0  0  0  0  0  0  0  0  0  0
  -20.7863   13.4600  -17.7165 N   0  0  0  0  0  0  0  0  0  0  0  0
  -21.5261   12.7429  -17.6290 H   0  0  0  0  0  0  0  0  0  0  0  0
  -15.9461   12.6522  -23.6763 N   0  0  0  0  0  0  0  0  0  0  0  0
  -15.1795   11.8969  -23.6748 H   0  0  0  0  0  0  0  0  0  0  0  0
  -15.9994   13.4977  -24.8464 C   0  0  0  0  0  0  0  0  0  0  0  0
  -16.9334   13.3637  -25.8294 C   0  0  0  0  0  0  0  0  0  0  0  0
  -16.9055   14.2314  -26.9280 C   0  0  0  0  0  0  0  0  0  0  0  0
  -15.9614   15.2225  -27.0519 C   0  0  0  0  0  0  0  0  0  0  0  0
  -15.0217   15.3403  -26.0406 C   0  0  0  0  0  0  0  0  0  0  0  0
  -15.0448   14.5012  -24.9736 C   0  0  0  0  0  0  0  0  0  0  0  0
  -14.0153   14.6440  -23.8834 C   0  0  0  0  0  0  0  0  0  0  0  0
 15 16  1  0  0  0
 16  1  1  0  0  0
  1  2  2  0  0  0
  2  3  1  0  0  0
  3  4  2  0  0  0
  4  5  1  0  0  0
  5  6  2  0  0  0
  6  7  1  0  0  0
  4  8  1  0  0  0
  8  9  2  0  0  0
  9 18  1  0  0  0
 18 20  1  0  0  0
 20 21  2  0  0  0
 21 22  1  0  0  0
 22 23  2  0  0  0
 23 24  1  0  0  0
 24 25  2  0  0  0
 25 26  1  0  0  0
  9 10  1  0  0  0
 10 11  2  0  0  0
 11 12  1  0  0  0
 12 13  2  0  0  0
 13 14  1  0  0  0
  6  1  1  0  0  0
 25 20  1  0  0  0
 14 10  1  0  0  0
 14  3  1  0  0  0
 16 17  1  0  0  0
 18 19  1  0  0  0
M  END
> <minimizedAffinity>
-8.75763

> <CNNscore>
0.9305775166

> <CNNaffinity>
7.4131226540

> <CNN_VS>
6.8984851837

> <CNNaffinity_variance>
0.1174513847

$$$$
[H]c1c([H])c([H])c(C([H])([H])[H])c(N([H])c2nc3c([H])c(F)c(N([H])C([H])([H])[H])c([H])c3n3c([H])nc([H])c23)c1[H]


 26 29  0  0  0  0  0  0  0  0999 V2000
  -18.9448    9.3312  -16.5047 C   0  0  0  0  0  0  0  0  0  0  0  0
  -18.0918    9.3880  -17.6148 C   0  0  0  0  0  0  0  0  0  0  0  0
  -18.1048   10.4734  -18.4626 C   0  0  0  0  0  0  0  0  0  0  0  0
  -18.9841   11.4978  -18.1804 C   0  0  0  0  0  0  0  0  0  0  0  0
  -19.8318   11.4392  -17.0758 C   0  0  0  0  0  0  0  0  0  0  0  0
  -19.8218   10.3585  -16.2281 C   0  0  0  0  0  0  0  0  0  0  0  0
  -20.6555   10.3068  -15.1462 F   0  0  0  0  0  0  0  0  0  0  0  0
  -18.9768   12.5380  -19.0175 N   0  0  0  0  0  0  0  0  0  0  0  0
  -18.1940   12.6689  -20.0989 C   0  0  0  0  0  0  0  0  0  0  0  0
  -17.3198   11.5865  -20.3284 C   0  0  0  0  0  0  0  0  0  0  0  0
  -16.3936   11.3789  -21.3190 C   0  0  0  0  0  0  0  0  0  0  0  0
  -15.7879   10.1954  -21.1332 N   0  0  0  0  0  0  0  0  0  0  0  0
  -16.3436    9.6774  -20.0272 C   0  0  0  0  0  0  0  0  0  0  0  0
  -17.2791   10.5167  -19.5278 N   0  0  0  0  0  0  0  0  0  0  0  0
  -20.0562    7.3823  -15.4071 C   0  0  0  0  0  0  0  0  0  0  0  0
  -18.9001    8.2025  -15.6622 N   0  0  0  0  0  0  0  0  0  0  0  0
  -18.0079    7.9471  -15.2063 H   0  0  0  0  0  0  0  0  0  0  0  0
  -18.1581   13.7366  -20.9934 N   0  0  0  0  0  0  0  0  0  0  0  0
  -18.5830   13.5454  -21.9636 H   0  0  0  0  0  0  0  0  0  0  0  0
  -17.6255   15.0634  -20.7860 C   0  0  0  0  0  0  0  0  0  0  0  0
  -17.9362   15.8389  -19.7097 C   0  0  0  0  0  0  0  0  0  0  0  0
  -17.3699   17.1142  -19.5940 C   0  0  0  0  0  0  0  0  0  0  0  0
  -16.5039   17.6168  -20.5355 C   0  0  0  0  0  0  0  0  0  0  0  0
  -16.2023   16.8109  -21.6215 C   0  0  0  0  0  0  0  0  0  0  0  0
  -16.7491   15.5737  -21.7378 C   0  0  0  0  0  0  0  0  0  0  0  0
  -16.4098   14.7112  -22.9252 C   0  0  0  0  0  0  0  0  0  0  0  0
 15 16  1  0  0  0
 16  1  1  0  0  0
  1  2  2  0  0  0
  2  3  1  0  0  0
  3  4  2  0  0  0
  4  5  1  0  0  0
  5  6  2  0  0  0
  6  7  1  0  0  0
  4  8  1  0  0  0
  8  9  2  0  0  0
  9 18  1  0  0  0
 18 20  1  0  0  0
 20 21  2  0  0  0
 21 22  1  0  0  0
 22 23  2  0  0  0
 23 24  1  0  0  0
 24 25  2  0  0  0
 25 26  1  0  0  0
  9 10  1  0  0  0
 10 11  2  0  0  0
 11 12  1  0  0  0
 12 13  2  0  0  0
 13 14  1  0  0  0
  6  1  1  0  0  0
 25 20  1  0  0  0
 14 10  1  0  0  0
 14  3  1  0  0  0
 16 17  1  0  0  0
 18 19  1  0  0  0
M  END
> <minimizedAffinity>
-7.77841

> <CNNscore>
0.9129509926

> <CNNaffinity>
7.0936784744

> <CNN_VS>
6.4761810303

> <CNNaffinity_variance>
0.0779698491

$$$$
[H]c1c([H])c([H])c(C([H])([H])[H])c(N([H])c2nc3c([H])c(F)c(N([H])C([H])([H])[H])c([H])c3n3c([H])nc([H])c23)c1[H]


 26 29  0  0  0  0  0  0  0  0999 V2000
  -17.5128   14.4006  -23.9574 C   0  0  0  0  0  0  0  0  0  0  0  0
  -16.8984   13.2664  -23.4105 C   0  0  0  0  0  0  0  0  0  0  0  0
  -17.1325   12.8947  -22.1050 C   0  0  0  0  0  0  0  0  0  0  0  0
  -17.9898   13.6761  -21.3591 C   0  0  0  0  0  0  0  0  0  0  0  0
  -18.5998   14.8040  -21.9049 C   0  0  0  0  0  0  0  0  0  0  0  0
  -18.3689   15.1779  -23.2064 C   0  0  0  0  0  0  0  0  0  0  0  0
  -18.9701   16.2851  -23.7363 F   0  0  0  0  0  0  0  0  0  0  0  0
  -18.1996   13.2942  -20.0969 N   0  0  0  0  0  0  0  0  0  0  0  0
  -17.6521   12.2251  -19.4998 C   0  0  0  0  0  0  0  0  0  0  0  0
  -16.7866   11.4711  -20.3189 C   0  0  0  0  0  0  0  0  0  0  0  0
  -16.0640   10.3361  -20.0509 C   0  0  0  0  0  0  0  0  0  0  0  0
  -15.3745    9.9688  -21.1427 N   0  0  0  0  0  0  0  0  0  0  0  0
  -15.6752   10.8799  -22.0807 C   0  0  0  0  0  0  0  0  0  0  0  0
  -16.5354   11.8010  -21.5898 N   0  0  0  0  0  0  0  0  0  0  0  0
  -15.9574   15.2196  -25.7317 C   0  0  0  0  0  0  0  0  0  0  0  0
  -17.2465   14.7463  -25.2973 N   0  0  0  0  0  0  0  0  0  0  0  0
  -17.9993   14.6597  -26.0008 H   0  0  0  0  0  0  0  0  0  0  0  0
  -17.8468   11.7961  -18.1885 N   0  0  0  0  0  0  0  0  0  0  0  0
  -16.9554   11.5216  -17.6515 H   0  0  0  0  0  0  0  0  0  0  0  0
  -19.0880   11.6730  -17.4596 C   0  0  0  0  0  0  0  0  0  0  0  0
  -19.8894   12.7319  -17.1548 C   0  0  0  0  0  0  0  0  0  0  0  0
  -21.0757   12.5146  -16.4435 C   0  0  0  0  0  0  0  0  0  0  0  0
  -21.4648   11.2604  -16.0378 C   0  0  0  0  0  0  0  0  0  0  0  0
  -20.6344   10.1986  -16.3587 C   0  0  0  0  0  0  0  0  0  0  0  0
  -19.4832   10.4045  -17.0482 C   0  0  0  0  0  0  0  0  0  0  0  0
  -18.5927    9.2384  -17.3885 C   0  0  0  0  0  0  0  0  0  0  0  0
 15 16  1  0  0  0
 16  1  1  0  0  0
  1  2  2  0  0  0
  2  3  1  0  0  0
  3  4  2  0  0  0
  4  5  1  0  0  0
  5  6  2  0  0  0
  6  7  1  0  0  0
  4  8  1  0  0  0
  8  9  2  0  0  0
  9 18  1  0  0  0
 18 20  1  0  0  0
 20 21  2  0  0  0
 21 22  1  0  0  0
 22 23  2  0  0  0
 23 24  1  0  0  0
 24 25  2  0  0  0
 25 26  1  0  0  0
  9 10  1  0  0  0
 10 11  2  0  0  0
 11 12  1  0  0  0
 12 13  2  0  0  0
 13 14  1  0  0  0
  6  1  1  0  0  0
 25 20  1  0  0  0
 14 10  1  0  0  0
 14  3  1  0  0  0
 16 17  1  0  0  0
 18 19  1  0  0  0
M  END
> <minimizedAffinity>
-8.26109

> <CNNscore>
0.8658396602

> <CNNaffinity>
7.1811447144

> <CNN_VS>
6.2177200317

> <CNNaffinity_variance>
0.2043611705

$$$$
[H]c1c([H])c([H])c(C([H])([H])[H])c(N([H])c2nc3c([H])c(F)c(N([H])C([H])([H])[H])c([H])c3n3c([H])nc([H])c23)c1[H]


 26 29  0  0  0  0  0  0  0  0999 V2000
  -15.6077   15.0577  -24.6617 C   0  0  0  0  0  0  0  0  0  0  0  0
  -15.4508   13.8677  -23.9389 C   0  0  0  0  0  0  0  0  0  0  0  0
  -16.3853   13.4782  -23.0051 C   0  0  0  0  0  0  0  0  0  0  0  0
  -17.4764   14.2985  -22.8083 C   0  0  0  0  0  0  0  0  0  0  0  0
  -17.6306   15.4818  -23.5282 C   0  0  0  0  0  0  0  0  0  0  0  0
  -16.7008   15.8735  -24.4603 C   0  0  0  0  0  0  0  0  0  0  0  0
  -16.8575   17.0351  -25.1634 F   0  0  0  0  0  0  0  0  0  0  0  0
  -18.3673   13.8983  -21.8978 N   0  0  0  0  0  0  0  0  0  0  0  0
  -18.2909   12.7767  -21.1659 C   0  0  0  0  0  0  0  0  0  0  0  0
  -17.1512   11.9852  -21.4174 C   0  0  0  0  0  0  0  0  0  0  0  0
  -16.7497   10.7944  -20.8670 C   0  0  0  0  0  0  0  0  0  0  0  0
  -15.5880   10.4085  -21.4181 N   0  0  0  0  0  0  0  0  0  0  0  0
  -15.2775   11.3642  -22.3074 C   0  0  0  0  0  0  0  0  0  0  0  0
  -16.2234   12.3308  -22.3156 N   0  0  0  0  0  0  0  0  0  0  0  0
  -14.9288   15.5833  -27.0072 C   0  0  0  0  0  0  0  0  0  0  0  0
  -14.6284   15.4198  -25.6081 N   0  0  0  0  0  0  0  0  0  0  0  0
  -13.6556   15.5759  -25.2943 H   0  0  0  0  0  0  0  0  0  0  0  0
  -19.1985   12.3271  -20.2091 N   0  0  0  0  0  0  0  0  0  0  0  0
  -19.3854   11.2672  -20.2068 H   0  0  0  0  0  0  0  0  0  0  0  0
  -19.9184   13.0989  -19.2227 C   0  0  0  0  0  0  0  0  0  0  0  0
  -20.6355   14.2185  -19.5204 C   0  0  0  0  0  0  0  0  0  0  0  0
  -21.3014   14.9018  -18.4957 C   0  0  0  0  0  0  0  0  0  0  0  0
  -21.2575   14.4804  -17.1882 C   0  0  0  0  0  0  0  0  0  0  0  0
  -20.5224   13.3397  -16.9087 C   0  0  0  0  0  0  0  0  0  0  0  0
  -19.8750   12.6739  -17.8991 C   0  0  0  0  0  0  0  0  0  0  0  0
  -19.0805   11.4355  -17.5768 C   0  0  0  0  0  0  0  0  0  0  0  0
 15 16  1  0  0  0
 16  1  1  0  0  0
  1  2  2  0  0  0
  2  3  1  0  0  0
  3  4  2  0  0  0
  4  5  1  0  0  0
  5  6  2  0  0  0
  6  7  1  0  0  0
  4  8  1  0  0  0
  8  9  2  0  0  0
  9 18  1  0  0  0
 18 20  1  0  0  0
 20 21  2  0  0  0
 21 22  1  0  0  0
 22 23  2  0  0  0
 23 24  1  0  0  0
 24 25  2  0  0  0
 25 26  1  0  0  0
  9 10  1  0  0  0
 10 11  2  0  0  0
 11 12  1  0  0  0
 12 13  2  0  0  0
 13 14  1  0  0  0
  6  1  1  0  0  0
 25 20  1  0  0  0
 14 10  1  0  0  0
 14  3  1  0  0  0
 16 17  1  0  0  0
 18 19  1  0  0  0
M  END
> <minimizedAffinity>
-7.32550

> <CNNscore>
0.8580949306

> <CNNaffinity>
7.2681245804

> <CNN_VS>
6.2367410660

> <CNNaffinity_variance>
0.1283435673

$$$$
[H]c1c([H])c([H])c(C([H])([H])[H])c(N([H])c2nc3c([H])c(F)c(N([H])C([H])([H])[H])c([H])c3n3c([H])nc([H])c23)c1[H]


 26 29  0  0  0  0  0  0  0  0999 V2000
  -20.3561   11.1991  -16.5189 C   0  0  0  0  0  0  0  0  0  0  0  0
  -19.3300   10.7052  -17.3352 C   0  0  0  0  0  0  0  0  0  0  0  0
  -18.7603   11.4930  -18.3109 C   0  0  0  0  0  0  0  0  0  0  0  0
  -19.2346   12.7800  -18.4545 C   0  0  0  0  0  0  0  0  0  0  0  0
  -20.2555   13.2693  -17.6417 C   0  0  0  0  0  0  0  0  0  0  0  0
  -20.8260   12.4867  -16.6676 C   0  0  0  0  0  0  0  0  0  0  0  0
  -21.8269   12.9722  -15.8734 F   0  0  0  0  0  0  0  0  0  0  0  0
  -18.6658   13.5228  -19.4072 N   0  0  0  0  0  0  0  0  0  0  0  0
  -17.6817   13.1261  -20.2279 C   0  0  0  0  0  0  0  0  0  0  0  0
  -17.2446   11.8006  -20.0267 C   0  0  0  0  0  0  0  0  0  0  0  0
  -16.2756   11.0709  -20.6677 C   0  0  0  0  0  0  0  0  0  0  0  0
  -16.2062    9.8410  -20.1342 N   0  0  0  0  0  0  0  0  0  0  0  0
  -17.1339    9.8172  -19.1650 C   0  0  0  0  0  0  0  0  0  0  0  0
  -17.7734   11.0066  -19.0902 N   0  0  0  0  0  0  0  0  0  0  0  0
  -20.6468    8.9455  -15.4821 C   0  0  0  0  0  0  0  0  0  0  0  0
  -20.9119   10.3603  -15.5324 N   0  0  0  0  0  0  0  0  0  0  0  0
  -21.5343   10.7680  -14.8144 H   0  0  0  0  0  0  0  0  0  0  0  0
  -17.0646   13.8707  -21.2311 N   0  0  0  0  0  0  0  0  0  0  0  0
  -16.2819   14.5331  -20.9043 H   0  0  0  0  0  0  0  0  0  0  0  0
  -17.3400   13.8672  -22.6492 C   0  0  0  0  0  0  0  0  0  0  0  0
  -16.8720   12.9151  -23.5040 C   0  0  0  0  0  0  0  0  0  0  0  0
  -17.1917   12.9951  -24.8649 C   0  0  0  0  0  0  0  0  0  0  0  0
  -17.9677   14.0086  -25.3744 C   0  0  0  0  0  0  0  0  0  0  0  0
  -18.4325   14.9657  -24.4869 C   0  0  0  0  0  0  0  0  0  0  0  0
  -18.1250   14.8922  -23.1666 C   0  0  0  0  0  0  0  0  0  0  0  0
  -18.6392   15.9415  -22.2162 C   0  0  0  0  0  0  0  0  0  0  0  0
 15 16  1  0  0  0
 16  1  1  0  0  0
  1  2  2  0  0  0
  2  3  1  0  0  0
  3  4  2  0  0  0
  4  5  1  0  0  0
  5  6  2  0  0  0
  6  7  1  0  0  0
  4  8  1  0  0  0
  8  9  2  0  0  0
  9 18  1  0  0  0
 18 20  1  0  0  0
 20 21  2  0  0  0
 21 22  1  0  0  0
 22 23  2  0  0  0
 23 24  1  0  0  0
 24 25  2  0  0  0
 25 26  1  0  0  0
  9 10  1  0  0  0
 10 11  2  0  0  0
 11 12  1  0  0  0
 12 13  2  0  0  0
 13 14  1  0  0  0
  6  1  1  0  0  0
 25 20  1  0  0  0
 14 10  1  0  0  0
 14  3  1  0  0  0
 16 17  1  0  0  0
 18 19  1  0  0  0
M  END
> <minimizedAffinity>
-7.95442

> <CNNscore>
0.7615301013

> <CNNaffinity>
6.8979415894

> <CNN_VS>
5.2529902458

> <CNNaffinity_variance>
0.1402052194

$$$$
[H]c1c([H])c([H])c(C([H])([H])[H])c(N([H])c2nc3c([H])c(F)c(N([H])C([H])([H])[H])c([H])c3n3c([H])nc([H])c23)c1[H]


 26 29  0  0  0  0  0  0  0  0999 V2000
  -17.2666   13.6243  -24.1291 C   0  0  0  0  0  0  0  0  0  0  0  0
  -16.8531   12.6079  -23.2579 C   0  0  0  0  0  0  0  0  0  0  0  0
  -17.1674   12.6529  -21.9177 C   0  0  0  0  0  0  0  0  0  0  0  0
  -17.9007   13.7302  -21.4663 C   0  0  0  0  0  0  0  0  0  0  0  0
  -18.3109   14.7403  -22.3344 C   0  0  0  0  0  0  0  0  0  0  0  0
  -17.9994   14.6989  -23.6716 C   0  0  0  0  0  0  0  0  0  0  0  0
  -18.4046   15.6925  -24.5182 F   0  0  0  0  0  0  0  0  0  0  0  0
  -18.1920   13.7499  -20.1634 N   0  0  0  0  0  0  0  0  0  0  0  0
  -17.8349   12.8192  -19.2658 C   0  0  0  0  0  0  0  0  0  0  0  0
  -17.0878   11.7464  -19.7944 C   0  0  0  0  0  0  0  0  0  0  0  0
  -16.5626   10.6354  -19.1844 C   0  0  0  0  0  0  0  0  0  0  0  0
  -15.9219    9.8802  -20.0906 N   0  0  0  0  0  0  0  0  0  0  0  0
  -16.0548   10.5293  -21.2574 C   0  0  0  0  0  0  0  0  0  0  0  0
  -16.7639   11.6687  -21.0891 N   0  0  0  0  0  0  0  0  0  0  0  0
  -17.4762   12.5384  -26.3685 C   0  0  0  0  0  0  0  0  0  0  0  0
  -16.9240   13.5402  -25.4933 N   0  0  0  0  0  0  0  0  0  0  0  0
  -16.2519   14.2193  -25.8886 H   0  0  0  0  0  0  0  0  0  0  0  0
  -18.1197   12.8055  -17.9019 N   0  0  0  0  0  0  0  0  0  0  0  0
  -17.3488   12.4004  -17.2696 H   0  0  0  0  0  0  0  0  0  0  0  0
  -19.3134   13.2643  -17.2300 C   0  0  0  0  0  0  0  0  0  0  0  0
  -19.6536   14.5786  -17.1144 C   0  0  0  0  0  0  0  0  0  0  0  0
  -20.8323   14.9279  -16.4442 C   0  0  0  0  0  0  0  0  0  0  0  0
  -21.6663   13.9844  -15.8935 C   0  0  0  0  0  0  0  0  0  0  0  0
  -21.3005   12.6543  -16.0230 C   0  0  0  0  0  0  0  0  0  0  0  0
  -20.1585   12.3109  -16.6720 C   0  0  0  0  0  0  0  0  0  0  0  0
  -19.7766   10.8598  -16.8033 C   0  0  0  0  0  0  0  0  0  0  0  0
 15 16  1  0  0  0
 16  1  1  0  0  0
  1  2  2  0  0  0
  2  3  1  0  0  0
  3  4  2  0  0  0
  4  5  1  0  0  0
  5  6  2  0  0  0
  6  7  1  0  0  0
  4  8  1  0  0  0
  8  9  2  0  0  0
  9 18  1  0  0  0
 18 20  1  0  0  0
 20 21  2  0  0  0
 21 22  1  0  0  0
 22 23  2  0  0  0
 23 24  1  0  0  0
 24 25  2  0  0  0
 25 26  1  0  0  0
  9 10  1  0  0  0
 10 11  2  0  0  0
 11 12  1  0  0  0
 12 13  2  0  0  0
 13 14  1  0  0  0
  6  1  1  0  0  0
 25 20  1  0  0  0
 14 10  1  0  0  0
 14  3  1  0  0  0
 16 17  1  0  0  0
 18 19  1  0  0  0
M  END
> <minimizedAffinity>
-7.95759

> <CNNscore>
0.7061970234

> <CNNaffinity>
6.9726662636

> <CNN_VS>
4.9240760803

> <CNNaffinity_variance>
0.1851526201

$$$$
[H]c1c([H])c([H])c(C([H])([H])[H])c(N([H])c2nc3c([H])c(F)c(N([H])C([H])([H])[H])c([H])c3n3c([H])nc([H])c23)c1[H]


 26 29  0  0  0  0  0  0  0  0999 V2000
  -18.6805   11.9463  -18.1251 C   0  0  0  0  0  0  0  0  0  0  0  0
  -18.8272   12.9918  -19.0462 C   0  0  0  0  0  0  0  0  0  0  0  0
  -18.2488   12.9220  -20.2943 C   0  0  0  0  0  0  0  0  0  0  0  0
  -17.5232   11.7905  -20.6029 C   0  0  0  0  0  0  0  0  0  0  0  0
  -17.3783   10.7518  -19.6852 C   0  0  0  0  0  0  0  0  0  0  0  0
  -17.9536   10.8177  -18.4396 C   0  0  0  0  0  0  0  0  0  0  0  0
  -17.8082    9.7957  -17.5437 F   0  0  0  0  0  0  0  0  0  0  0  0
  -16.9729   11.7477  -21.8188 N   0  0  0  0  0  0  0  0  0  0  0  0
  -17.0658   12.7032  -22.7556 C   0  0  0  0  0  0  0  0  0  0  0  0
  -17.8213   13.8312  -22.3743 C   0  0  0  0  0  0  0  0  0  0  0  0
  -18.1236   14.9796  -23.0615 C   0  0  0  0  0  0  0  0  0  0  0  0
  -18.8769   15.7829  -22.2938 N   0  0  0  0  0  0  0  0  0  0  0  0
  -19.0364   15.1257  -21.1348 C   0  0  0  0  0  0  0  0  0  0  0  0
  -18.3971   13.9345  -21.1723 N   0  0  0  0  0  0  0  0  0  0  0  0
  -20.6506   11.6566  -16.6175 C   0  0  0  0  0  0  0  0  0  0  0  0
  -19.2884   12.0573  -16.8586 N   0  0  0  0  0  0  0  0  0  0  0  0
  -18.7429   12.4398  -16.0679 H   0  0  0  0  0  0  0  0  0  0  0  0
  -16.5070   12.6941  -24.0320 N   0  0  0  0  0  0  0  0  0  0  0  0
  -16.6968   11.8109  -24.6168 H   0  0  0  0  0  0  0  0  0  0  0  0
  -15.7081   13.7154  -24.6690 C   0  0  0  0  0  0  0  0  0  0  0  0
  -14.5679   14.2264  -24.1257 C   0  0  0  0  0  0  0  0  0  0  0  0
  -13.8590   15.2156  -24.8181 C   0  0  0  0  0  0  0  0  0  0  0  0
  -14.2756   15.6944  -26.0372 C   0  0  0  0  0  0  0  0  0  0  0  0
  -15.4376   15.1605  -26.5705 C   0  0  0  0  0  0  0  0  0  0  0  0
  -16.1282   14.2012  -25.9027 C   0  0  0  0  0  0  0  0  0  0  0  0
  -17.3895   13.6321  -26.4977 C   0  0  0  0  0  0  0  0  0  0  0  0
 15 16  1  0  0  0
 16  1  1  0  0  0
  1  2  2  0  0  0
  2  3  1  0  0  0
  3  4  2  0  0  0
  4  5  1  0  0  0
  5  6  2  0  0  0
  6  7  1  0  0  0
  4  8  1  0  0  0
  8  9  2  0  0  0
  9 18  1  0  0  0
 18 20  1  0  0  0
 20 21  2  0  0  0
 21 22  1  0  0  0
 22 23  2  0  0  0
 23 24  1  0  0  0
 24 25  2  0  0  0
 25 26  1  0  0  0
  9 10  1  0  0  0
 10 11  2  0  0  0
 11 12  1  0  0  0
 12 13  2  0  0  0
 13 14  1  0  0  0
  6  1  1  0  0  0
 25 20  1  0  0  0
 14 10  1  0  0  0
 14  3  1  0  0  0
 16 17  1  0  0  0
 18 19  1  0  0  0
M  END
> <minimizedAffinity>
-8.51188

> <CNNscore>
0.6942240000

> <CNNaffinity>
6.9959554672

> <CNN_VS>
4.8567600250

> <CNNaffinity_variance>
0.0496819988

$$$$
[H]c1nc2c([H])c(OC([H])([H])[H])c(OC([H])([H])[H])c([H])c2c(Oc2c([H])c([H])c3c(C(=O)N([H])[H])c([H])c([H])c([H])c3c2[H])c1[H]


 30 33  0  0  0  0  0  0  0  0999 V2000
  -17.7771   12.2760  -18.5075 O   0  0  0  0  0  0  0  0  0  0  0  0
  -17.8067   14.1224  -23.0708 C   0  0  0  0  0  0  0  0  0  0  0  0
  -17.0375   12.9762  -23.1015 C   0  0  0  0  0  0  0  0  0  0  0  0
  -16.8097   12.1914  -21.9824 C   0  0  0  0  0  0  0  0  0  0  0  0
  -16.0591   11.0785  -22.0267 N   0  0  0  0  0  0  0  0  0  0  0  0
  -15.8411   10.3200  -20.9368 C   0  0  0  0  0  0  0  0  0  0  0  0
  -16.4025   10.6901  -19.7329 C   0  0  0  0  0  0  0  0  0  0  0  0
  -17.1732   11.8327  -19.6876 C   0  0  0  0  0  0  0  0  0  0  0  0
  -17.3988   12.6153  -20.8097 C   0  0  0  0  0  0  0  0  0  0  0  0
  -18.1697   13.7584  -20.7645 C   0  0  0  0  0  0  0  0  0  0  0  0
  -18.3866   14.5285  -21.8873 C   0  0  0  0  0  0  0  0  0  0  0  0
  -17.0784   14.9067  -25.2824 C   0  0  0  0  0  0  0  0  0  0  0  0
  -17.9963   14.8664  -24.2316 O   0  0  0  0  0  0  0  0  0  0  0  0
  -19.1578   15.6766  -21.8544 O   0  0  0  0  0  0  0  0  0  0  0  0
  -18.7152   16.8971  -21.3216 C   0  0  0  0  0  0  0  0  0  0  0  0
  -18.5583   11.3693  -17.8061 C   0  0  0  0  0  0  0  0  0  0  0  0
  -18.1652   10.0537  -17.7328 C   0  0  0  0  0  0  0  0  0  0  0  0
  -18.9125    9.0837  -17.0374 C   0  0  0  0  0  0  0  0  0  0  0  0
  -20.0638    9.4224  -16.4073 C   0  0  0  0  0  0  0  0  0  0  0  0
  -20.7934    8.4619  -15.7169 C   0  0  0  0  0  0  0  0  0  0  0  0
  -21.9792    8.8571  -15.0673 C   0  0  0  0  0  0  0  0  0  0  0  0
  -22.3787   10.1666  -15.1339 C   0  0  0  0  0  0  0  0  0  0  0  0
  -21.6391   11.0986  -15.8249 C   0  0  0  0  0  0  0  0  0  0  0  0
  -20.4715   10.7390  -16.4711 C   0  0  0  0  0  0  0  0  0  0  0  0
  -19.7294   11.6918  -17.1592 C   0  0  0  0  0  0  0  0  0  0  0  0
  -20.4674    7.0680  -15.6260 C   0  0  0  0  0  0  0  0  0  0  0  0
  -19.4518    6.6517  -14.7054 N   0  0  0  0  0  0  0  0  0  0  0  0
  -20.9829    6.1604  -16.2769 O   0  0  0  0  0  0  0  0  0  0  0  0
  -18.4562    6.9402  -14.7589 H   0  0  0  0  0  0  0  0  0  0  0  0
  -19.7399    6.0179  -13.9350 H   0  0  0  0  0  0  0  0  0  0  0  0
 12 13  1  0  0  0
 13  2  1  0  0  0
  2  3  2  0  0  0
  3  4  1  0  0  0
  4  5  2  0  0  0
  5  6  1  0  0  0
  6  7  2  0  0  0
  7  8  1  0  0  0
  8  1  1  0  0  0
  1 16  1  0  0  0
 16 17  2  0  0  0
 17 18  1  0  0  0
 18 19  2  0  0  0
 19 20  1  0  0  0
 20 21  2  0  0  0
 21 22  1  0  0  0
 22 23  2  0  0  0
 23 24  1  0  0  0
 24 25  2  0  0  0
 20 26  1  0  0  0
 26 27  1  0  0  0
 26 28  2  0  0  0
  8  9  2  0  0  0
  9 10  1  0  0  0
 10 11  2  0  0  0
 11 14  1  0  0  0
 14 15  1  0  0  0
 11  2  1  0  0  0
  9  4  1  0  0  0
 25 16  1  0  0  0
 24 19  1  0  0  0
 27 29  1  0  0  0
 27 30  1  0  0  0
M  END
> <minimizedAffinity>
-8.67560

> <CNNscore>
0.5397937894

> <CNNaffinity>
6.4834899902

> <CNN_VS>
3.4997475147

> <CNNaffinity_variance>
0.1079662591

$$$$
[H]c1nc2c([H])c(OC([H])([H])[H])c(OC([H])([H])[H])c([H])c2c(Oc2c([H])c([H])c3c(C(=O)N([H])[H])c([H])c([H])c([H])c3c2[H])c1[H]


 30 33  0  0  0  0  0  0  0  0999 V2000
  -17.9479   13.7355  -20.3211 O   0  0  0  0  0  0  0  0  0  0  0  0
  -20.3678   11.5983  -16.6049 C   0  0  0  0  0  0  0  0  0  0  0  0
  -19.4683   10.6703  -17.0909 C   0  0  0  0  0  0  0  0  0  0  0  0
  -18.6124   10.9326  -18.1486 C   0  0  0  0  0  0  0  0  0  0  0  0
  -17.7422   10.0201  -18.6112 N   0  0  0  0  0  0  0  0  0  0  0  0
  -16.9133   10.2802  -19.6388 C   0  0  0  0  0  0  0  0  0  0  0  0
  -16.9523   11.5200  -20.2413 C   0  0  0  0  0  0  0  0  0  0  0  0
  -17.8459   12.4567  -19.7661 C   0  0  0  0  0  0  0  0  0  0  0  0
  -18.7006   12.1903  -18.7074 C   0  0  0  0  0  0  0  0  0  0  0  0
  -19.5945   13.1273  -18.2321 C   0  0  0  0  0  0  0  0  0  0  0  0
  -20.4396   12.8504  -17.1785 C   0  0  0  0  0  0  0  0  0  0  0  0
  -22.2179   10.3189  -15.6167 C   0  0  0  0  0  0  0  0  0  0  0  0
  -21.2001   11.2709  -15.5386 O   0  0  0  0  0  0  0  0  0  0  0  0
  -21.3400   13.7818  -16.6931 O   0  0  0  0  0  0  0  0  0  0  0  0
  -21.8143   14.8702  -17.4413 C   0  0  0  0  0  0  0  0  0  0  0  0
  -17.4186   13.9294  -21.5887 C   0  0  0  0  0  0  0  0  0  0  0  0
  -16.2695   14.6701  -21.7350 C   0  0  0  0  0  0  0  0  0  0  0  0
  -15.6813   14.9042  -22.9928 C   0  0  0  0  0  0  0  0  0  0  0  0
  -16.2398   14.3981  -24.1194 C   0  0  0  0  0  0  0  0  0  0  0  0
  -15.6510   14.6270  -25.3572 C   0  0  0  0  0  0  0  0  0  0  0  0
  -16.2576   14.0751  -26.5025 C   0  0  0  0  0  0  0  0  0  0  0  0
  -17.4029   13.3345  -26.3666 C   0  0  0  0  0  0  0  0  0  0  0  0
  -17.9672   13.1230  -25.1297 C   0  0  0  0  0  0  0  0  0  0  0  0
  -17.3933   13.6521  -23.9892 C   0  0  0  0  0  0  0  0  0  0  0  0
  -17.9689   13.4244  -22.7447 C   0  0  0  0  0  0  0  0  0  0  0  0
  -14.4766   15.4163  -25.5927 C   0  0  0  0  0  0  0  0  0  0  0  0
  -14.6186   16.8268  -25.7992 N   0  0  0  0  0  0  0  0  0  0  0  0
  -13.3208   14.9978  -25.6393 O   0  0  0  0  0  0  0  0  0  0  0  0
  -15.1358   17.2555  -26.5904 H   0  0  0  0  0  0  0  0  0  0  0  0
  -14.1705   17.4560  -25.1054 H   0  0  0  0  0  0  0  0  0  0  0  0
 12 13  1  0  0  0
 13  2  1  0  0  0
  2  3  2  0  0  0
  3  4  1  0  0  0
  4  5  2  0  0  0
  5  6  1  0  0  0
  6  7  2  0  0  0
  7  8  1  0  0  0
  8  1  1  0  0  0
  1 16  1  0  0  0
 16 17  2  0  0  0
 17 18  1  0  0  0
 18 19  2  0  0  0
 19 20  1  0  0  0
 20 21  2  0  0  0
 21 22  1  0  0  0
 22 23  2  0  0  0
 23 24  1  0  0  0
 24 25  2  0  0  0
 20 26  1  0  0  0
 26 27  1  0  0  0
 26 28  2  0  0  0
  8  9  2  0  0  0
  9 10  1  0  0  0
 10 11  2  0  0  0
 11 14  1  0  0  0
 14 15  1  0  0  0
 11  2  1  0  0  0
  9  4  1  0  0  0
 25 16  1  0  0  0
 24 19  1  0  0  0
 27 29  1  0  0  0
 27 30  1  0  0  0
M  END
> <minimizedAffinity>
-8.68860

> <CNNscore>
0.4638851583

> <CNNaffinity>
6.5889749527

> <CNN_VS>
3.0565276146

> <CNNaffinity_variance>
0.1568284929

$$$$
[H]c1nc2c([H])c(OC([H])([H])[H])c(OC([H])([H])[H])c([H])c2c(Oc2c([H])c([H])c3c(C(=O)N([H])[H])c([H])c([H])c([H])c3c2[H])c1[H]


 30 33  0  0  0  0  0  0  0  0999 V2000
  -18.1769   11.9294  -22.0942 O   0  0  0  0  0  0  0  0  0  0  0  0
  -19.8154   13.3434  -17.6726 C   0  0  0  0  0  0  0  0  0  0  0  0
  -18.6609   12.6153  -17.4641 C   0  0  0  0  0  0  0  0  0  0  0  0
  -17.9251   12.0572  -18.4972 C   0  0  0  0  0  0  0  0  0  0  0  0
  -16.8034   11.3511  -18.2798 N   0  0  0  0  0  0  0  0  0  0  0  0
  -16.0926   10.8113  -19.2869 C   0  0  0  0  0  0  0  0  0  0  0  0
  -16.5227   10.9839  -20.5856 C   0  0  0  0  0  0  0  0  0  0  0  0
  -17.6743   11.7089  -20.8086 C   0  0  0  0  0  0  0  0  0  0  0  0
  -18.4078   12.2658  -19.7721 C   0  0  0  0  0  0  0  0  0  0  0  0
  -19.5598   12.9910  -19.9951 C   0  0  0  0  0  0  0  0  0  0  0  0
  -20.2807   13.5399  -18.9559 C   0  0  0  0  0  0  0  0  0  0  0  0
  -21.3558   13.1308  -15.7704 C   0  0  0  0  0  0  0  0  0  0  0  0
  -20.5082   13.8776  -16.5902 O   0  0  0  0  0  0  0  0  0  0  0  0
  -21.4373   14.2691  -19.1671 O   0  0  0  0  0  0  0  0  0  0  0  0
  -21.5030   15.4045  -19.9892 C   0  0  0  0  0  0  0  0  0  0  0  0
  -17.6234   12.9664  -22.8308 C   0  0  0  0  0  0  0  0  0  0  0  0
  -16.6793   12.6849  -23.7900 C   0  0  0  0  0  0  0  0  0  0  0  0
  -16.0790   13.6907  -24.5716 C   0  0  0  0  0  0  0  0  0  0  0  0
  -16.4186   14.9916  -24.3996 C   0  0  0  0  0  0  0  0  0  0  0  0
  -15.8275   15.9790  -25.1787 C   0  0  0  0  0  0  0  0  0  0  0  0
  -16.2155   17.3178  -24.9752 C   0  0  0  0  0  0  0  0  0  0  0  0
  -17.1566   17.6082  -24.0220 C   0  0  0  0  0  0  0  0  0  0  0  0
  -17.7265   16.6124  -23.2626 C   0  0  0  0  0  0  0  0  0  0  0  0
  -17.3651   15.2904  -23.4411 C   0  0  0  0  0  0  0  0  0  0  0  0
  -17.9542   14.2930  -22.6729 C   0  0  0  0  0  0  0  0  0  0  0  0
  -14.8130   15.7676  -26.1705 C   0  0  0  0  0  0  0  0  0  0  0  0
  -13.4482   15.6461  -25.7519 N   0  0  0  0  0  0  0  0  0  0  0  0
  -14.9947   15.6777  -27.3837 O   0  0  0  0  0  0  0  0  0  0  0  0
  -12.9101   16.3965  -25.2780 H   0  0  0  0  0  0  0  0  0  0  0  0
  -12.9726   14.7424  -25.9393 H   0  0  0  0  0  0  0  0  0  0  0  0
 12 13  1  0  0  0
 13  2  1  0  0  0
  2  3  2  0  0  0
  3  4  1  0  0  0
  4  5  2  0  0  0
  5  6  1  0  0  0
  6  7  2  0  0  0
  7  8  1  0  0  0
  8  1  1  0  0  0
  1 16  1  0  0  0
 16 17  2  0  0  0
 17 18  1  0  0  0
 18 19  2  0  0  0
 19 20  1  0  0  0
 20 21  2  0  0  0
 21 22  1  0  0  0
 22 23  2  0  0  0
 23 24  1  0  0  0
 24 25  2  0  0  0
 20 26  1  0  0  0
 26 27  1  0  0  0
 26 28  2  0  0  0
  8  9  2  0  0  0
  9 10  1  0  0  0
 10 11  2  0  0  0
 11 14  1  0  0  0
 14 15  1  0  0  0
 11  2  1  0  0  0
  9  4  1  0  0  0
 25 16  1  0  0  0
 24 19  1  0  0  0
 27 29  1  0  0  0
 27 30  1  0  0  0
M  END
> <minimizedAffinity>
-8.27697

> <CNNscore>
0.4510456026

> <CNNaffinity>
6.4682769775

> <CNN_VS>
2.9174878597

> <CNNaffinity_variance>
0.1288927794

$$$$
[H]c1nc2c([H])c(OC([H])([H])[H])c(OC([H])([H])[H])c([H])c2c(Oc2c([H])c([H])c3c(C(=O)N([H])[H])c([H])c([H])c([H])c3c2[H])c1[H]


 30 33  0  0  0  0  0  0  0  0999 V2000
  -18.0945   12.5688  -18.1540 O   0  0  0  0  0  0  0  0  0  0  0  0
  -17.8635   14.0773  -22.8343 C   0  0  0  0  0  0  0  0  0  0  0  0
  -17.1655   12.8885  -22.7559 C   0  0  0  0  0  0  0  0  0  0  0  0
  -17.0226   12.1750  -21.5766 C   0  0  0  0  0  0  0  0  0  0  0  0
  -16.3408   11.0195  -21.5148 N   0  0  0  0  0  0  0  0  0  0  0  0
  -16.2051   10.3307  -20.3668 C   0  0  0  0  0  0  0  0  0  0  0  0
  -16.7812   10.8197  -19.2133 C   0  0  0  0  0  0  0  0  0  0  0  0
  -17.4813   12.0061  -19.2771 C   0  0  0  0  0  0  0  0  0  0  0  0
  -17.6220   12.7170  -20.4591 C   0  0  0  0  0  0  0  0  0  0  0  0
  -18.3223   13.9038  -20.5228 C   0  0  0  0  0  0  0  0  0  0  0  0
  -18.4552   14.6018  -21.7043 C   0  0  0  0  0  0  0  0  0  0  0  0
  -17.7227   14.1439  -25.2863 C   0  0  0  0  0  0  0  0  0  0  0  0
  -17.9695   14.7449  -24.0509 O   0  0  0  0  0  0  0  0  0  0  0  0
  -19.1550   15.7927  -21.7808 O   0  0  0  0  0  0  0  0  0  0  0  0
  -20.0216   16.2527  -20.7774 C   0  0  0  0  0  0  0  0  0  0  0  0
  -19.0376   11.8020  -17.4856 C   0  0  0  0  0  0  0  0  0  0  0  0
  -20.2323   12.3726  -17.1144 C   0  0  0  0  0  0  0  0  0  0  0  0
  -21.2310   11.6499  -16.4339 C   0  0  0  0  0  0  0  0  0  0  0  0
  -21.0427   10.3455  -16.1172 C   0  0  0  0  0  0  0  0  0  0  0  0
  -22.0348    9.6358  -15.4515 C   0  0  0  0  0  0  0  0  0  0  0  0
  -21.8035    8.2794  -15.1497 C   0  0  0  0  0  0  0  0  0  0  0  0
  -20.6160    7.7014  -15.5165 C   0  0  0  0  0  0  0  0  0  0  0  0
  -19.6488    8.4260  -16.1742 C   0  0  0  0  0  0  0  0  0  0  0  0
  -19.8490    9.7581  -16.4834 C   0  0  0  0  0  0  0  0  0  0  0  0
  -18.8671   10.4769  -17.1550 C   0  0  0  0  0  0  0  0  0  0  0  0
  -23.2878   10.1697  -15.0016 C   0  0  0  0  0  0  0  0  0  0  0  0
  -24.4644    9.9313  -15.7835 N   0  0  0  0  0  0  0  0  0  0  0  0
  -23.4669   10.8345  -13.9822 O   0  0  0  0  0  0  0  0  0  0  0  0
  -24.6029   10.2699  -16.7548 H   0  0  0  0  0  0  0  0  0  0  0  0
  -25.2256    9.3814  -15.3406 H   0  0  0  0  0  0  0  0  0  0  0  0
 12 13  1  0  0  0
 13  2  1  0  0  0
  2  3  2  0  0  0
  3  4  1  0  0  0
  4  5  2  0  0  0
  5  6  1  0  0  0
  6  7  2  0  0  0
  7  8  1  0  0  0
  8  1  1  0  0  0
  1 16  1  0  0  0
 16 17  2  0  0  0
 17 18  1  0  0  0
 18 19  2  0  0  0
 19 20  1  0  0  0
 20 21  2  0  0  0
 21 22  1  0  0  0
 22 23  2  0  0  0
 23 24  1  0  0  0
 24 25  2  0  0  0
 20 26  1  0  0  0
 26 27  1  0  0  0
 26 28  2  0  0  0
  8  9  2  0  0  0
  9 10  1  0  0  0
 10 11  2  0  0  0
 11 14  1  0  0  0
 14 15  1  0  0  0
 11  2  1  0  0  0
  9  4  1  0  0  0
 25 16  1  0  0  0
 24 19  1  0  0  0
 27 29  1  0  0  0
 27 30  1  0  0  0
M  END
> <minimizedAffinity>
-8.40119

> <CNNscore>
0.4324882030

> <CNNaffinity>
6.2482438087

> <CNN_VS>
2.7022917271

> <CNNaffinity_variance>
0.1650074422

$$$$
[H]c1nc2c([H])c(OC([H])([H])[H])c(OC([H])([H])[H])c([H])c2c(Oc2c([H])c([H])c3c(C(=O)N([H])[H])c([H])c([H])c([H])c3c2[H])c1[H]


 30 33  0  0  0  0  0  0  0  0999 V2000
  -17.0692   15.3495  -20.2854 O   0  0  0  0  0  0  0  0  0  0  0  0
  -19.3529   11.7540  -17.8173 C   0  0  0  0  0  0  0  0  0  0  0  0
  -20.1836   12.8566  -17.7898 C   0  0  0  0  0  0  0  0  0  0  0  0
  -19.8572   14.0612  -18.3919 C   0  0  0  0  0  0  0  0  0  0  0  0
  -20.6752   15.1260  -18.3572 N   0  0  0  0  0  0  0  0  0  0  0  0
  -20.3531   16.2935  -18.9437 C   0  0  0  0  0  0  0  0  0  0  0  0
  -19.1474   16.4085  -19.6029 C   0  0  0  0  0  0  0  0  0  0  0  0
  -18.3078   15.3152  -19.6384 C   0  0  0  0  0  0  0  0  0  0  0  0
  -18.6381   14.1115  -19.0346 C   0  0  0  0  0  0  0  0  0  0  0  0
  -17.7982   13.0178  -19.0701 C   0  0  0  0  0  0  0  0  0  0  0  0
  -18.1379   11.8261  -18.4658 C   0  0  0  0  0  0  0  0  0  0  0  0
  -20.6882   10.5150  -16.1686 C   0  0  0  0  0  0  0  0  0  0  0  0
  -19.7408   10.5727  -17.1921 O   0  0  0  0  0  0  0  0  0  0  0  0
  -17.3041   10.7225  -18.4946 O   0  0  0  0  0  0  0  0  0  0  0  0
  -16.6391   10.2786  -19.6480 C   0  0  0  0  0  0  0  0  0  0  0  0
  -17.0377   15.0109  -21.6302 C   0  0  0  0  0  0  0  0  0  0  0  0
  -17.6050   13.8282  -22.0426 C   0  0  0  0  0  0  0  0  0  0  0  0
  -17.6068   13.4258  -23.3920 C   0  0  0  0  0  0  0  0  0  0  0  0
  -17.0385   14.2054  -24.3441 C   0  0  0  0  0  0  0  0  0  0  0  0
  -17.0493   13.8060  -25.6752 C   0  0  0  0  0  0  0  0  0  0  0  0
  -16.4567   14.6498  -26.6349 C   0  0  0  0  0  0  0  0  0  0  0  0
  -15.8895   15.8313  -26.2337 C   0  0  0  0  0  0  0  0  0  0  0  0
  -15.8908   16.2039  -24.9092 C   0  0  0  0  0  0  0  0  0  0  0  0
  -16.4653   15.3959  -23.9463 C   0  0  0  0  0  0  0  0  0  0  0  0
  -16.4670   15.7875  -22.6127 C   0  0  0  0  0  0  0  0  0  0  0  0
  -17.5881   12.5744  -26.1755 C   0  0  0  0  0  0  0  0  0  0  0  0
  -16.9627   11.9511  -27.3037 N   0  0  0  0  0  0  0  0  0  0  0  0
  -18.5639   11.9756  -25.7254 O   0  0  0  0  0  0  0  0  0  0  0  0
  -16.9002   12.3749  -28.2491 H   0  0  0  0  0  0  0  0  0  0  0  0
  -16.5462   11.0114  -27.1569 H   0  0  0  0  0  0  0  0  0  0  0  0
 12 13  1  0  0  0
 13  2  1  0  0  0
  2  3  2  0  0  0
  3  4  1  0  0  0
  4  5  2  0  0  0
  5  6  1  0  0  0
  6  7  2  0  0  0
  7  8  1  0  0  0
  8  1  1  0  0  0
  1 16  1  0  0  0
 16 17  2  0  0  0
 17 18  1  0  0  0
 18 19  2  0  0  0
 19 20  1  0  0  0
 20 21  2  0  0  0
 21 22  1  0  0  0
 22 23  2  0  0  0
 23 24  1  0  0  0
 24 25  2  0  0  0
 20 26  1  0  0  0
 26 27  1  0  0  0
 26 28  2  0  0  0
  8  9  2  0  0  0
  9 10  1  0  0  0
 10 11  2  0  0  0
 11 14  1  0  0  0
 14 15  1  0  0  0
 11  2  1  0  0  0
  9  4  1  0  0  0
 25 16  1  0  0  0
 24 19  1  0  0  0
 27 29  1  0  0  0
 27 30  1  0  0  0
M  END
> <minimizedAffinity>
-8.75042

> <CNNscore>
0.3581225872

> <CNNaffinity>
6.4686079025

> <CNN_VS>
2.3165545464

> <CNNaffinity_variance>
0.1053133830

$$$$
[H]c1nc2c([H])c(OC([H])([H])[H])c(OC([H])([H])[H])c([H])c2c(Oc2c([H])c([H])c3c(C(=O)N([H])[H])c([H])c([H])c([H])c3c2[H])c1[H]


 30 33  0  0  0  0  0  0  0  0999 V2000
  -18.2042   13.8127  -20.3376 O   0  0  0  0  0  0  0  0  0  0  0  0
  -16.7189   15.4231  -24.7461 C   0  0  0  0  0  0  0  0  0  0  0  0
  -16.1638   14.1722  -24.5625 C   0  0  0  0  0  0  0  0  0  0  0  0
  -16.3719   13.4158  -23.4204 C   0  0  0  0  0  0  0  0  0  0  0  0
  -15.8255   12.2000  -23.2551 N   0  0  0  0  0  0  0  0  0  0  0  0
  -16.0309   11.4696  -22.1437 C   0  0  0  0  0  0  0  0  0  0  0  0
  -16.8260   11.9782  -21.1383 C   0  0  0  0  0  0  0  0  0  0  0  0
  -17.3869   13.2265  -21.3083 C   0  0  0  0  0  0  0  0  0  0  0  0
  -17.1763   13.9803  -22.4528 C   0  0  0  0  0  0  0  0  0  0  0  0
  -17.7373   15.2290  -22.6227 C   0  0  0  0  0  0  0  0  0  0  0  0
  -17.5204   15.9691  -23.7655 C   0  0  0  0  0  0  0  0  0  0  0  0
  -15.9384   15.5538  -27.0721 C   0  0  0  0  0  0  0  0  0  0  0  0
  -16.4701   16.1314  -25.9180 O   0  0  0  0  0  0  0  0  0  0  0  0
  -18.0776   17.2222  -23.9475 O   0  0  0  0  0  0  0  0  0  0  0  0
  -19.3602   17.5765  -23.5017 C   0  0  0  0  0  0  0  0  0  0  0  0
  -18.6998   12.9923  -19.3348 C   0  0  0  0  0  0  0  0  0  0  0  0
  -19.7388   13.4358  -18.5509 C   0  0  0  0  0  0  0  0  0  0  0  0
  -20.2875   12.6529  -17.5170 C   0  0  0  0  0  0  0  0  0  0  0  0
  -19.7995   11.4154  -17.2569 C   0  0  0  0  0  0  0  0  0  0  0  0
  -20.3496   10.6449  -16.2395 C   0  0  0  0  0  0  0  0  0  0  0  0
  -19.8201    9.3602  -16.0080 C   0  0  0  0  0  0  0  0  0  0  0  0
  -18.7849    8.9090  -16.7849 C   0  0  0  0  0  0  0  0  0  0  0  0
  -18.2568    9.6917  -17.7857 C   0  0  0  0  0  0  0  0  0  0  0  0
  -18.7570   10.9557  -18.0352 C   0  0  0  0  0  0  0  0  0  0  0  0
  -18.2198   11.7333  -19.0544 C   0  0  0  0  0  0  0  0  0  0  0  0
  -21.4069   11.0514  -15.3595 C   0  0  0  0  0  0  0  0  0  0  0  0
  -22.7463   10.6298  -15.6432 N   0  0  0  0  0  0  0  0  0  0  0  0
  -21.2832   11.7483  -14.3534 O   0  0  0  0  0  0  0  0  0  0  0  0
  -23.2768   10.8925  -16.4957 H   0  0  0  0  0  0  0  0  0  0  0  0
  -23.2108   10.0200  -14.9428 H   0  0  0  0  0  0  0  0  0  0  0  0
 12 13  1  0  0  0
 13  2  1  0  0  0
  2  3  2  0  0  0
  3  4  1  0  0  0
  4  5  2  0  0  0
  5  6  1  0  0  0
  6  7  2  0  0  0
  7  8  1  0  0  0
  8  1  1  0  0  0
  1 16  1  0  0  0
 16 17  2  0  0  0
 17 18  1  0  0  0
 18 19  2  0  0  0
 19 20  1  0  0  0
 20 21  2  0  0  0
 21 22  1  0  0  0
 22 23  2  0  0  0
 23 24  1  0  0  0
 24 25  2  0  0  0
 20 26  1  0  0  0
 26 27  1  0  0  0
 26 28  2  0  0  0
  8  9  2  0  0  0
  9 10  1  0  0  0
 10 11  2  0  0  0
 11 14  1  0  0  0
 14 15  1  0  0  0
 11  2  1  0  0  0
  9  4  1  0  0  0
 25 16  1  0  0  0
 24 19  1  0  0  0
 27 29  1  0  0  0
 27 30  1  0  0  0
M  END
> <minimizedAffinity>
-8.55658

> <CNNscore>
0.3364290595

> <CNNaffinity>
6.4196825027

> <CNN_VS>
2.1597676277

> <CNNaffinity_variance>
0.1290881932

$$$$
[H]c1nc2c([H])c(OC([H])([H])[H])c(OC([H])([H])[H])c([H])c2c(Oc2c([H])c([H])c3c(C(=O)N([H])[H])c([H])c([H])c([H])c3c2[H])c1[H]


 30 33  0  0  0  0  0  0  0  0999 V2000
  -17.5580   13.1257  -19.6870 O   0  0  0  0  0  0  0  0  0  0  0  0
  -20.6250   10.9205  -16.5304 C   0  0  0  0  0  0  0  0  0  0  0  0
  -21.0046   12.2459  -16.6066 C   0  0  0  0  0  0  0  0  0  0  0  0
  -20.3553   13.1707  -17.4086 C   0  0  0  0  0  0  0  0  0  0  0  0
  -20.7354   14.4573  -17.4730 N   0  0  0  0  0  0  0  0  0  0  0  0
  -20.1012   15.3513  -18.2537 C   0  0  0  0  0  0  0  0  0  0  0  0
  -19.0265   14.9415  -19.0144 C   0  0  0  0  0  0  0  0  0  0  0  0
  -18.6364   13.6205  -18.9481 C   0  0  0  0  0  0  0  0  0  0  0  0
  -19.2888   12.6982  -18.1443 C   0  0  0  0  0  0  0  0  0  0  0  0
  -18.8986   11.3767  -18.0779 C   0  0  0  0  0  0  0  0  0  0  0  0
  -19.5554   10.4689  -17.2747 C   0  0  0  0  0  0  0  0  0  0  0  0
  -22.6507   10.2274  -15.3251 C   0  0  0  0  0  0  0  0  0  0  0  0
  -21.3202   10.0423  -15.7043 O   0  0  0  0  0  0  0  0  0  0  0  0
  -19.1735    9.1413  -17.1998 O   0  0  0  0  0  0  0  0  0  0  0  0
  -18.4086    8.6088  -16.1507 C   0  0  0  0  0  0  0  0  0  0  0  0
  -17.3639   13.6381  -20.9615 C   0  0  0  0  0  0  0  0  0  0  0  0
  -16.9501   14.9409  -21.1100 C   0  0  0  0  0  0  0  0  0  0  0  0
  -16.7349   15.5215  -22.3747 C   0  0  0  0  0  0  0  0  0  0  0  0
  -16.9329   14.8015  -23.5060 C   0  0  0  0  0  0  0  0  0  0  0  0
  -16.7124   15.3781  -24.7511 C   0  0  0  0  0  0  0  0  0  0  0  0
  -16.9203   14.5926  -25.9018 C   0  0  0  0  0  0  0  0  0  0  0  0
  -17.3319   13.2925  -25.7638 C   0  0  0  0  0  0  0  0  0  0  0  0
  -17.5444   12.7450  -24.5196 C   0  0  0  0  0  0  0  0  0  0  0  0
  -17.3478   13.4922  -23.3736 C   0  0  0  0  0  0  0  0  0  0  0  0
  -17.5584   12.9249  -22.1223 C   0  0  0  0  0  0  0  0  0  0  0  0
  -16.3162   16.7364  -24.9865 C   0  0  0  0  0  0  0  0  0  0  0  0
  -14.9713   17.0050  -25.4008 N   0  0  0  0  0  0  0  0  0  0  0  0
  -17.0312   17.7301  -24.8656 O   0  0  0  0  0  0  0  0  0  0  0  0
  -14.1287   16.7970  -24.8316 H   0  0  0  0  0  0  0  0  0  0  0  0
  -14.8396   17.4372  -26.3356 H   0  0  0  0  0  0  0  0  0  0  0  0
 12 13  1  0  0  0
 13  2  1  0  0  0
  2  3  2  0  0  0
  3  4  1  0  0  0
  4  5  2  0  0  0
  5  6  1  0  0  0
  6  7  2  0  0  0
  7  8  1  0  0  0
  8  1  1  0  0  0
  1 16  1  0  0  0
 16 17  2  0  0  0
 17 18  1  0  0  0
 18 19  2  0  0  0
 19 20  1  0  0  0
 20 21  2  0  0  0
 21 22  1  0  0  0
 22 23  2  0  0  0
 23 24  1  0  0  0
 24 25  2  0  0  0
 20 26  1  0  0  0
 26 27  1  0  0  0
 26 28  2  0  0  0
  8  9  2  0  0  0
  9 10  1  0  0  0
 10 11  2  0  0  0
 11 14  1  0  0  0
 14 15  1  0  0  0
 11  2  1  0  0  0
  9  4  1  0  0  0
 25 16  1  0  0  0
 24 19  1  0  0  0
 27 29  1  0  0  0
 27 30  1  0  0  0
M  END
> <minimizedAffinity>
-8.67707

> <CNNscore>
0.3332782984

> <CNNaffinity>
6.4230399132

> <CNN_VS>
2.1406598091

> <CNNaffinity_variance>
0.2580843866

$$$$
[H]c1nc2c([H])c(OC([H])([H])[H])c(OC([H])([H])[H])c([H])c2c(Oc2c([H])c([H])c3c(C(=O)N([H])[H])c([H])c([H])c([H])c3c2[H])c1[H]


 30 33  0  0  0  0  0  0  0  0999 V2000
  -19.1789   15.0841  -21.7267 O   0  0  0  0  0  0  0  0  0  0  0  0
  -15.8576   15.3035  -25.3536 C   0  0  0  0  0  0  0  0  0  0  0  0
  -15.4610   16.2038  -24.3847 C   0  0  0  0  0  0  0  0  0  0  0  0
  -16.1682   16.4075  -23.2107 C   0  0  0  0  0  0  0  0  0  0  0  0
  -15.7707   17.2869  -22.2765 N   0  0  0  0  0  0  0  0  0  0  0  0
  -16.4614   17.4807  -21.1380 C   0  0  0  0  0  0  0  0  0  0  0  0
  -17.6146   16.7579  -20.9160 C   0  0  0  0  0  0  0  0  0  0  0  0
  -18.0225   15.8551  -21.8753 C   0  0  0  0  0  0  0  0  0  0  0  0
  -17.3120   15.6542  -23.0488 C   0  0  0  0  0  0  0  0  0  0  0  0
  -17.7201   14.7511  -24.0084 C   0  0  0  0  0  0  0  0  0  0  0  0
  -17.0049   14.5602  -25.1715 C   0  0  0  0  0  0  0  0  0  0  0  0
  -15.4844   15.6441  -27.7580 C   0  0  0  0  0  0  0  0  0  0  0  0
  -15.1014   15.1466  -26.5114 O   0  0  0  0  0  0  0  0  0  0  0  0
  -17.4040   13.6576  -26.1411 O   0  0  0  0  0  0  0  0  0  0  0  0
  -17.7795   12.3338  -25.8654 C   0  0  0  0  0  0  0  0  0  0  0  0
  -19.1918   14.1342  -20.7157 C   0  0  0  0  0  0  0  0  0  0  0  0
  -20.0972   14.2538  -19.6878 C   0  0  0  0  0  0  0  0  0  0  0  0
  -20.1623   13.3246  -18.6318 C   0  0  0  0  0  0  0  0  0  0  0  0
  -19.3189   12.2641  -18.5943 C   0  0  0  0  0  0  0  0  0  0  0  0
  -19.3925   11.3469  -17.5529 C   0  0  0  0  0  0  0  0  0  0  0  0
  -18.5045   10.2533  -17.5564 C   0  0  0  0  0  0  0  0  0  0  0  0
  -17.5990   10.1250  -18.5774 C   0  0  0  0  0  0  0  0  0  0  0  0
  -17.5454   11.0475  -19.5968 C   0  0  0  0  0  0  0  0  0  0  0  0
  -18.4047   12.1298  -19.6190 C   0  0  0  0  0  0  0  0  0  0  0  0
  -18.3455   13.0504  -20.6587 C   0  0  0  0  0  0  0  0  0  0  0  0
  -20.2827   11.4236  -16.4308 C   0  0  0  0  0  0  0  0  0  0  0  0
  -19.9361   12.2684  -15.3268 N   0  0  0  0  0  0  0  0  0  0  0  0
  -21.3478   10.8203  -16.3095 O   0  0  0  0  0  0  0  0  0  0  0  0
  -19.0989   12.1378  -14.7274 H   0  0  0  0  0  0  0  0  0  0  0  0
  -20.5712   13.0631  -15.1191 H   0  0  0  0  0  0  0  0  0  0  0  0
 12 13  1  0  0  0
 13  2  1  0  0  0
  2  3  2  0  0  0
  3  4  1  0  0  0
  4  5  2  0  0  0
  5  6  1  0  0  0
  6  7  2  0  0  0
  7  8  1  0  0  0
  8  1  1  0  0  0
  1 16  1  0  0  0
 16 17  2  0  0  0
 17 18  1  0  0  0
 18 19  2  0  0  0
 19 20  1  0  0  0
 20 21  2  0  0  0
 21 22  1  0  0  0
 22 23  2  0  0  0
 23 24  1  0  0  0
 24 25  2  0  0  0
 20 26  1  0  0  0
 26 27  1  0  0  0
 26 28  2  0  0  0
  8  9  2  0  0  0
  9 10  1  0  0  0
 10 11  2  0  0  0
 11 14  1  0  0  0
 14 15  1  0  0  0
 11  2  1  0  0  0
  9  4  1  0  0  0
 25 16  1  0  0  0
 24 19  1  0  0  0
 27 29  1  0  0  0
 27 30  1  0  0  0
M  END
> <minimizedAffinity>
-9.03793

> <CNNscore>
0.2559717000

> <CNNaffinity>
6.2124185562

> <CNN_VS>
1.5902032852

> <CNNaffinity_variance>
0.1536107957

$$$$
[H]c1nc2c([H])c(OC([H])([H])[H])c(OC([H])([H])[H])c([H])c2c(Oc2c([H])c([H])c3c(C(=O)N([H])[H])c([H])c([H])c([H])c3c2[H])c1[H]


 30 33  0  0  0  0  0  0  0  0999 V2000
  -17.4609   12.1479  -20.0121 O   0  0  0  0  0  0  0  0  0  0  0  0
  -17.3751   14.8568  -24.1217 C   0  0  0  0  0  0  0  0  0  0  0  0
  -17.7358   15.6982  -23.0881 C   0  0  0  0  0  0  0  0  0  0  0  0
  -17.8603   15.2699  -21.7762 C   0  0  0  0  0  0  0  0  0  0  0  0
  -18.2121   16.0996  -20.7804 N   0  0  0  0  0  0  0  0  0  0  0  0
  -18.3316   15.6782  -19.5080 C   0  0  0  0  0  0  0  0  0  0  0  0
  -18.0870   14.3545  -19.2089 C   0  0  0  0  0  0  0  0  0  0  0  0
  -17.7258   13.5028  -20.2315 C   0  0  0  0  0  0  0  0  0  0  0  0
  -17.6022   13.9354  -21.5430 C   0  0  0  0  0  0  0  0  0  0  0  0
  -17.2410   13.0833  -22.5660 C   0  0  0  0  0  0  0  0  0  0  0  0
  -17.1215   13.5254  -23.8664 C   0  0  0  0  0  0  0  0  0  0  0  0
  -16.1305   15.9950  -25.9083 C   0  0  0  0  0  0  0  0  0  0  0  0
  -17.2678   15.3509  -25.4183 O   0  0  0  0  0  0  0  0  0  0  0  0
  -16.7599   12.6806  -24.9005 O   0  0  0  0  0  0  0  0  0  0  0  0
  -17.6250   12.3084  -25.9410 C   0  0  0  0  0  0  0  0  0  0  0  0
  -18.1474   11.5177  -18.9846 C   0  0  0  0  0  0  0  0  0  0  0  0
  -17.7690   10.2546  -18.5944 C   0  0  0  0  0  0  0  0  0  0  0  0
  -18.4238    9.5602  -17.5590 C   0  0  0  0  0  0  0  0  0  0  0  0
  -19.4668   10.1249  -16.9029 C   0  0  0  0  0  0  0  0  0  0  0  0
  -20.1046    9.4372  -15.8774 C   0  0  0  0  0  0  0  0  0  0  0  0
  -21.1781   10.0635  -15.2143 C   0  0  0  0  0  0  0  0  0  0  0  0
  -21.5620   11.3229  -15.5955 C   0  0  0  0  0  0  0  0  0  0  0  0
  -20.9148   11.9826  -16.6148 C   0  0  0  0  0  0  0  0  0  0  0  0
  -19.8583   11.3924  -17.2825 C   0  0  0  0  0  0  0  0  0  0  0  0
  -19.2078   12.0727  -18.3052 C   0  0  0  0  0  0  0  0  0  0  0  0
  -19.7914    8.1078  -15.4394 C   0  0  0  0  0  0  0  0  0  0  0  0
  -18.8595    7.9327  -14.3654 N   0  0  0  0  0  0  0  0  0  0  0  0
  -20.2516    7.0656  -15.9035 O   0  0  0  0  0  0  0  0  0  0  0  0
  -17.8623    8.2183  -14.4005 H   0  0  0  0  0  0  0  0  0  0  0  0
  -19.2143    7.4890  -13.4963 H   0  0  0  0  0  0  0  0  0  0  0  0
 12 13  1  0  0  0
 13  2  1  0  0  0
  2  3  2  0  0  0
  3  4  1  0  0  0
  4  5  2  0  0  0
  5  6  1  0  0  0
  6  7  2  0  0  0
  7  8  1  0  0  0
  8  1  1  0  0  0
  1 16  1  0  0  0
 16 17  2  0  0  0
 17 18  1  0  0  0
 18 19  2  0  0  0
 19 20  1  0  0  0
 20 21  2  0  0  0
 21 22  1  0  0  0
 22 23  2  0  0  0
 23 24  1  0  0  0
 24 25  2  0  0  0
 20 26  1  0  0  0
 26 27  1  0  0  0
 26 28  2  0  0  0
  8  9  2  0  0  0
  9 10  1  0  0  0
 10 11  2  0  0  0
 11 14  1  0  0  0
 14 15  1  0  0  0
 11  2  1  0  0  0
  9  4  1  0  0  0
 25 16  1  0  0  0
 24 19  1  0  0  0
 27 29  1  0  0  0
 27 30  1  0  0  0
M  END
> <minimizedAffinity>
-9.08837

> <CNNscore>
0.2429635674

> <CNNaffinity>
6.2513146400

> <CNN_VS>
1.5188417435

> <CNNaffinity_variance>
0.1549689919

$$$$
[H]c1nc(N([H])[H])c([H])c(-n2c(N([H])c3c([H])c(C(=O)N([H])c4c([H])c(-n5c([H])nc(C([H])([H])[H])c5[H])c([H])c(C(F)(F)F)c4[H])c([H])c([H])c3C([H])([H])[H])nc3c([H])c([H])c([H])c([H])c32)n1


 47 52  0  0  0  0  0  0  0  0999 V2000
  -21.1941   15.5707  -19.5418 C   0  0  0  0  0  0  0  0  0  0  0  0
  -21.5247   15.5643  -18.1712 C   0  0  0  0  0  0  0  0  0  0  0  0
  -22.5010   16.3819  -17.6500 C   0  0  0  0  0  0  0  0  0  0  0  0
  -23.2095   17.2537  -18.4359 C   0  0  0  0  0  0  0  0  0  0  0  0
  -24.2736   18.1684  -17.8656 C   0  0  0  0  0  0  0  0  0  0  0  0
  -22.8926   17.2776  -19.7972 C   0  0  0  0  0  0  0  0  0  0  0  0
  -21.8941   16.4432  -20.3185 C   0  0  0  0  0  0  0  0  0  0  0  0
  -19.2744   14.8488  -20.9072 N   0  0  0  0  0  0  0  0  0  0  0  0
  -20.3349   14.4907  -20.0509 C   0  0  0  0  0  0  0  0  0  0  0  0
  -20.5264   13.3031  -19.7649 O   0  0  0  0  0  0  0  0  0  0  0  0
  -19.1868   15.9408  -21.0151 H   0  0  0  0  0  0  0  0  0  0  0  0
  -16.7119   13.7805  -23.4004 C   0  0  0  0  0  0  0  0  0  0  0  0
  -17.7329   14.5018  -22.7841 C   0  0  0  0  0  0  0  0  0  0  0  0
  -18.3412   14.0928  -21.6214 C   0  0  0  0  0  0  0  0  0  0  0  0
  -17.9036   12.8981  -21.0577 C   0  0  0  0  0  0  0  0  0  0  0  0
  -16.8957   12.1630  -21.6487 C   0  0  0  0  0  0  0  0  0  0  0  0
  -16.3089   12.5963  -22.8035 C   0  0  0  0  0  0  0  0  0  0  0  0
  -15.9385   15.5127  -27.9806 C   0  0  0  0  0  0  0  0  0  0  0  0
  -15.6920   15.0326  -26.5970 C   0  0  0  0  0  0  0  0  0  0  0  0
  -16.6278   14.6232  -25.6809 C   0  0  0  0  0  0  0  0  0  0  0  0
  -15.9906   14.2587  -24.5157 N   0  0  0  0  0  0  0  0  0  0  0  0
  -14.7117   14.4510  -24.7447 C   0  0  0  0  0  0  0  0  0  0  0  0
  -14.4961   14.9224  -26.0089 N   0  0  0  0  0  0  0  0  0  0  0  0
  -16.4054   10.9114  -21.0173 C   0  0  0  0  0  0  0  0  0  0  0  0
  -16.0935   11.1187  -19.6990 F   0  0  0  0  0  0  0  0  0  0  0  0
  -15.2292   10.5520  -21.6801 F   0  0  0  0  0  0  0  0  0  0  0  0
  -17.3524    9.9482  -21.1388 F   0  0  0  0  0  0  0  0  0  0  0  0
  -23.7460   17.9380  -20.6814 N   0  0  0  0  0  0  0  0  0  0  0  0
  -24.7148   18.1810  -20.2110 H   0  0  0  0  0  0  0  0  0  0  0  0
  -23.5650   18.3244  -22.0270 C   0  0  0  0  0  0  0  0  0  0  0  0
  -24.0540   17.8709  -23.1912 N   0  0  0  0  0  0  0  0  0  0  0  0
  -23.6646   18.6184  -24.2580 C   0  0  0  0  0  0  0  0  0  0  0  0
  -23.8658   18.5608  -25.6121 C   0  0  0  0  0  0  0  0  0  0  0  0
  -23.3215   19.4509  -26.4873 C   0  0  0  0  0  0  0  0  0  0  0  0
  -22.5254   20.4643  -25.9468 C   0  0  0  0  0  0  0  0  0  0  0  0
  -22.3193   20.5280  -24.5867 C   0  0  0  0  0  0  0  0  0  0  0  0
  -22.8653   19.6241  -23.6793 C   0  0  0  0  0  0  0  0  0  0  0  0
  -22.8235   19.4314  -22.3759 N   0  0  0  0  0  0  0  0  0  0  0  0
  -22.1893   20.2584  -21.4041 C   0  0  0  0  0  0  0  0  0  0  0  0
  -20.8549   20.3466  -21.1301 C   0  0  0  0  0  0  0  0  0  0  0  0
  -20.3423   21.1945  -20.1678 C   0  0  0  0  0  0  0  0  0  0  0  0
  -18.9430   21.2934  -19.8814 N   0  0  0  0  0  0  0  0  0  0  0  0
  -21.2139   21.9532  -19.4834 N   0  0  0  0  0  0  0  0  0  0  0  0
  -22.5594   21.8855  -19.7309 C   0  0  0  0  0  0  0  0  0  0  0  0
  -23.0301   21.0638  -20.6617 N   0  0  0  0  0  0  0  0  0  0  0  0
  -18.2515   21.5360  -20.6290 H   0  0  0  0  0  0  0  0  0  0  0  0
  -18.5543   21.1302  -18.9203 H   0  0  0  0  0  0  0  0  0  0  0  0
 18 19  1  0  0  0
 19 20  2  0  0  0
 20 21  1  0  0  0
 21 22  1  0  0  0
 22 23  2  0  0  0
 21 12  1  0  0  0
 12 13  2  0  0  0
 13 14  1  0  0  0
 14  8  1  0  0  0
  8  9  1  0  0  0
  9 10  2  0  0  0
  9  1  1  0  0  0
  1  2  2  0  0  0
  2  3  1  0  0  0
  3  4  2  0  0  0
  4  5  1  0  0  0
  4  6  1  0  0  0
  6 28  1  0  0  0
 28 30  1  0  0  0
 30 31  2  0  0  0
 31 32  1  0  0  0
 32 33  2  0  0  0
 33 34  1  0  0  0
 34 35  2  0  0  0
 35 36  1  0  0  0
 36 37  2  0  0  0
 37 38  1  0  0  0
 38 39  1  0  0  0
 39 40  2  0  0  0
 40 41  1  0  0  0
 41 42  1  0  0  0
 41 43  2  0  0  0
 43 44  1  0  0  0
 44 45  2  0  0  0
  6  7  2  0  0  0
 14 15  2  0  0  0
 15 16  1  0  0  0
 16 17  2  0  0  0
 16 24  1  0  0  0
 24 25  1  0  0  0
 24 26  1  0  0  0
 24 27  1  0  0  0
 23 19  1  0  0  0
 17 12  1  0  0  0
  7  1  1  0  0  0
 38 30  1  0  0  0
 45 39  1  0  0  0
 37 32  1  0  0  0
  8 11  1  0  0  0
 28 29  1  0  0  0
 42 46  1  0  0  0
 42 47  1  0  0  0
M  END
> <minimizedAffinity>
-10.69366

> <CNNscore>
0.1578519940

> <CNNaffinity>
7.1156969070

> <CNN_VS>
1.1232270002

> <CNNaffinity_variance>
0.7563912272

$$$$
[H]c1nc(N([H])[H])c([H])c(-n2c(N([H])c3c([H])c(C(=O)N([H])c4c([H])c(-n5c([H])nc(C([H])([H])[H])c5[H])c([H])c(C(F)(F)F)c4[H])c([H])c([H])c3C([H])([H])[H])nc3c([H])c([H])c([H])c([H])c32)n1


 47 52  0  0  0  0  0  0  0  0999 V2000
  -18.2184   11.1622  -19.0806 C   0  0  0  0  0  0  0  0  0  0  0  0
  -17.2492   10.1635  -19.3059 C   0  0  0  0  0  0  0  0  0  0  0  0
  -16.3578   10.2313  -20.3520 C   0  0  0  0  0  0  0  0  0  0  0  0
  -16.3622   11.2767  -21.2389 C   0  0  0  0  0  0  0  0  0  0  0  0
  -15.3949   11.3490  -22.4023 C   0  0  0  0  0  0  0  0  0  0  0  0
  -17.3193   12.2748  -21.0344 C   0  0  0  0  0  0  0  0  0  0  0  0
  -18.2254   12.1954  -19.9677 C   0  0  0  0  0  0  0  0  0  0  0  0
  -19.1828    9.8892  -17.2044 N   0  0  0  0  0  0  0  0  0  0  0  0
  -18.9467   11.1432  -17.8027 C   0  0  0  0  0  0  0  0  0  0  0  0
  -19.3606   12.1753  -17.2621 O   0  0  0  0  0  0  0  0  0  0  0  0
  -18.6988    9.0725  -17.7617 H   0  0  0  0  0  0  0  0  0  0  0  0
  -21.1757    7.9127  -14.7456 C   0  0  0  0  0  0  0  0  0  0  0  0
  -20.5835    8.3218  -15.9391 C   0  0  0  0  0  0  0  0  0  0  0  0
  -19.8966    9.5056  -16.0661 C   0  0  0  0  0  0  0  0  0  0  0  0
  -19.8082   10.3169  -14.9388 C   0  0  0  0  0  0  0  0  0  0  0  0
  -20.3876    9.9365  -13.7449 C   0  0  0  0  0  0  0  0  0  0  0  0
  -21.0625    8.7530  -13.6491 C   0  0  0  0  0  0  0  0  0  0  0  0
  -22.9482    3.9577  -12.3386 C   0  0  0  0  0  0  0  0  0  0  0  0
  -22.5462    4.8741  -13.4360 C   0  0  0  0  0  0  0  0  0  0  0  0
  -21.9817    6.1187  -13.3139 C   0  0  0  0  0  0  0  0  0  0  0  0
  -21.7638    6.6416  -14.5692 N   0  0  0  0  0  0  0  0  0  0  0  0
  -22.1914    5.7242  -15.4063 C   0  0  0  0  0  0  0  0  0  0  0  0
  -22.6745    4.6307  -14.7446 N   0  0  0  0  0  0  0  0  0  0  0  0
  -20.2515   10.7880  -12.5357 C   0  0  0  0  0  0  0  0  0  0  0  0
  -18.9334   10.9486  -12.1968 F   0  0  0  0  0  0  0  0  0  0  0  0
  -20.8801   10.1126  -11.4866 F   0  0  0  0  0  0  0  0  0  0  0  0
  -20.8356   11.9899  -12.7668 F   0  0  0  0  0  0  0  0  0  0  0  0
  -17.2048   13.4782  -21.7308 N   0  0  0  0  0  0  0  0  0  0  0  0
  -16.2744   13.5214  -22.3235 H   0  0  0  0  0  0  0  0  0  0  0  0
  -18.0614   14.5987  -21.7886 C   0  0  0  0  0  0  0  0  0  0  0  0
  -18.7571   15.2772  -20.8635 N   0  0  0  0  0  0  0  0  0  0  0  0
  -19.3931   16.3667  -21.3706 C   0  0  0  0  0  0  0  0  0  0  0  0
  -20.2190   17.3352  -20.8634 C   0  0  0  0  0  0  0  0  0  0  0  0
  -20.7553   18.3319  -21.6206 C   0  0  0  0  0  0  0  0  0  0  0  0
  -20.4259   18.3427  -22.9786 C   0  0  0  0  0  0  0  0  0  0  0  0
  -19.5962   17.3724  -23.4947 C   0  0  0  0  0  0  0  0  0  0  0  0
  -19.0428   16.3450  -22.7351 C   0  0  0  0  0  0  0  0  0  0  0  0
  -18.2641   15.3042  -22.9541 N   0  0  0  0  0  0  0  0  0  0  0  0
  -17.6251   14.9501  -24.1776 C   0  0  0  0  0  0  0  0  0  0  0  0
  -16.7124   15.6816  -24.8814 C   0  0  0  0  0  0  0  0  0  0  0  0
  -16.1439   15.2368  -26.0590 C   0  0  0  0  0  0  0  0  0  0  0  0
  -15.1826   15.9989  -26.7971 N   0  0  0  0  0  0  0  0  0  0  0  0
  -16.5228   14.0309  -26.5125 N   0  0  0  0  0  0  0  0  0  0  0  0
  -17.4395   13.2737  -25.8325 C   0  0  0  0  0  0  0  0  0  0  0  0
  -17.9725   13.7207  -24.7015 N   0  0  0  0  0  0  0  0  0  0  0  0
  -14.2913   16.3238  -26.3542 H   0  0  0  0  0  0  0  0  0  0  0  0
  -15.3272   16.2610  -27.8029 H   0  0  0  0  0  0  0  0  0  0  0  0
 18 19  1  0  0  0
 19 20  2  0  0  0
 20 21  1  0  0  0
 21 22  1  0  0  0
 22 23  2  0  0  0
 21 12  1  0  0  0
 12 13  2  0  0  0
 13 14  1  0  0  0
 14  8  1  0  0  0
  8  9  1  0  0  0
  9 10  2  0  0  0
  9  1  1  0  0  0
  1  2  2  0  0  0
  2  3  1  0  0  0
  3  4  2  0  0  0
  4  5  1  0  0  0
  4  6  1  0  0  0
  6 28  1  0  0  0
 28 30  1  0  0  0
 30 31  2  0  0  0
 31 32  1  0  0  0
 32 33  2  0  0  0
 33 34  1  0  0  0
 34 35  2  0  0  0
 35 36  1  0  0  0
 36 37  2  0  0  0
 37 38  1  0  0  0
 38 39  1  0  0  0
 39 40  2  0  0  0
 40 41  1  0  0  0
 41 42  1  0  0  0
 41 43  2  0  0  0
 43 44  1  0  0  0
 44 45  2  0  0  0
  6  7  2  0  0  0
 14 15  2  0  0  0
 15 16  1  0  0  0
 16 17  2  0  0  0
 16 24  1  0  0  0
 24 25  1  0  0  0
 24 26  1  0  0  0
 24 27  1  0  0  0
 23 19  1  0  0  0
 17 12  1  0  0  0
  7  1  1  0  0  0
 38 30  1  0  0  0
 45 39  1  0  0  0
 37 32  1  0  0  0
  8 11  1  0  0  0
 28 29  1  0  0  0
 42 46  1  0  0  0
 42 47  1  0  0  0
M  END
> <minimizedAffinity>
-9.86967

> <CNNscore>
0.1148016080

> <CNNaffinity>
6.9643793106

> <CNN_VS>
0.7995219231

> <CNNaffinity_variance>
0.2258170396

$$$$
[H]c1nc(N([H])[H])c([H])c(-n2c(N([H])c3c([H])c(C(=O)N([H])c4c([H])c(-n5c([H])nc(C([H])([H])[H])c5[H])c([H])c(C(F)(F)F)c4[H])c([H])c([H])c3C([H])([H])[H])nc3c([H])c([H])c([H])c([H])c32)n1


 47 52  0  0  0  0  0  0  0  0999 V2000
  -18.1942   10.9084  -18.9376 C   0  0  0  0  0  0  0  0  0  0  0  0
  -17.3957    9.9079  -19.5284 C   0  0  0  0  0  0  0  0  0  0  0  0
  -16.5902   10.1610  -20.6149 C   0  0  0  0  0  0  0  0  0  0  0  0
  -16.5190   11.4044  -21.1881 C   0  0  0  0  0  0  0  0  0  0  0  0
  -15.6473   11.6855  -22.3945 C   0  0  0  0  0  0  0  0  0  0  0  0
  -17.3072   12.4086  -20.6188 C   0  0  0  0  0  0  0  0  0  0  0  0
  -18.1272   12.1405  -19.5139 C   0  0  0  0  0  0  0  0  0  0  0  0
  -18.7297    9.2983  -17.1511 N   0  0  0  0  0  0  0  0  0  0  0  0
  -18.8134   10.6193  -17.6350 C   0  0  0  0  0  0  0  0  0  0  0  0
  -19.4052   11.4835  -16.9779 O   0  0  0  0  0  0  0  0  0  0  0  0
  -18.1178    8.6605  -17.8072 H   0  0  0  0  0  0  0  0  0  0  0  0
  -19.4816    8.3469  -13.6222 C   0  0  0  0  0  0  0  0  0  0  0  0
  -18.8412    8.8905  -14.7343 C   0  0  0  0  0  0  0  0  0  0  0  0
  -19.2647    8.6703  -16.0233 C   0  0  0  0  0  0  0  0  0  0  0  0
  -20.3821    7.8597  -16.1988 C   0  0  0  0  0  0  0  0  0  0  0  0
  -21.0338    7.3069  -15.1146 C   0  0  0  0  0  0  0  0  0  0  0  0
  -20.5902    7.5454  -13.8451 C   0  0  0  0  0  0  0  0  0  0  0  0
  -19.3971   10.9450   -9.4008 C   0  0  0  0  0  0  0  0  0  0  0  0
  -19.1259    9.8893  -10.4095 C   0  0  0  0  0  0  0  0  0  0  0  0
  -19.6307    9.8079  -11.6828 C   0  0  0  0  0  0  0  0  0  0  0  0
  -19.1377    8.6760  -12.2932 N   0  0  0  0  0  0  0  0  0  0  0  0
  -18.3628    8.1083  -11.3976 C   0  0  0  0  0  0  0  0  0  0  0  0
  -18.3333    8.8265  -10.2355 N   0  0  0  0  0  0  0  0  0  0  0  0
  -22.2510    6.4783  -15.3086 C   0  0  0  0  0  0  0  0  0  0  0  0
  -22.6803    5.9541  -14.1174 F   0  0  0  0  0  0  0  0  0  0  0  0
  -21.8925    5.4119  -16.1369 F   0  0  0  0  0  0  0  0  0  0  0  0
  -23.2225    7.2361  -15.8753 F   0  0  0  0  0  0  0  0  0  0  0  0
  -17.0814   13.7366  -20.9815 N   0  0  0  0  0  0  0  0  0  0  0  0
  -16.0056   13.9848  -20.9778 H   0  0  0  0  0  0  0  0  0  0  0  0
  -17.9813   14.7646  -21.3361 C   0  0  0  0  0  0  0  0  0  0  0  0
  -18.7752   15.5815  -20.6272 N   0  0  0  0  0  0  0  0  0  0  0  0
  -19.4201   16.4967  -21.3986 C   0  0  0  0  0  0  0  0  0  0  0  0
  -20.3252   17.4991  -21.1680 C   0  0  0  0  0  0  0  0  0  0  0  0
  -20.8478   18.2765  -22.1565 C   0  0  0  0  0  0  0  0  0  0  0  0
  -20.4174   18.0170  -23.4604 C   0  0  0  0  0  0  0  0  0  0  0  0
  -19.5077   17.0111  -23.6991 C   0  0  0  0  0  0  0  0  0  0  0  0
  -18.9670   16.2054  -22.7005 C   0  0  0  0  0  0  0  0  0  0  0  0
  -18.1273   15.1912  -22.6377 N   0  0  0  0  0  0  0  0  0  0  0  0
  -17.3822   14.6235  -23.7115 C   0  0  0  0  0  0  0  0  0  0  0  0
  -17.7962   13.6743  -24.6010 C   0  0  0  0  0  0  0  0  0  0  0  0
  -16.9910   13.1983  -25.6172 C   0  0  0  0  0  0  0  0  0  0  0  0
  -17.4237   12.2067  -26.5550 N   0  0  0  0  0  0  0  0  0  0  0  0
  -15.7506   13.7041  -25.7128 N   0  0  0  0  0  0  0  0  0  0  0  0
  -15.3029   14.6543  -24.8337 C   0  0  0  0  0  0  0  0  0  0  0  0
  -16.0947   15.0985  -23.8648 N   0  0  0  0  0  0  0  0  0  0  0  0
  -18.2779   12.3512  -27.1428 H   0  0  0  0  0  0  0  0  0  0  0  0
  -16.9086   11.3030  -26.6934 H   0  0  0  0  0  0  0  0  0  0  0  0
 18 19  1  0  0  0
 19 20  2  0  0  0
 20 21  1  0  0  0
 21 22  1  0  0  0
 22 23  2  0  0  0
 21 12  1  0  0  0
 12 13  2  0  0  0
 13 14  1  0  0  0
 14  8  1  0  0  0
  8  9  1  0  0  0
  9 10  2  0  0  0
  9  1  1  0  0  0
  1  2  2  0  0  0
  2  3  1  0  0  0
  3  4  2  0  0  0
  4  5  1  0  0  0
  4  6  1  0  0  0
  6 28  1  0  0  0
 28 30  1  0  0  0
 30 31  2  0  0  0
 31 32  1  0  0  0
 32 33  2  0  0  0
 33 34  1  0  0  0
 34 35  2  0  0  0
 35 36  1  0  0  0
 36 37  2  0  0  0
 37 38  1  0  0  0
 38 39  1  0  0  0
 39 40  2  0  0  0
 40 41  1  0  0  0
 41 42  1  0  0  0
 41 43  2  0  0  0
 43 44  1  0  0  0
 44 45  2  0  0  0
  6  7  2  0  0  0
 14 15  2  0  0  0
 15 16  1  0  0  0
 16 17  2  0  0  0
 16 24  1  0  0  0
 24 25  1  0  0  0
 24 26  1  0  0  0
 24 27  1  0  0  0
 23 19  1  0  0  0
 17 12  1  0  0  0
  7  1  1  0  0  0
 38 30  1  0  0  0
 45 39  1  0  0  0
 37 32  1  0  0  0
  8 11  1  0  0  0
 28 29  1  0  0  0
 42 46  1  0  0  0
 42 47  1  0  0  0
M  END
> <minimizedAffinity>
-10.34016

> <CNNscore>
0.1119069308

> <CNNaffinity>
6.8638277054

> <CNN_VS>
0.7681099176

> <CNNaffinity_variance>
0.4970315993

$$$$
[H]c1nc(N([H])[H])c([H])c(-n2c(N([H])c3c([H])c(C(=O)N([H])c4c([H])c(-n5c([H])nc(C([H])([H])[H])c5[H])c([H])c(C(F)(F)F)c4[H])c([H])c([H])c3C([H])([H])[H])nc3c([H])c([H])c([H])c([H])c32)n1


 47 52  0  0  0  0  0  0  0  0999 V2000
  -18.4510   11.1626  -18.8476 C   0  0  0  0  0  0  0  0  0  0  0  0
  -17.3778   10.2730  -19.0582 C   0  0  0  0  0  0  0  0  0  0  0  0
  -16.4984   10.4220  -20.1060 C   0  0  0  0  0  0  0  0  0  0  0  0
  -16.6170   11.4467  -21.0092 C   0  0  0  0  0  0  0  0  0  0  0  0
  -15.6625   11.6066  -22.1744 C   0  0  0  0  0  0  0  0  0  0  0  0
  -17.6781   12.3366  -20.8193 C   0  0  0  0  0  0  0  0  0  0  0  0
  -18.5708   12.1748  -19.7508 C   0  0  0  0  0  0  0  0  0  0  0  0
  -19.2899    9.8170  -16.9617 N   0  0  0  0  0  0  0  0  0  0  0  0
  -19.1739   11.0836  -17.5689 C   0  0  0  0  0  0  0  0  0  0  0  0
  -19.6836   12.0756  -17.0351 O   0  0  0  0  0  0  0  0  0  0  0  0
  -18.7309    9.0461  -17.5138 H   0  0  0  0  0  0  0  0  0  0  0  0
  -20.0797    8.8004  -13.4593 C   0  0  0  0  0  0  0  0  0  0  0  0
  -19.3620    9.1136  -14.6123 C   0  0  0  0  0  0  0  0  0  0  0  0
  -19.9639    9.3756  -15.8200 C   0  0  0  0  0  0  0  0  0  0  0  0
  -21.3532    9.3130  -15.8682 C   0  0  0  0  0  0  0  0  0  0  0  0
  -22.0880    9.0029  -14.7415 C   0  0  0  0  0  0  0  0  0  0  0  0
  -21.4615    8.7490  -13.5547 C   0  0  0  0  0  0  0  0  0  0  0  0
  -17.6731   10.1459   -9.3392 C   0  0  0  0  0  0  0  0  0  0  0  0
  -18.3837    9.3193  -10.3479 C   0  0  0  0  0  0  0  0  0  0  0  0
  -18.8964    9.7356  -11.5506 C   0  0  0  0  0  0  0  0  0  0  0  0
  -19.4811    8.6639  -12.1881 N   0  0  0  0  0  0  0  0  0  0  0  0
  -19.3147    7.6445  -11.3769 C   0  0  0  0  0  0  0  0  0  0  0  0
  -18.6459    8.0122  -10.2435 N   0  0  0  0  0  0  0  0  0  0  0  0
  -23.5722    8.9805  -14.7916 C   0  0  0  0  0  0  0  0  0  0  0  0
  -24.0134    8.3608  -15.9315 F   0  0  0  0  0  0  0  0  0  0  0  0
  -24.0002   10.3096  -14.8383 F   0  0  0  0  0  0  0  0  0  0  0  0
  -24.0476    8.3492  -13.6895 F   0  0  0  0  0  0  0  0  0  0  0  0
  -17.6960   13.5342  -21.5346 N   0  0  0  0  0  0  0  0  0  0  0  0
  -18.0279   14.3805  -20.9080 H   0  0  0  0  0  0  0  0  0  0  0  0
  -17.3687   13.8139  -22.8789 C   0  0  0  0  0  0  0  0  0  0  0  0
  -17.3595   13.0758  -23.9993 N   0  0  0  0  0  0  0  0  0  0  0  0
  -17.0496   13.7982  -25.1087 C   0  0  0  0  0  0  0  0  0  0  0  0
  -16.8911   13.5169  -26.4402 C   0  0  0  0  0  0  0  0  0  0  0  0
  -16.5425   14.4532  -27.3657 C   0  0  0  0  0  0  0  0  0  0  0  0
  -16.3469   15.7576  -26.9041 C   0  0  0  0  0  0  0  0  0  0  0  0
  -16.5048   16.0471  -25.5671 C   0  0  0  0  0  0  0  0  0  0  0  0
  -16.8571   15.1011  -24.6081 C   0  0  0  0  0  0  0  0  0  0  0  0
  -17.0501   15.0846  -23.3042 N   0  0  0  0  0  0  0  0  0  0  0  0
  -17.0282   16.1997  -22.4173 C   0  0  0  0  0  0  0  0  0  0  0  0
  -17.7009   17.3803  -22.5484 C   0  0  0  0  0  0  0  0  0  0  0  0
  -17.6162   18.3979  -21.6183 C   0  0  0  0  0  0  0  0  0  0  0  0
  -18.3243   19.6352  -21.7500 N   0  0  0  0  0  0  0  0  0  0  0  0
  -16.8299   18.1950  -20.5487 N   0  0  0  0  0  0  0  0  0  0  0  0
  -16.1381   17.0237  -20.3893 C   0  0  0  0  0  0  0  0  0  0  0  0
  -16.2354   16.0582  -21.2957 N   0  0  0  0  0  0  0  0  0  0  0  0
  -19.3663   19.6567  -21.8498 H   0  0  0  0  0  0  0  0  0  0  0  0
  -17.8355   20.5639  -21.7508 H   0  0  0  0  0  0  0  0  0  0  0  0
 18 19  1  0  0  0
 19 20  2  0  0  0
 20 21  1  0  0  0
 21 22  1  0  0  0
 22 23  2  0  0  0
 21 12  1  0  0  0
 12 13  2  0  0  0
 13 14  1  0  0  0
 14  8  1  0  0  0
  8  9  1  0  0  0
  9 10  2  0  0  0
  9  1  1  0  0  0
  1  2  2  0  0  0
  2  3  1  0  0  0
  3  4  2  0  0  0
  4  5  1  0  0  0
  4  6  1  0  0  0
  6 28  1  0  0  0
 28 30  1  0  0  0
 30 31  2  0  0  0
 31 32  1  0  0  0
 32 33  2  0  0  0
 33 34  1  0  0  0
 34 35  2  0  0  0
 35 36  1  0  0  0
 36 37  2  0  0  0
 37 38  1  0  0  0
 38 39  1  0  0  0
 39 40  2  0  0  0
 40 41  1  0  0  0
 41 42  1  0  0  0
 41 43  2  0  0  0
 43 44  1  0  0  0
 44 45  2  0  0  0
  6  7  2  0  0  0
 14 15  2  0  0  0
 15 16  1  0  0  0
 16 17  2  0  0  0
 16 24  1  0  0  0
 24 25  1  0  0  0
 24 26  1  0  0  0
 24 27  1  0  0  0
 23 19  1  0  0  0
 17 12  1  0  0  0
  7  1  1  0  0  0
 38 30  1  0  0  0
 45 39  1  0  0  0
 37 32  1  0  0  0
  8 11  1  0  0  0
 28 29  1  0  0  0
 42 46  1  0  0  0
 42 47  1  0  0  0
M  END
> <minimizedAffinity>
-10.26039

> <CNNscore>
0.1063860878

> <CNNaffinity>
7.0776228905

> <CNN_VS>
0.7529606223

> <CNNaffinity_variance>
0.1203021258

$$$$
[H]c1nc(N([H])[H])c([H])c(-n2c(N([H])c3c([H])c(C(=O)N([H])c4c([H])c(-n5c([H])nc(C([H])([H])[H])c5[H])c([H])c(C(F)(F)F)c4[H])c([H])c([H])c3C([H])([H])[H])nc3c([H])c([H])c([H])c([H])c32)n1


 47 52  0  0  0  0  0  0  0  0999 V2000
  -18.2068   11.3737  -19.1273 C   0  0  0  0  0  0  0  0  0  0  0  0
  -17.2720   10.3590  -19.4172 C   0  0  0  0  0  0  0  0  0  0  0  0
  -16.4369   10.4234  -20.5089 C   0  0  0  0  0  0  0  0  0  0  0  0
  -16.4674   11.4807  -21.3812 C   0  0  0  0  0  0  0  0  0  0  0  0
  -15.5626   11.5495  -22.5940 C   0  0  0  0  0  0  0  0  0  0  0  0
  -17.3912   12.4948  -21.1126 C   0  0  0  0  0  0  0  0  0  0  0  0
  -18.2401   12.4189  -19.9997 C   0  0  0  0  0  0  0  0  0  0  0  0
  -19.1655   10.0932  -17.2533 N   0  0  0  0  0  0  0  0  0  0  0  0
  -18.8656   11.3517  -17.8123 C   0  0  0  0  0  0  0  0  0  0  0  0
  -19.1697   12.3865  -17.2077 O   0  0  0  0  0  0  0  0  0  0  0  0
  -18.7760    9.2686  -17.8698 H   0  0  0  0  0  0  0  0  0  0  0  0
  -19.9383    9.0680  -13.7496 C   0  0  0  0  0  0  0  0  0  0  0  0
  -19.2354    9.3151  -14.9275 C   0  0  0  0  0  0  0  0  0  0  0  0
  -19.8454    9.7133  -16.0931 C   0  0  0  0  0  0  0  0  0  0  0  0
  -21.2287    9.8634  -16.0711 C   0  0  0  0  0  0  0  0  0  0  0  0
  -21.9493    9.6230  -14.9184 C   0  0  0  0  0  0  0  0  0  0  0  0
  -21.3146    9.2300  -13.7747 C   0  0  0  0  0  0  0  0  0  0  0  0
  -17.9202    9.9667   -9.3115 C   0  0  0  0  0  0  0  0  0  0  0  0
  -18.4006    9.2499  -10.5202 C   0  0  0  0  0  0  0  0  0  0  0  0
  -19.0195    9.7940  -11.6173 C   0  0  0  0  0  0  0  0  0  0  0  0
  -19.3093    8.7918  -12.5163 N   0  0  0  0  0  0  0  0  0  0  0  0
  -18.8705    7.6870  -11.9579 C   0  0  0  0  0  0  0  0  0  0  0  0
  -18.3082    7.9337  -10.7372 N   0  0  0  0  0  0  0  0  0  0  0  0
  -23.4201    9.8273  -14.8922 C   0  0  0  0  0  0  0  0  0  0  0  0
  -23.7273   11.1313  -14.6037 F   0  0  0  0  0  0  0  0  0  0  0  0
  -23.9251    9.0338  -13.8591 F   0  0  0  0  0  0  0  0  0  0  0  0
  -23.9433    9.4666  -16.0902 F   0  0  0  0  0  0  0  0  0  0  0  0
  -17.2895   13.7051  -21.7990 N   0  0  0  0  0  0  0  0  0  0  0  0
  -16.3458   13.7753  -22.3677 H   0  0  0  0  0  0  0  0  0  0  0  0
  -18.1722   14.8042  -21.8720 C   0  0  0  0  0  0  0  0  0  0  0  0
  -19.0309   15.3576  -21.0022 N   0  0  0  0  0  0  0  0  0  0  0  0
  -19.6246   16.4817  -21.4843 C   0  0  0  0  0  0  0  0  0  0  0  0
  -20.5587   17.3670  -21.0142 C   0  0  0  0  0  0  0  0  0  0  0  0
  -21.0113   18.4296  -21.7358 C   0  0  0  0  0  0  0  0  0  0  0  0
  -20.4751   18.6009  -23.0149 C   0  0  0  0  0  0  0  0  0  0  0  0
  -19.5357   17.7149  -23.4932 C   0  0  0  0  0  0  0  0  0  0  0  0
  -19.0654   16.6221  -22.7699 C   0  0  0  0  0  0  0  0  0  0  0  0
  -18.2198   15.6313  -22.9723 N   0  0  0  0  0  0  0  0  0  0  0  0
  -17.3840   15.4325  -24.1092 C   0  0  0  0  0  0  0  0  0  0  0  0
  -16.3044   16.1770  -24.4883 C   0  0  0  0  0  0  0  0  0  0  0  0
  -15.5526   15.8886  -25.6106 C   0  0  0  0  0  0  0  0  0  0  0  0
  -14.4167   16.6640  -26.0083 N   0  0  0  0  0  0  0  0  0  0  0  0
  -15.9204   14.8268  -26.3460 N   0  0  0  0  0  0  0  0  0  0  0  0
  -17.0012   14.0618  -25.9956 C   0  0  0  0  0  0  0  0  0  0  0  0
  -17.7090   14.3568  -24.9116 N   0  0  0  0  0  0  0  0  0  0  0  0
  -13.6066   16.8117  -25.3617 H   0  0  0  0  0  0  0  0  0  0  0  0
  -14.3468   17.1117  -26.9549 H   0  0  0  0  0  0  0  0  0  0  0  0
 18 19  1  0  0  0
 19 20  2  0  0  0
 20 21  1  0  0  0
 21 22  1  0  0  0
 22 23  2  0  0  0
 21 12  1  0  0  0
 12 13  2  0  0  0
 13 14  1  0  0  0
 14  8  1  0  0  0
  8  9  1  0  0  0
  9 10  2  0  0  0
  9  1  1  0  0  0
  1  2  2  0  0  0
  2  3  1  0  0  0
  3  4  2  0  0  0
  4  5  1  0  0  0
  4  6  1  0  0  0
  6 28  1  0  0  0
 28 30  1  0  0  0
 30 31  2  0  0  0
 31 32  1  0  0  0
 32 33  2  0  0  0
 33 34  1  0  0  0
 34 35  2  0  0  0
 35 36  1  0  0  0
 36 37  2  0  0  0
 37 38  1  0  0  0
 38 39  1  0  0  0
 39 40  2  0  0  0
 40 41  1  0  0  0
 41 42  1  0  0  0
 41 43  2  0  0  0
 43 44  1  0  0  0
 44 45  2  0  0  0
  6  7  2  0  0  0
 14 15  2  0  0  0
 15 16  1  0  0  0
 16 17  2  0  0  0
 16 24  1  0  0  0
 24 25  1  0  0  0
 24 26  1  0  0  0
 24 27  1  0  0  0
 23 19  1  0  0  0
 17 12  1  0  0  0
  7  1  1  0  0  0
 38 30  1  0  0  0
 45 39  1  0  0  0
 37 32  1  0  0  0
  8 11  1  0  0  0
 28 29  1  0  0  0
 42 46  1  0  0  0
 42 47  1  0  0  0
M  END
> <minimizedAffinity>
-10.42775

> <CNNscore>
0.1021766290

> <CNNaffinity>
7.0608930588

> <CNN_VS>
0.7214582562

> <CNNaffinity_variance>
0.1698395014

$$$$
[H]c1nc(N([H])[H])c([H])c(-n2c(N([H])c3c([H])c(C(=O)N([H])c4c([H])c(-n5c([H])nc(C([H])([H])[H])c5[H])c([H])c(C(F)(F)F)c4[H])c([H])c([H])c3C([H])([H])[H])nc3c([H])c([H])c([H])c([H])c32)n1


 47 52  0  0  0  0  0  0  0  0999 V2000
  -18.5073   11.0953  -18.5967 C   0  0  0  0  0  0  0  0  0  0  0  0
  -17.7074   10.0172  -19.0273 C   0  0  0  0  0  0  0  0  0  0  0  0
  -16.8342   10.1303  -20.0848 C   0  0  0  0  0  0  0  0  0  0  0  0
  -16.6929   11.3014  -20.7836 C   0  0  0  0  0  0  0  0  0  0  0  0
  -15.7461   11.4276  -21.9591 C   0  0  0  0  0  0  0  0  0  0  0  0
  -17.4813   12.3806  -20.3740 C   0  0  0  0  0  0  0  0  0  0  0  0
  -18.3703   12.2549  -19.2975 C   0  0  0  0  0  0  0  0  0  0  0  0
  -19.5246    9.6658  -16.8668 N   0  0  0  0  0  0  0  0  0  0  0  0
  -19.2078   10.9657  -17.3097 C   0  0  0  0  0  0  0  0  0  0  0  0
  -19.5317   11.9474  -16.6314 O   0  0  0  0  0  0  0  0  0  0  0  0
  -19.1150    8.8943  -17.5368 H   0  0  0  0  0  0  0  0  0  0  0  0
  -22.1985    9.1182  -14.3223 C   0  0  0  0  0  0  0  0  0  0  0  0
  -21.4488    9.6967  -15.3450 C   0  0  0  0  0  0  0  0  0  0  0  0
  -20.2410    9.1923  -15.7645 C   0  0  0  0  0  0  0  0  0  0  0  0
  -19.7645    8.0555  -15.1185 C   0  0  0  0  0  0  0  0  0  0  0  0
  -20.4859    7.4640  -14.1010 C   0  0  0  0  0  0  0  0  0  0  0  0
  -21.6843    7.9875  -13.7073 C   0  0  0  0  0  0  0  0  0  0  0  0
  -25.7201   11.7012  -11.9763 C   0  0  0  0  0  0  0  0  0  0  0  0
  -25.0531   10.7343  -12.8852 C   0  0  0  0  0  0  0  0  0  0  0  0
  -23.7048   10.5272  -13.0325 C   0  0  0  0  0  0  0  0  0  0  0  0
  -23.4985    9.5470  -13.9778 N   0  0  0  0  0  0  0  0  0  0  0  0
  -24.6984    9.1894  -14.3745 C   0  0  0  0  0  0  0  0  0  0  0  0
  -25.6705    9.8960  -13.7243 N   0  0  0  0  0  0  0  0  0  0  0  0
  -19.9906    6.2262  -13.4464 C   0  0  0  0  0  0  0  0  0  0  0  0
  -19.0433    6.5191  -12.5005 F   0  0  0  0  0  0  0  0  0  0  0  0
  -19.3768    5.4565  -14.4376 F   0  0  0  0  0  0  0  0  0  0  0  0
  -21.0357    5.5665  -12.8881 F   0  0  0  0  0  0  0  0  0  0  0  0
  -17.1949   13.6551  -20.8638 N   0  0  0  0  0  0  0  0  0  0  0  0
  -16.1077   13.8238  -20.9556 H   0  0  0  0  0  0  0  0  0  0  0  0
  -18.0482   14.7139  -21.2424 C   0  0  0  0  0  0  0  0  0  0  0  0
  -18.8535   15.5401  -20.5576 N   0  0  0  0  0  0  0  0  0  0  0  0
  -19.4347   16.4864  -21.3421 C   0  0  0  0  0  0  0  0  0  0  0  0
  -20.3226   17.5095  -21.1369 C   0  0  0  0  0  0  0  0  0  0  0  0
  -20.7746   18.3185  -22.1348 C   0  0  0  0  0  0  0  0  0  0  0  0
  -20.2879   18.0698  -23.4209 C   0  0  0  0  0  0  0  0  0  0  0  0
  -19.3951   17.0433  -23.6340 C   0  0  0  0  0  0  0  0  0  0  0  0
  -18.9262   16.2054  -22.6257 C   0  0  0  0  0  0  0  0  0  0  0  0
  -18.1184   15.1671  -22.5412 N   0  0  0  0  0  0  0  0  0  0  0  0
  -17.3371   14.5977  -23.5880 C   0  0  0  0  0  0  0  0  0  0  0  0
  -17.7563   13.7491  -24.5717 C   0  0  0  0  0  0  0  0  0  0  0  0
  -16.9121   13.2614  -25.5501 C   0  0  0  0  0  0  0  0  0  0  0  0
  -17.3494   12.3755  -26.5863 N   0  0  0  0  0  0  0  0  0  0  0  0
  -15.6274   13.6508  -25.5097 N   0  0  0  0  0  0  0  0  0  0  0  0
  -15.1738   14.4979  -24.5336 C   0  0  0  0  0  0  0  0  0  0  0  0
  -16.0035   14.9555  -23.6034 N   0  0  0  0  0  0  0  0  0  0  0  0
  -18.1327   12.6371  -27.2298 H   0  0  0  0  0  0  0  0  0  0  0  0
  -16.9080   11.4367  -26.7449 H   0  0  0  0  0  0  0  0  0  0  0  0
 18 19  1  0  0  0
 19 20  2  0  0  0
 20 21  1  0  0  0
 21 22  1  0  0  0
 22 23  2  0  0  0
 21 12  1  0  0  0
 12 13  2  0  0  0
 13 14  1  0  0  0
 14  8  1  0  0  0
  8  9  1  0  0  0
  9 10  2  0  0  0
  9  1  1  0  0  0
  1  2  2  0  0  0
  2  3  1  0  0  0
  3  4  2  0  0  0
  4  5  1  0  0  0
  4  6  1  0  0  0
  6 28  1  0  0  0
 28 30  1  0  0  0
 30 31  2  0  0  0
 31 32  1  0  0  0
 32 33  2  0  0  0
 33 34  1  0  0  0
 34 35  2  0  0  0
 35 36  1  0  0  0
 36 37  2  0  0  0
 37 38  1  0  0  0
 38 39  1  0  0  0
 39 40  2  0  0  0
 40 41  1  0  0  0
 41 42  1  0  0  0
 41 43  2  0  0  0
 43 44  1  0  0  0
 44 45  2  0  0  0
  6  7  2  0  0  0
 14 15  2  0  0  0
 15 16  1  0  0  0
 16 17  2  0  0  0
 16 24  1  0  0  0
 24 25  1  0  0  0
 24 26  1  0  0  0
 24 27  1  0  0  0
 23 19  1  0  0  0
 17 12  1  0  0  0
  7  1  1  0  0  0
 38 30  1  0  0  0
 45 39  1  0  0  0
 37 32  1  0  0  0
  8 11  1  0  0  0
 28 29  1  0  0  0
 42 46  1  0  0  0
 42 47  1  0  0  0
M  END
> <minimizedAffinity>
-9.36480

> <CNNscore>
0.0827386975

> <CNNaffinity>
6.8058710098

> <CNN_VS>
0.5631089211

> <CNNaffinity_variance>
0.2580482960

$$$$
[H]c1nc(N([H])[H])c([H])c(-n2c(N([H])c3c([H])c(C(=O)N([H])c4c([H])c(-n5c([H])nc(C([H])([H])[H])c5[H])c([H])c(C(F)(F)F)c4[H])c([H])c([H])c3C([H])([H])[H])nc3c([H])c([H])c([H])c([H])c32)n1


 47 52  0  0  0  0  0  0  0  0999 V2000
  -18.2032   11.3288  -19.1979 C   0  0  0  0  0  0  0  0  0  0  0  0
  -17.3376   10.3038  -19.6312 C   0  0  0  0  0  0  0  0  0  0  0  0
  -16.5180   10.4523  -20.7265 C   0  0  0  0  0  0  0  0  0  0  0  0
  -16.4973   11.6087  -21.4626 C   0  0  0  0  0  0  0  0  0  0  0  0
  -15.6100   11.7723  -22.6791 C   0  0  0  0  0  0  0  0  0  0  0  0
  -17.3523   12.6351  -21.0508 C   0  0  0  0  0  0  0  0  0  0  0  0
  -18.1861   12.4734  -19.9356 C   0  0  0  0  0  0  0  0  0  0  0  0
  -18.8485    9.9021  -17.2956 N   0  0  0  0  0  0  0  0  0  0  0  0
  -18.8407   11.1845  -17.8801 C   0  0  0  0  0  0  0  0  0  0  0  0
  -19.3711   12.1355  -17.2945 O   0  0  0  0  0  0  0  0  0  0  0  0
  -18.2823    9.1748  -17.8975 H   0  0  0  0  0  0  0  0  0  0  0  0
  -20.2685    9.6315  -13.8555 C   0  0  0  0  0  0  0  0  0  0  0  0
  -19.5727   10.1169  -14.9613 C   0  0  0  0  0  0  0  0  0  0  0  0
  -19.4254    9.4013  -16.1256 C   0  0  0  0  0  0  0  0  0  0  0  0
  -20.0014    8.1355  -16.1745 C   0  0  0  0  0  0  0  0  0  0  0  0
  -20.6940    7.6299  -15.0927 C   0  0  0  0  0  0  0  0  0  0  0  0
  -20.8250    8.3656  -13.9495 C   0  0  0  0  0  0  0  0  0  0  0  0
  -19.9307   11.1753   -9.1565 C   0  0  0  0  0  0  0  0  0  0  0  0
  -20.3571   11.0656  -10.5750 C   0  0  0  0  0  0  0  0  0  0  0  0
  -19.8921   10.1819  -11.5160 C   0  0  0  0  0  0  0  0  0  0  0  0
  -20.5405   10.4096  -12.7095 N   0  0  0  0  0  0  0  0  0  0  0  0
  -21.3653   11.4038  -12.4722 C   0  0  0  0  0  0  0  0  0  0  0  0
  -21.2781   11.8264  -11.1757 N   0  0  0  0  0  0  0  0  0  0  0  0
  -21.3423    6.2958  -15.1689 C   0  0  0  0  0  0  0  0  0  0  0  0
  -20.5563    5.3364  -14.5859 F   0  0  0  0  0  0  0  0  0  0  0  0
  -21.4657    5.9775  -16.5237 F   0  0  0  0  0  0  0  0  0  0  0  0
  -22.5550    6.3525  -14.5645 F   0  0  0  0  0  0  0  0  0  0  0  0
  -17.1873   13.9124  -21.5870 N   0  0  0  0  0  0  0  0  0  0  0  0
  -16.1588   14.0722  -21.9552 H   0  0  0  0  0  0  0  0  0  0  0  0
  -18.0969   14.9832  -21.7230 C   0  0  0  0  0  0  0  0  0  0  0  0
  -18.8140   15.7020  -20.8460 N   0  0  0  0  0  0  0  0  0  0  0  0
  -19.5067   16.7155  -21.4306 C   0  0  0  0  0  0  0  0  0  0  0  0
  -20.3722   17.6827  -20.9916 C   0  0  0  0  0  0  0  0  0  0  0  0
  -20.9637   18.5880  -21.8193 C   0  0  0  0  0  0  0  0  0  0  0  0
  -20.6500   18.5029  -23.1784 C   0  0  0  0  0  0  0  0  0  0  0  0
  -19.7807   17.5333  -23.6261 C   0  0  0  0  0  0  0  0  0  0  0  0
  -19.1707   16.5985  -22.7938 C   0  0  0  0  0  0  0  0  0  0  0  0
  -18.3457   15.5806  -22.9389 N   0  0  0  0  0  0  0  0  0  0  0  0
  -17.7040   15.1578  -24.1389 C   0  0  0  0  0  0  0  0  0  0  0  0
  -16.7900   15.8484  -24.8813 C   0  0  0  0  0  0  0  0  0  0  0  0
  -16.2187   15.3374  -26.0304 C   0  0  0  0  0  0  0  0  0  0  0  0
  -15.2560   16.0567  -26.8086 N   0  0  0  0  0  0  0  0  0  0  0  0
  -16.5963   14.1075  -26.4153 N   0  0  0  0  0  0  0  0  0  0  0  0
  -17.5142   13.3899  -25.6953 C   0  0  0  0  0  0  0  0  0  0  0  0
  -18.0498   13.9004  -24.5927 N   0  0  0  0  0  0  0  0  0  0  0  0
  -14.3658   16.4067  -26.3830 H   0  0  0  0  0  0  0  0  0  0  0  0
  -15.3985   16.2610  -27.8281 H   0  0  0  0  0  0  0  0  0  0  0  0
 18 19  1  0  0  0
 19 20  2  0  0  0
 20 21  1  0  0  0
 21 22  1  0  0  0
 22 23  2  0  0  0
 21 12  1  0  0  0
 12 13  2  0  0  0
 13 14  1  0  0  0
 14  8  1  0  0  0
  8  9  1  0  0  0
  9 10  2  0  0  0
  9  1  1  0  0  0
  1  2  2  0  0  0
  2  3  1  0  0  0
  3  4  2  0  0  0
  4  5  1  0  0  0
  4  6  1  0  0  0
  6 28  1  0  0  0
 28 30  1  0  0  0
 30 31  2  0  0  0
 31 32  1  0  0  0
 32 33  2  0  0  0
 33 34  1  0  0  0
 34 35  2  0  0  0
 35 36  1  0  0  0
 36 37  2  0  0  0
 37 38  1  0  0  0
 38 39  1  0  0  0
 39 40  2  0  0  0
 40 41  1  0  0  0
 41 42  1  0  0  0
 41 43  2  0  0  0
 43 44  1  0  0  0
 44 45  2  0  0  0
  6  7  2  0  0  0
 14 15  2  0  0  0
 15 16  1  0  0  0
 16 17  2  0  0  0
 16 24  1  0  0  0
 24 25  1  0  0  0
 24 26  1  0  0  0
 24 27  1  0  0  0
 23 19  1  0  0  0
 17 12  1  0  0  0
  7  1  1  0  0  0
 38 30  1  0  0  0
 45 39  1  0  0  0
 37 32  1  0  0  0
  8 11  1  0  0  0
 28 29  1  0  0  0
 42 46  1  0  0  0
 42 47  1  0  0  0
M  END
> <minimizedAffinity>
-10.05204

> <CNNscore>
0.0826457664

> <CNNaffinity>
6.9687089920

> <CNN_VS>
0.5759342909

> <CNNaffinity_variance>
0.2212580740

$$$$
[H]c1nc(N([H])[H])c([H])c(-n2c(N([H])c3c([H])c(C(=O)N([H])c4c([H])c(-n5c([H])nc(C([H])([H])[H])c5[H])c([H])c(C(F)(F)F)c4[H])c([H])c([H])c3C([H])([H])[H])nc3c([H])c([H])c([H])c([H])c32)n1


 47 52  0  0  0  0  0  0  0  0999 V2000
  -18.3323   10.9538  -19.0188 C   0  0  0  0  0  0  0  0  0  0  0  0
  -17.1491   10.2052  -19.1840 C   0  0  0  0  0  0  0  0  0  0  0  0
  -16.2711   10.4423  -20.2165 C   0  0  0  0  0  0  0  0  0  0  0  0
  -16.4982   11.4224  -21.1480 C   0  0  0  0  0  0  0  0  0  0  0  0
  -15.5443   11.6773  -22.2966 C   0  0  0  0  0  0  0  0  0  0  0  0
  -17.6689   12.1724  -21.0033 C   0  0  0  0  0  0  0  0  0  0  0  0
  -18.5590   11.9214  -19.9499 C   0  0  0  0  0  0  0  0  0  0  0  0
  -18.8752    9.6276  -17.0145 N   0  0  0  0  0  0  0  0  0  0  0  0
  -19.0697   10.8115  -17.7539 C   0  0  0  0  0  0  0  0  0  0  0  0
  -19.8495   11.6782  -17.3421 O   0  0  0  0  0  0  0  0  0  0  0  0
  -18.1056    8.9841  -17.4677 H   0  0  0  0  0  0  0  0  0  0  0  0
  -20.0577    9.2897  -13.4915 C   0  0  0  0  0  0  0  0  0  0  0  0
  -19.3536    9.7313  -14.6103 C   0  0  0  0  0  0  0  0  0  0  0  0
  -19.4627    9.1376  -15.8452 C   0  0  0  0  0  0  0  0  0  0  0  0
  -20.3168    8.0444  -15.9551 C   0  0  0  0  0  0  0  0  0  0  0  0
  -21.0242    7.5852  -14.8623 C   0  0  0  0  0  0  0  0  0  0  0  0
  -20.8963    8.1973  -13.6480 C   0  0  0  0  0  0  0  0  0  0  0  0
  -21.5919   12.4150   -9.9622 C   0  0  0  0  0  0  0  0  0  0  0  0
  -20.7863   11.4052  -10.6950 C   0  0  0  0  0  0  0  0  0  0  0  0
  -21.0403   10.8836  -11.9384 C   0  0  0  0  0  0  0  0  0  0  0  0
  -20.0566    9.9737  -12.2566 N   0  0  0  0  0  0  0  0  0  0  0  0
  -19.2463    9.9630  -11.2230 C   0  0  0  0  0  0  0  0  0  0  0  0
  -19.6642   10.8286  -10.2519 N   0  0  0  0  0  0  0  0  0  0  0  0
  -21.9662    6.4451  -14.9985 C   0  0  0  0  0  0  0  0  0  0  0  0
  -22.7172    6.2931  -13.8623 F   0  0  0  0  0  0  0  0  0  0  0  0
  -21.1931    5.2918  -15.1536 F   0  0  0  0  0  0  0  0  0  0  0  0
  -22.7645    6.6505  -16.0754 F   0  0  0  0  0  0  0  0  0  0  0  0
  -17.8229   13.3412  -21.7493 N   0  0  0  0  0  0  0  0  0  0  0  0
  -18.3115   14.1394  -21.1635 H   0  0  0  0  0  0  0  0  0  0  0  0
  -17.4643   13.6429  -23.0808 C   0  0  0  0  0  0  0  0  0  0  0  0
  -17.4335   12.9246  -24.2136 N   0  0  0  0  0  0  0  0  0  0  0  0
  -17.0956   13.6649  -25.3029 C   0  0  0  0  0  0  0  0  0  0  0  0
  -16.9087   13.4064  -26.6353 C   0  0  0  0  0  0  0  0  0  0  0  0
  -16.5352   14.3571  -27.5361 C   0  0  0  0  0  0  0  0  0  0  0  0
  -16.3439   15.6521  -27.0472 C   0  0  0  0  0  0  0  0  0  0  0  0
  -16.5303   15.9187  -25.7091 C   0  0  0  0  0  0  0  0  0  0  0  0
  -16.9083   14.9578  -24.7751 C   0  0  0  0  0  0  0  0  0  0  0  0
  -17.1304   14.9193  -23.4763 N   0  0  0  0  0  0  0  0  0  0  0  0
  -17.1231   16.0184  -22.5695 C   0  0  0  0  0  0  0  0  0  0  0  0
  -16.2939   16.2110  -21.5023 C   0  0  0  0  0  0  0  0  0  0  0  0
  -16.3665   17.3250  -20.6889 C   0  0  0  0  0  0  0  0  0  0  0  0
  -15.4951   17.5327  -19.5721 N   0  0  0  0  0  0  0  0  0  0  0  0
  -17.3028   18.2431  -20.9785 N   0  0  0  0  0  0  0  0  0  0  0  0
  -18.1532   18.0781  -22.0395 C   0  0  0  0  0  0  0  0  0  0  0  0
  -18.0647   16.9996  -22.8091 N   0  0  0  0  0  0  0  0  0  0  0  0
  -14.4548   17.5432  -19.6894 H   0  0  0  0  0  0  0  0  0  0  0  0
  -15.8571   17.6831  -18.5986 H   0  0  0  0  0  0  0  0  0  0  0  0
 18 19  1  0  0  0
 19 20  2  0  0  0
 20 21  1  0  0  0
 21 22  1  0  0  0
 22 23  2  0  0  0
 21 12  1  0  0  0
 12 13  2  0  0  0
 13 14  1  0  0  0
 14  8  1  0  0  0
  8  9  1  0  0  0
  9 10  2  0  0  0
  9  1  1  0  0  0
  1  2  2  0  0  0
  2  3  1  0  0  0
  3  4  2  0  0  0
  4  5  1  0  0  0
  4  6  1  0  0  0
  6 28  1  0  0  0
 28 30  1  0  0  0
 30 31  2  0  0  0
 31 32  1  0  0  0
 32 33  2  0  0  0
 33 34  1  0  0  0
 34 35  2  0  0  0
 35 36  1  0  0  0
 36 37  2  0  0  0
 37 38  1  0  0  0
 38 39  1  0  0  0
 39 40  2  0  0  0
 40 41  1  0  0  0
 41 42  1  0  0  0
 41 43  2  0  0  0
 43 44  1  0  0  0
 44 45  2  0  0  0
  6  7  2  0  0  0
 14 15  2  0  0  0
 15 16  1  0  0  0
 16 17  2  0  0  0
 16 24  1  0  0  0
 24 25  1  0  0  0
 24 26  1  0  0  0
 24 27  1  0  0  0
 23 19  1  0  0  0
 17 12  1  0  0  0
  7  1  1  0  0  0
 38 30  1  0  0  0
 45 39  1  0  0  0
 37 32  1  0  0  0
  8 11  1  0  0  0
 28 29  1  0  0  0
 42 46  1  0  0  0
 42 47  1  0  0  0
M  END
> <minimizedAffinity>
-10.17095

> <CNNscore>
0.0802846476

> <CNNaffinity>
6.9524321556

> <CNN_VS>
0.5581735373

> <CNNaffinity_variance>
0.1753628254

$$$$
[H]c1nc(N([H])[H])c([H])c(-n2c(N([H])c3c([H])c(C(=O)N([H])c4c([H])c(-n5c([H])nc(C([H])([H])[H])c5[H])c([H])c(C(F)(F)F)c4[H])c([H])c([H])c3C([H])([H])[H])nc3c([H])c([H])c([H])c([H])c32)n1


 47 52  0  0  0  0  0  0  0  0999 V2000
  -19.2929   10.7610  -17.4356 C   0  0  0  0  0  0  0  0  0  0  0  0
  -18.4980    9.6209  -17.6721 C   0  0  0  0  0  0  0  0  0  0  0  0
  -17.5123    9.6023  -18.6320 C   0  0  0  0  0  0  0  0  0  0  0  0
  -17.2470   10.6944  -19.4172 C   0  0  0  0  0  0  0  0  0  0  0  0
  -16.1748   10.6749  -20.4869 C   0  0  0  0  0  0  0  0  0  0  0  0
  -18.0281   11.8332  -19.2003 C   0  0  0  0  0  0  0  0  0  0  0  0
  -19.0323   11.8417  -18.2222 C   0  0  0  0  0  0  0  0  0  0  0  0
  -19.5503   11.2544  -15.0353 N   0  0  0  0  0  0  0  0  0  0  0  0
  -20.1325   10.7800  -16.2279 C   0  0  0  0  0  0  0  0  0  0  0  0
  -21.3039   10.3842  -16.2307 O   0  0  0  0  0  0  0  0  0  0  0  0
  -18.5305   11.6342  -15.2010 H   0  0  0  0  0  0  0  0  0  0  0  0
  -21.7292   11.7873  -12.0533 C   0  0  0  0  0  0  0  0  0  0  0  0
  -21.2390   11.8460  -13.3567 C   0  0  0  0  0  0  0  0  0  0  0  0
  -20.0185   11.3294  -13.7209 C   0  0  0  0  0  0  0  0  0  0  0  0
  -19.2545   10.7315  -12.7231 C   0  0  0  0  0  0  0  0  0  0  0  0
  -19.7153   10.6620  -11.4237 C   0  0  0  0  0  0  0  0  0  0  0  0
  -20.9337   11.1829  -11.0926 C   0  0  0  0  0  0  0  0  0  0  0  0
  -26.3710   13.4133  -12.6755 C   0  0  0  0  0  0  0  0  0  0  0  0
  -25.1214   12.9356  -12.0304 C   0  0  0  0  0  0  0  0  0  0  0  0
  -23.9492   12.5828  -12.6503 C   0  0  0  0  0  0  0  0  0  0  0  0
  -23.0343   12.1917  -11.6982 N   0  0  0  0  0  0  0  0  0  0  0  0
  -23.6569   12.3124  -10.5481 C   0  0  0  0  0  0  0  0  0  0  0  0
  -24.9345   12.7665  -10.7172 N   0  0  0  0  0  0  0  0  0  0  0  0
  -18.9125    9.9839  -10.3742 C   0  0  0  0  0  0  0  0  0  0  0  0
  -18.1553    8.9766  -10.9126 F   0  0  0  0  0  0  0  0  0  0  0  0
  -19.8152    9.4043   -9.4791 F   0  0  0  0  0  0  0  0  0  0  0  0
  -18.1234   10.8967   -9.7551 F   0  0  0  0  0  0  0  0  0  0  0  0
  -17.6368   13.0440  -19.7722 N   0  0  0  0  0  0  0  0  0  0  0  0
  -16.5433   13.0947  -19.9155 H   0  0  0  0  0  0  0  0  0  0  0  0
  -18.3950   14.1638  -20.1768 C   0  0  0  0  0  0  0  0  0  0  0  0
  -19.3172   14.9233  -19.5662 N   0  0  0  0  0  0  0  0  0  0  0  0
  -19.7288   15.9729  -20.3263 C   0  0  0  0  0  0  0  0  0  0  0  0
  -20.6365   16.9879  -20.1741 C   0  0  0  0  0  0  0  0  0  0  0  0
  -20.8797   17.9233  -21.1335 C   0  0  0  0  0  0  0  0  0  0  0  0
  -20.1490   17.8182  -22.3200 C   0  0  0  0  0  0  0  0  0  0  0  0
  -19.2350   16.8006  -22.4793 C   0  0  0  0  0  0  0  0  0  0  0  0
  -18.9774   15.8347  -21.5101 C   0  0  0  0  0  0  0  0  0  0  0  0
  -18.2055   14.7720  -21.3980 N   0  0  0  0  0  0  0  0  0  0  0  0
  -17.2344   14.3116  -22.3337 C   0  0  0  0  0  0  0  0  0  0  0  0
  -16.1531   14.9928  -22.8135 C   0  0  0  0  0  0  0  0  0  0  0  0
  -15.2630   14.4448  -23.7164 C   0  0  0  0  0  0  0  0  0  0  0  0
  -14.1251   15.1545  -24.2177 N   0  0  0  0  0  0  0  0  0  0  0  0
  -15.4934   13.1872  -24.1274 N   0  0  0  0  0  0  0  0  0  0  0  0
  -16.5716   12.4778  -23.6686 C   0  0  0  0  0  0  0  0  0  0  0  0
  -17.4140   13.0242  -22.7997 N   0  0  0  0  0  0  0  0  0  0  0  0
  -13.4037   15.5506  -23.5706 H   0  0  0  0  0  0  0  0  0  0  0  0
  -13.9657   15.3055  -25.2440 H   0  0  0  0  0  0  0  0  0  0  0  0
 18 19  1  0  0  0
 19 20  2  0  0  0
 20 21  1  0  0  0
 21 22  1  0  0  0
 22 23  2  0  0  0
 21 12  1  0  0  0
 12 13  2  0  0  0
 13 14  1  0  0  0
 14  8  1  0  0  0
  8  9  1  0  0  0
  9 10  2  0  0  0
  9  1  1  0  0  0
  1  2  2  0  0  0
  2  3  1  0  0  0
  3  4  2  0  0  0
  4  5  1  0  0  0
  4  6  1  0  0  0
  6 28  1  0  0  0
 28 30  1  0  0  0
 30 31  2  0  0  0
 31 32  1  0  0  0
 32 33  2  0  0  0
 33 34  1  0  0  0
 34 35  2  0  0  0
 35 36  1  0  0  0
 36 37  2  0  0  0
 37 38  1  0  0  0
 38 39  1  0  0  0
 39 40  2  0  0  0
 40 41  1  0  0  0
 41 42  1  0  0  0
 41 43  2  0  0  0
 43 44  1  0  0  0
 44 45  2  0  0  0
  6  7  2  0  0  0
 14 15  2  0  0  0
 15 16  1  0  0  0
 16 17  2  0  0  0
 16 24  1  0  0  0
 24 25  1  0  0  0
 24 26  1  0  0  0
 24 27  1  0  0  0
 23 19  1  0  0  0
 17 12  1  0  0  0
  7  1  1  0  0  0
 38 30  1  0  0  0
 45 39  1  0  0  0
 37 32  1  0  0  0
  8 11  1  0  0  0
 28 29  1  0  0  0
 42 46  1  0  0  0
 42 47  1  0  0  0
M  END
> <minimizedAffinity>
-9.49708

> <CNNscore>
0.0693025440

> <CNNaffinity>
6.9434142113

> <CNN_VS>
0.4811962545

> <CNNaffinity_variance>
0.1092250347

$$$$
[H]c1nc(N([H])[H])c2c(-c3c([H])c([H])c(Oc4c([H])c([H])c([H])c([H])c4[H])c([H])c3[H])c([H])n([C@]3([H])C([H])([H])C([H])([H])[C@]([H])(N4C([H])([H])C([H])([H])N(C([H])([H])[H])C([H])([H])C4([H])[H])C([H])([H])C3([H])[H])c2n1


 38 43  0  0  0  0  0  0  0  0999 V2000
  -18.7887   13.9139  -20.2054 N   0  0  0  0  0  0  0  0  0  0  0  0
  -19.3035   13.3172  -19.1300 C   0  0  0  0  0  0  0  0  0  0  0  0
  -18.7268   12.0696  -18.9325 C   0  0  0  0  0  0  0  0  0  0  0  0
  -17.8133   11.8902  -19.9375 C   0  0  0  0  0  0  0  0  0  0  0  0
  -16.9463   10.8622  -20.2824 C   0  0  0  0  0  0  0  0  0  0  0  0
  -16.8644    9.6569  -19.5515 N   0  0  0  0  0  0  0  0  0  0  0  0
  -16.1578   10.9842  -21.3644 N   0  0  0  0  0  0  0  0  0  0  0  0
  -16.2169   12.1071  -22.1080 C   0  0  0  0  0  0  0  0  0  0  0  0
  -17.0563   13.1124  -21.7840 N   0  0  0  0  0  0  0  0  0  0  0  0
  -17.8710   13.0524  -20.7149 C   0  0  0  0  0  0  0  0  0  0  0  0
  -17.6659    8.9718  -19.4714 H   0  0  0  0  0  0  0  0  0  0  0  0
  -15.9934    9.3649  -19.0385 H   0  0  0  0  0  0  0  0  0  0  0  0
  -19.2072   17.5578  -22.0293 C   0  0  0  0  0  0  0  0  0  0  0  0
  -18.4693   16.5282  -22.8456 C   0  0  0  0  0  0  0  0  0  0  0  0
  -18.8669   15.1658  -22.3151 C   0  0  0  0  0  0  0  0  0  0  0  0
  -19.0522   15.1972  -20.8163 C   0  0  0  0  0  0  0  0  0  0  0  0
  -18.1411   16.2354  -20.2530 C   0  0  0  0  0  0  0  0  0  0  0  0
  -18.5534   17.6359  -20.6850 C   0  0  0  0  0  0  0  0  0  0  0  0
  -21.6821   21.2293  -22.0711 C   0  0  0  0  0  0  0  0  0  0  0  0
  -20.5987   21.3317  -23.0133 N   0  0  0  0  0  0  0  0  0  0  0  0
  -20.6867   20.3109  -24.0403 C   0  0  0  0  0  0  0  0  0  0  0  0
  -20.6573   18.9770  -23.3390 C   0  0  0  0  0  0  0  0  0  0  0  0
  -19.4074   18.7969  -22.6922 N   0  0  0  0  0  0  0  0  0  0  0  0
  -18.9531   19.8925  -21.8938 C   0  0  0  0  0  0  0  0  0  0  0  0
  -19.2979   21.2424  -22.4260 C   0  0  0  0  0  0  0  0  0  0  0  0
  -18.9970   11.1449  -17.8440 C   0  0  0  0  0  0  0  0  0  0  0  0
  -19.7363   11.4592  -16.7250 C   0  0  0  0  0  0  0  0  0  0  0  0
  -19.9684   10.5597  -15.6959 C   0  0  0  0  0  0  0  0  0  0  0  0
  -19.4591    9.2805  -15.7457 C   0  0  0  0  0  0  0  0  0  0  0  0
  -18.7152    8.9421  -16.8571 C   0  0  0  0  0  0  0  0  0  0  0  0
  -18.4868    9.8377  -17.8769 C   0  0  0  0  0  0  0  0  0  0  0  0
  -19.6575    8.3445  -14.7525 O   0  0  0  0  0  0  0  0  0  0  0  0
  -20.3583    7.1701  -14.9059 C   0  0  0  0  0  0  0  0  0  0  0  0
  -19.9079    5.9660  -14.4367 C   0  0  0  0  0  0  0  0  0  0  0  0
  -20.6716    4.8396  -14.6323 C   0  0  0  0  0  0  0  0  0  0  0  0
  -21.8831    4.8501  -15.2834 C   0  0  0  0  0  0  0  0  0  0  0  0
  -22.3111    6.0855  -15.7465 C   0  0  0  0  0  0  0  0  0  0  0  0
  -21.5634    7.2229  -15.5614 C   0  0  0  0  0  0  0  0  0  0  0  0
 19 20  1  0  0  0
 20 21  1  0  0  0
 21 22  1  0  0  0
 22 23  1  0  0  0
 23 24  1  0  0  0
 24 25  1  0  0  0
 23 13  1  0  0  0
 13 14  1  0  0  0
 14 15  1  0  0  0
 15 16  1  0  0  0
 16 17  1  0  0  0
 17 18  1  0  0  0
 16  1  1  0  0  0
  1  2  1  0  0  0
  2  3  2  0  0  0
  3 26  1  0  0  0
 26 27  2  0  0  0
 27 28  1  0  0  0
 28 29  2  0  0  0
 29 32  1  0  0  0
 32 33  1  0  0  0
 33 34  2  0  0  0
 34 35  1  0  0  0
 35 36  2  0  0  0
 36 37  1  0  0  0
 37 38  2  0  0  0
 29 30  1  0  0  0
 30 31  2  0  0  0
  3  4  1  0  0  0
  4  5  2  0  0  0
  5  6  1  0  0  0
  5  7  1  0  0  0
  7  8  2  0  0  0
  8  9  1  0  0  0
  9 10  2  0  0  0
 25 20  1  0  0  0
 18 13  1  0  0  0
 10  1  1  0  0  0
 31 26  1  0  0  0
 10  4  1  0  0  0
 38 33  1  0  0  0
  6 11  1  0  0  0
  6 12  1  0  0  0
M  END
> <minimizedAffinity>
-9.05883

> <CNNscore>
0.5911639929

> <CNNaffinity>
7.1854410172

> <CNN_VS>
4.2477741241

> <CNNaffinity_variance>
0.1378533840

$$$$
[H]c1nc(N([H])[H])c2c(-c3c([H])c([H])c(Oc4c([H])c([H])c([H])c([H])c4[H])c([H])c3[H])c([H])n([C@]3([H])C([H])([H])C([H])([H])[C@]([H])(N4C([H])([H])C([H])([H])N(C([H])([H])[H])C([H])([H])C4([H])[H])C([H])([H])C3([H])[H])c2n1


 38 43  0  0  0  0  0  0  0  0999 V2000
  -18.3178   14.7608  -20.8377 N   0  0  0  0  0  0  0  0  0  0  0  0
  -18.8710   14.1639  -19.7817 C   0  0  0  0  0  0  0  0  0  0  0  0
  -18.4676   12.8381  -19.6948 C   0  0  0  0  0  0  0  0  0  0  0  0
  -17.6257   12.6086  -20.7510 C   0  0  0  0  0  0  0  0  0  0  0  0
  -16.9243   11.4993  -21.2036 C   0  0  0  0  0  0  0  0  0  0  0  0
  -16.9850   10.2444  -20.5594 N   0  0  0  0  0  0  0  0  0  0  0  0
  -16.1669   11.5903  -22.3105 N   0  0  0  0  0  0  0  0  0  0  0  0
  -16.0957   12.7616  -22.9740 C   0  0  0  0  0  0  0  0  0  0  0  0
  -16.7738   13.8463  -22.5451 N   0  0  0  0  0  0  0  0  0  0  0  0
  -17.5489   13.8211  -21.4456 C   0  0  0  0  0  0  0  0  0  0  0  0
  -17.8709    9.6715  -20.4880 H   0  0  0  0  0  0  0  0  0  0  0  0
  -16.1451    9.7995  -20.1080 H   0  0  0  0  0  0  0  0  0  0  0  0
  -18.7237   18.6744  -21.9772 C   0  0  0  0  0  0  0  0  0  0  0  0
  -18.0252   18.4741  -20.6571 C   0  0  0  0  0  0  0  0  0  0  0  0
  -17.4808   17.0603  -20.6474 C   0  0  0  0  0  0  0  0  0  0  0  0
  -18.4215   16.1090  -21.3487 C   0  0  0  0  0  0  0  0  0  0  0  0
  -19.8135   16.6195  -21.1835 C   0  0  0  0  0  0  0  0  0  0  0  0
  -20.0214   17.9298  -21.9302 C   0  0  0  0  0  0  0  0  0  0  0  0
  -21.4793   22.1017  -22.4949 C   0  0  0  0  0  0  0  0  0  0  0  0
  -20.1193   22.4947  -22.7554 N   0  0  0  0  0  0  0  0  0  0  0  0
  -19.5567   21.7607  -23.8730 C   0  0  0  0  0  0  0  0  0  0  0  0
  -19.6290   20.2971  -23.5199 C   0  0  0  0  0  0  0  0  0  0  0  0
  -18.8024   20.0276  -22.3986 N   0  0  0  0  0  0  0  0  0  0  0  0
  -18.9529   20.9108  -21.2844 C   0  0  0  0  0  0  0  0  0  0  0  0
  -19.2361   22.3306  -21.6426 C   0  0  0  0  0  0  0  0  0  0  0  0
  -18.8242   11.8826  -18.6590 C   0  0  0  0  0  0  0  0  0  0  0  0
  -19.9433   11.9843  -17.8623 C   0  0  0  0  0  0  0  0  0  0  0  0
  -20.2526   11.0633  -16.8733 C   0  0  0  0  0  0  0  0  0  0  0  0
  -19.4367    9.9787  -16.6361 C   0  0  0  0  0  0  0  0  0  0  0  0
  -18.3097    9.8553  -17.4219 C   0  0  0  0  0  0  0  0  0  0  0  0
  -18.0057   10.7715  -18.4029 C   0  0  0  0  0  0  0  0  0  0  0  0
  -19.6941    9.0319  -15.6670 O   0  0  0  0  0  0  0  0  0  0  0  0
  -19.5101    9.2177  -14.3159 C   0  0  0  0  0  0  0  0  0  0  0  0
  -19.6144   10.4404  -13.7101 C   0  0  0  0  0  0  0  0  0  0  0  0
  -19.4154   10.5379  -12.3531 C   0  0  0  0  0  0  0  0  0  0  0  0
  -19.1119    9.4609  -11.5532 C   0  0  0  0  0  0  0  0  0  0  0  0
  -19.0134    8.2366  -12.1976 C   0  0  0  0  0  0  0  0  0  0  0  0
  -19.2086    8.1175  -13.5521 C   0  0  0  0  0  0  0  0  0  0  0  0
 19 20  1  0  0  0
 20 21  1  0  0  0
 21 22  1  0  0  0
 22 23  1  0  0  0
 23 24  1  0  0  0
 24 25  1  0  0  0
 23 13  1  0  0  0
 13 14  1  0  0  0
 14 15  1  0  0  0
 15 16  1  0  0  0
 16 17  1  0  0  0
 17 18  1  0  0  0
 16  1  1  0  0  0
  1  2  1  0  0  0
  2  3  2  0  0  0
  3 26  1  0  0  0
 26 27  2  0  0  0
 27 28  1  0  0  0
 28 29  2  0  0  0
 29 32  1  0  0  0
 32 33  1  0  0  0
 33 34  2  0  0  0
 34 35  1  0  0  0
 35 36  2  0  0  0
 36 37  1  0  0  0
 37 38  2  0  0  0
 29 30  1  0  0  0
 30 31  2  0  0  0
  3  4  1  0  0  0
  4  5  2  0  0  0
  5  6  1  0  0  0
  5  7  1  0  0  0
  7  8  2  0  0  0
  8  9  1  0  0  0
  9 10  2  0  0  0
 25 20  1  0  0  0
 18 13  1  0  0  0
 10  1  1  0  0  0
 31 26  1  0  0  0
 10  4  1  0  0  0
 38 33  1  0  0  0
  6 11  1  0  0  0
  6 12  1  0  0  0
M  END
> <minimizedAffinity>
-9.14262

> <CNNscore>
0.5413676500

> <CNNaffinity>
7.2561645508

> <CNN_VS>
3.9282526970

> <CNNaffinity_variance>
0.1086617112

$$$$
[H]c1nc(N([H])[H])c2c(-c3c([H])c([H])c(Oc4c([H])c([H])c([H])c([H])c4[H])c([H])c3[H])c([H])n([C@]3([H])C([H])([H])C([H])([H])[C@]([H])(N4C([H])([H])C([H])([H])N(C([H])([H])[H])C([H])([H])C4([H])[H])C([H])([H])C3([H])[H])c2n1


 38 43  0  0  0  0  0  0  0  0999 V2000
  -19.0953   11.0321  -17.3119 N   0  0  0  0  0  0  0  0  0  0  0  0
  -19.7399   12.1926  -17.4354 C   0  0  0  0  0  0  0  0  0  0  0  0
  -19.3649   12.8454  -18.6021 C   0  0  0  0  0  0  0  0  0  0  0  0
  -18.4429   12.0468  -19.2258 C   0  0  0  0  0  0  0  0  0  0  0  0
  -17.7066   12.1554  -20.3977 C   0  0  0  0  0  0  0  0  0  0  0  0
  -17.7957   13.2756  -21.2527 N   0  0  0  0  0  0  0  0  0  0  0  0
  -16.8501   11.1791  -20.7448 N   0  0  0  0  0  0  0  0  0  0  0  0
  -16.7126   10.1000  -19.9485 C   0  0  0  0  0  0  0  0  0  0  0  0
  -17.4213    9.9836  -18.8065 N   0  0  0  0  0  0  0  0  0  0  0  0
  -18.2939   10.9248  -18.4028 C   0  0  0  0  0  0  0  0  0  0  0  0
  -17.5043   14.2501  -20.9637 H   0  0  0  0  0  0  0  0  0  0  0  0
  -18.1601   13.2075  -22.2374 H   0  0  0  0  0  0  0  0  0  0  0  0
  -19.5578    8.1290  -14.4593 C   0  0  0  0  0  0  0  0  0  0  0  0
  -20.3463    7.8990  -15.7226 C   0  0  0  0  0  0  0  0  0  0  0  0
  -19.6763    8.6983  -16.8216 C   0  0  0  0  0  0  0  0  0  0  0  0
  -19.1387   10.0074  -16.2933 C   0  0  0  0  0  0  0  0  0  0  0  0
  -20.0009   10.4437  -15.1567 C   0  0  0  0  0  0  0  0  0  0  0  0
  -19.8713    9.5063  -13.9640 C   0  0  0  0  0  0  0  0  0  0  0  0
  -22.4440    5.7246  -12.1149 C   0  0  0  0  0  0  0  0  0  0  0  0
  -21.1031    5.2330  -11.9349 N   0  0  0  0  0  0  0  0  0  0  0  0
  -20.2433    6.2358  -11.3353 C   0  0  0  0  0  0  0  0  0  0  0  0
  -20.2528    7.4305  -12.2544 C   0  0  0  0  0  0  0  0  0  0  0  0
  -19.6696    7.0874  -13.5014 N   0  0  0  0  0  0  0  0  0  0  0  0
  -20.1425    5.8787  -14.1012 C   0  0  0  0  0  0  0  0  0  0  0  0
  -20.4731    4.7881  -13.1392 C   0  0  0  0  0  0  0  0  0  0  0  0
  -19.8815   14.1094  -19.1006 C   0  0  0  0  0  0  0  0  0  0  0  0
  -21.0495   14.2403  -19.8190 C   0  0  0  0  0  0  0  0  0  0  0  0
  -21.5125   15.4585  -20.2923 C   0  0  0  0  0  0  0  0  0  0  0  0
  -20.8104   16.6210  -20.0606 C   0  0  0  0  0  0  0  0  0  0  0  0
  -19.6372   16.5150  -19.3426 C   0  0  0  0  0  0  0  0  0  0  0  0
  -19.1804   15.3041  -18.8743 C   0  0  0  0  0  0  0  0  0  0  0  0
  -21.2224   17.8592  -20.5066 O   0  0  0  0  0  0  0  0  0  0  0  0
  -21.8226   18.0989  -21.7215 C   0  0  0  0  0  0  0  0  0  0  0  0
  -23.1716   18.2794  -21.8643 C   0  0  0  0  0  0  0  0  0  0  0  0
  -23.6899   18.5150  -23.1159 C   0  0  0  0  0  0  0  0  0  0  0  0
  -22.9203   18.5810  -24.2538 C   0  0  0  0  0  0  0  0  0  0  0  0
  -21.5576   18.3939  -24.0751 C   0  0  0  0  0  0  0  0  0  0  0  0
  -21.0196   18.1575  -22.8335 C   0  0  0  0  0  0  0  0  0  0  0  0
 19 20  1  0  0  0
 20 21  1  0  0  0
 21 22  1  0  0  0
 22 23  1  0  0  0
 23 24  1  0  0  0
 24 25  1  0  0  0
 23 13  1  0  0  0
 13 14  1  0  0  0
 14 15  1  0  0  0
 15 16  1  0  0  0
 16 17  1  0  0  0
 17 18  1  0  0  0
 16  1  1  0  0  0
  1  2  1  0  0  0
  2  3  2  0  0  0
  3 26  1  0  0  0
 26 27  2  0  0  0
 27 28  1  0  0  0
 28 29  2  0  0  0
 29 32  1  0  0  0
 32 33  1  0  0  0
 33 34  2  0  0  0
 34 35  1  0  0  0
 35 36  2  0  0  0
 36 37  1  0  0  0
 37 38  2  0  0  0
 29 30  1  0  0  0
 30 31  2  0  0  0
  3  4  1  0  0  0
  4  5  2  0  0  0
  5  6  1  0  0  0
  5  7  1  0  0  0
  7  8  2  0  0  0
  8  9  1  0  0  0
  9 10  2  0  0  0
 25 20  1  0  0  0
 18 13  1  0  0  0
 10  1  1  0  0  0
 31 26  1  0  0  0
 10  4  1  0  0  0
 38 33  1  0  0  0
  6 11  1  0  0  0
  6 12  1  0  0  0
M  END
> <minimizedAffinity>
-7.90594

> <CNNscore>
0.5274831057

> <CNNaffinity>
7.0333123207

> <CNN_VS>
3.7099533081

> <CNNaffinity_variance>
0.1387848407

$$$$
[H]c1nc(N([H])[H])c2c(-c3c([H])c([H])c(Oc4c([H])c([H])c([H])c([H])c4[H])c([H])c3[H])c([H])n([C@]3([H])C([H])([H])C([H])([H])[C@]([H])(N4C([H])([H])C([H])([H])N(C([H])([H])[H])C([H])([H])C4([H])[H])C([H])([H])C3([H])[H])c2n1


 38 43  0  0  0  0  0  0  0  0999 V2000
  -19.8071   13.4723  -18.9172 N   0  0  0  0  0  0  0  0  0  0  0  0
  -20.3173   13.0692  -17.7532 C   0  0  0  0  0  0  0  0  0  0  0  0
  -19.7388   11.8742  -17.3466 C   0  0  0  0  0  0  0  0  0  0  0  0
  -18.8290   11.5250  -18.3094 C   0  0  0  0  0  0  0  0  0  0  0  0
  -17.9625   10.4532  -18.4759 C   0  0  0  0  0  0  0  0  0  0  0  0
  -17.8768    9.3913  -17.5492 N   0  0  0  0  0  0  0  0  0  0  0  0
  -17.1782   10.3876  -19.5659 N   0  0  0  0  0  0  0  0  0  0  0  0
  -17.2411   11.3660  -20.4911 C   0  0  0  0  0  0  0  0  0  0  0  0
  -18.0801   12.4119  -20.3414 N   0  0  0  0  0  0  0  0  0  0  0  0
  -18.8906   12.5363  -19.2747 C   0  0  0  0  0  0  0  0  0  0  0  0
  -18.6774    8.7301  -17.3495 H   0  0  0  0  0  0  0  0  0  0  0  0
  -17.0036    9.1920  -16.9970 H   0  0  0  0  0  0  0  0  0  0  0  0
  -20.6083   16.9338  -20.9558 C   0  0  0  0  0  0  0  0  0  0  0  0
  -19.6290   17.0861  -19.8206 C   0  0  0  0  0  0  0  0  0  0  0  0
  -19.0403   15.7167  -19.5491 C   0  0  0  0  0  0  0  0  0  0  0  0
  -20.0740   14.6316  -19.7384 C   0  0  0  0  0  0  0  0  0  0  0  0
  -21.4145   15.1992  -19.4125 C   0  0  0  0  0  0  0  0  0  0  0  0
  -21.8333   16.2601  -20.4211 C   0  0  0  0  0  0  0  0  0  0  0  0
  -23.4757   18.9893  -23.6316 C   0  0  0  0  0  0  0  0  0  0  0  0
  -22.3825   19.8601  -23.2874 N   0  0  0  0  0  0  0  0  0  0  0  0
  -21.1133   19.3314  -23.7503 C   0  0  0  0  0  0  0  0  0  0  0  0
  -20.9388   17.9792  -23.1076 C   0  0  0  0  0  0  0  0  0  0  0  0
  -20.8312   18.1218  -21.7001 N   0  0  0  0  0  0  0  0  0  0  0  0
  -21.8194   18.9468  -21.0780 C   0  0  0  0  0  0  0  0  0  0  0  0
  -22.2566   20.1210  -21.8870 C   0  0  0  0  0  0  0  0  0  0  0  0
  -20.0041   11.1502  -16.1143 C   0  0  0  0  0  0  0  0  0  0  0  0
  -20.7507    9.9951  -16.0391 C   0  0  0  0  0  0  0  0  0  0  0  0
  -20.9973    9.3315  -14.8470 C   0  0  0  0  0  0  0  0  0  0  0  0
  -20.4955    9.8071  -13.6553 C   0  0  0  0  0  0  0  0  0  0  0  0
  -19.7442   10.9629  -13.7054 C   0  0  0  0  0  0  0  0  0  0  0  0
  -19.5013   11.6192  -14.8906 C   0  0  0  0  0  0  0  0  0  0  0  0
  -20.7084    9.1894  -12.4408 O   0  0  0  0  0  0  0  0  0  0  0  0
  -19.8058    9.1621  -11.4023 C   0  0  0  0  0  0  0  0  0  0  0  0
  -19.9643    9.8939  -10.2569 C   0  0  0  0  0  0  0  0  0  0  0  0
  -19.0140    9.8079   -9.2668 C   0  0  0  0  0  0  0  0  0  0  0  0
  -17.8930    9.0165   -9.3602 C   0  0  0  0  0  0  0  0  0  0  0  0
  -17.7621    8.2879  -10.5332 C   0  0  0  0  0  0  0  0  0  0  0  0
  -18.6999    8.3594  -11.5343 C   0  0  0  0  0  0  0  0  0  0  0  0
 19 20  1  0  0  0
 20 21  1  0  0  0
 21 22  1  0  0  0
 22 23  1  0  0  0
 23 24  1  0  0  0
 24 25  1  0  0  0
 23 13  1  0  0  0
 13 14  1  0  0  0
 14 15  1  0  0  0
 15 16  1  0  0  0
 16 17  1  0  0  0
 17 18  1  0  0  0
 16  1  1  0  0  0
  1  2  1  0  0  0
  2  3  2  0  0  0
  3 26  1  0  0  0
 26 27  2  0  0  0
 27 28  1  0  0  0
 28 29  2  0  0  0
 29 32  1  0  0  0
 32 33  1  0  0  0
 33 34  2  0  0  0
 34 35  1  0  0  0
 35 36  2  0  0  0
 36 37  1  0  0  0
 37 38  2  0  0  0
 29 30  1  0  0  0
 30 31  2  0  0  0
  3  4  1  0  0  0
  4  5  2  0  0  0
  5  6  1  0  0  0
  5  7  1  0  0  0
  7  8  2  0  0  0
  8  9  1  0  0  0
  9 10  2  0  0  0
 25 20  1  0  0  0
 18 13  1  0  0  0
 10  1  1  0  0  0
 31 26  1  0  0  0
 10  4  1  0  0  0
 38 33  1  0  0  0
  6 11  1  0  0  0
  6 12  1  0  0  0
M  END
> <minimizedAffinity>
-8.28994

> <CNNscore>
0.4619376659

> <CNNaffinity>
6.9281730652

> <CNN_VS>
3.2003841400

> <CNNaffinity_variance>
0.1029394269

$$$$
[H]c1nc(N([H])[H])c2c(-c3c([H])c([H])c(Oc4c([H])c([H])c([H])c([H])c4[H])c([H])c3[H])c([H])n([C@]3([H])C([H])([H])C([H])([H])[C@]([H])(N4C([H])([H])C([H])([H])N(C([H])([H])[H])C([H])([H])C4([H])[H])C([H])([H])C3([H])[H])c2n1


 38 43  0  0  0  0  0  0  0  0999 V2000
  -19.3452   13.4296  -18.5639 N   0  0  0  0  0  0  0  0  0  0  0  0
  -19.9977   13.0589  -17.4619 C   0  0  0  0  0  0  0  0  0  0  0  0
  -19.6433   11.7698  -17.0868 C   0  0  0  0  0  0  0  0  0  0  0  0
  -18.7286   11.3258  -18.0050 C   0  0  0  0  0  0  0  0  0  0  0  0
  -18.0282   10.1392  -18.1744 C   0  0  0  0  0  0  0  0  0  0  0  0
  -18.1778    9.0354  -17.3067 N   0  0  0  0  0  0  0  0  0  0  0  0
  -17.1838   10.0008  -19.2113 N   0  0  0  0  0  0  0  0  0  0  0  0
  -17.0248   11.0186  -20.0808 C   0  0  0  0  0  0  0  0  0  0  0  0
  -17.7008   12.1761  -19.9278 N   0  0  0  0  0  0  0  0  0  0  0  0
  -18.5602   12.3778  -18.9124 C   0  0  0  0  0  0  0  0  0  0  0  0
  -19.0838    8.5008  -17.1995 H   0  0  0  0  0  0  0  0  0  0  0  0
  -17.3899    8.6749  -16.7096 H   0  0  0  0  0  0  0  0  0  0  0  0
  -19.1065   16.8034  -20.8747 C   0  0  0  0  0  0  0  0  0  0  0  0
  -18.7906   15.5213  -21.6010 C   0  0  0  0  0  0  0  0  0  0  0  0
  -19.4325   14.3931  -20.8196 C   0  0  0  0  0  0  0  0  0  0  0  0
  -19.3670   14.6533  -19.3331 C   0  0  0  0  0  0  0  0  0  0  0  0
  -18.1461   15.4630  -19.0522 C   0  0  0  0  0  0  0  0  0  0  0  0
  -18.2524   16.8606  -19.6468 C   0  0  0  0  0  0  0  0  0  0  0  0
  -21.0710   20.7057  -21.5958 C   0  0  0  0  0  0  0  0  0  0  0  0
  -19.9078   20.5564  -22.4303 N   0  0  0  0  0  0  0  0  0  0  0  0
  -20.0404   19.4291  -23.3336 C   0  0  0  0  0  0  0  0  0  0  0  0
  -20.2439   18.2030  -22.4809 C   0  0  0  0  0  0  0  0  0  0  0  0
  -19.0873   17.9613  -21.6956 N   0  0  0  0  0  0  0  0  0  0  0  0
  -18.5636   19.0893  -20.9902 C   0  0  0  0  0  0  0  0  0  0  0  0
  -18.6839   20.3904  -21.7093 C   0  0  0  0  0  0  0  0  0  0  0  0
  -20.1093   11.0407  -15.9188 C   0  0  0  0  0  0  0  0  0  0  0  0
  -19.5802   11.1816  -14.6548 C   0  0  0  0  0  0  0  0  0  0  0  0
  -20.0374   10.4637  -13.5603 C   0  0  0  0  0  0  0  0  0  0  0  0
  -21.0656    9.5557  -13.6889 C   0  0  0  0  0  0  0  0  0  0  0  0
  -21.6119    9.3973  -14.9456 C   0  0  0  0  0  0  0  0  0  0  0  0
  -21.1555   10.1117  -16.0300 C   0  0  0  0  0  0  0  0  0  0  0  0
  -21.5607    8.8146  -12.6365 O   0  0  0  0  0  0  0  0  0  0  0  0
  -20.8350    8.4346  -11.5307 C   0  0  0  0  0  0  0  0  0  0  0  0
  -19.8923    7.4431  -11.5618 C   0  0  0  0  0  0  0  0  0  0  0  0
  -19.2114    7.1260  -10.4102 C   0  0  0  0  0  0  0  0  0  0  0  0
  -19.4248    7.7565   -9.2066 C   0  0  0  0  0  0  0  0  0  0  0  0
  -20.3864    8.7561   -9.2087 C   0  0  0  0  0  0  0  0  0  0  0  0
  -21.0777    9.0885  -10.3482 C   0  0  0  0  0  0  0  0  0  0  0  0
 19 20  1  0  0  0
 20 21  1  0  0  0
 21 22  1  0  0  0
 22 23  1  0  0  0
 23 24  1  0  0  0
 24 25  1  0  0  0
 23 13  1  0  0  0
 13 14  1  0  0  0
 14 15  1  0  0  0
 15 16  1  0  0  0
 16 17  1  0  0  0
 17 18  1  0  0  0
 16  1  1  0  0  0
  1  2  1  0  0  0
  2  3  2  0  0  0
  3 26  1  0  0  0
 26 27  2  0  0  0
 27 28  1  0  0  0
 28 29  2  0  0  0
 29 32  1  0  0  0
 32 33  1  0  0  0
 33 34  2  0  0  0
 34 35  1  0  0  0
 35 36  2  0  0  0
 36 37  1  0  0  0
 37 38  2  0  0  0
 29 30  1  0  0  0
 30 31  2  0  0  0
  3  4  1  0  0  0
  4  5  2  0  0  0
  5  6  1  0  0  0
  5  7  1  0  0  0
  7  8  2  0  0  0
  8  9  1  0  0  0
  9 10  2  0  0  0
 25 20  1  0  0  0
 18 13  1  0  0  0
 10  1  1  0  0  0
 31 26  1  0  0  0
 10  4  1  0  0  0
 38 33  1  0  0  0
  6 11  1  0  0  0
  6 12  1  0  0  0
M  END
> <minimizedAffinity>
-7.82639

> <CNNscore>
0.4584846795

> <CNNaffinity>
7.0123357773

> <CNN_VS>
3.2150485516

> <CNNaffinity_variance>
0.1464583129

$$$$
[H]c1nc(N([H])[H])c2c(-c3c([H])c([H])c(Oc4c([H])c([H])c([H])c([H])c4[H])c([H])c3[H])c([H])n([C@]3([H])C([H])([H])C([H])([H])[C@]([H])(N4C([H])([H])C([H])([H])N(C([H])([H])[H])C([H])([H])C4([H])[H])C([H])([H])C3([H])[H])c2n1


 38 43  0  0  0  0  0  0  0  0999 V2000
  -19.3127   13.3842  -18.8875 N   0  0  0  0  0  0  0  0  0  0  0  0
  -20.0303   13.1061  -17.7988 C   0  0  0  0  0  0  0  0  0  0  0  0
  -19.7137   11.8473  -17.3056 C   0  0  0  0  0  0  0  0  0  0  0  0
  -18.7550   11.3254  -18.1335 C   0  0  0  0  0  0  0  0  0  0  0  0
  -18.0614   10.1234  -18.1707 C   0  0  0  0  0  0  0  0  0  0  0  0
  -18.2731    9.0920  -17.2299 N   0  0  0  0  0  0  0  0  0  0  0  0
  -17.1624    9.8975  -19.1443 N   0  0  0  0  0  0  0  0  0  0  0  0
  -16.9423   10.8430  -20.0796 C   0  0  0  0  0  0  0  0  0  0  0  0
  -17.6110   12.0145  -20.0551 N   0  0  0  0  0  0  0  0  0  0  0  0
  -18.5230   12.3020  -19.1087 C   0  0  0  0  0  0  0  0  0  0  0  0
  -19.1903    8.5749  -17.1330 H   0  0  0  0  0  0  0  0  0  0  0  0
  -17.5244    8.7726  -16.5632 H   0  0  0  0  0  0  0  0  0  0  0  0
  -19.2773   16.8608  -21.0536 C   0  0  0  0  0  0  0  0  0  0  0  0
  -18.4913   16.9134  -19.7689 C   0  0  0  0  0  0  0  0  0  0  0  0
  -18.1501   15.4860  -19.3927 C   0  0  0  0  0  0  0  0  0  0  0  0
  -19.2762   14.5443  -19.7492 C   0  0  0  0  0  0  0  0  0  0  0  0
  -20.5617   15.2959  -19.6601 C   0  0  0  0  0  0  0  0  0  0  0  0
  -20.6554   16.3734  -20.7317 C   0  0  0  0  0  0  0  0  0  0  0  0
  -21.0569   20.8757  -21.6202 C   0  0  0  0  0  0  0  0  0  0  0  0
  -19.9061   20.7018  -22.4672 N   0  0  0  0  0  0  0  0  0  0  0  0
  -20.0967   19.6157  -23.4098 C   0  0  0  0  0  0  0  0  0  0  0  0
  -20.3544   18.3704  -22.6006 C   0  0  0  0  0  0  0  0  0  0  0  0
  -19.2068   18.0457  -21.8321 N   0  0  0  0  0  0  0  0  0  0  0  0
  -18.6266   19.1211  -21.0899 C   0  0  0  0  0  0  0  0  0  0  0  0
  -18.6881   20.4517  -21.7607 C   0  0  0  0  0  0  0  0  0  0  0  0
  -20.2533   11.2154  -16.1129 C   0  0  0  0  0  0  0  0  0  0  0  0
  -19.7737   11.4268  -14.8390 C   0  0  0  0  0  0  0  0  0  0  0  0
  -20.3010   10.8008  -13.7199 C   0  0  0  0  0  0  0  0  0  0  0  0
  -21.3531    9.9185  -13.8324 C   0  0  0  0  0  0  0  0  0  0  0  0
  -21.8508    9.6907  -15.0987 C   0  0  0  0  0  0  0  0  0  0  0  0
  -21.3249   10.3139  -16.2074 C   0  0  0  0  0  0  0  0  0  0  0  0
  -21.9173    9.2675  -12.7554 O   0  0  0  0  0  0  0  0  0  0  0  0
  -23.2305    9.3881  -12.3620 C   0  0  0  0  0  0  0  0  0  0  0  0
  -24.1245    8.3537  -12.4200 C   0  0  0  0  0  0  0  0  0  0  0  0
  -25.4194    8.5597  -12.0062 C   0  0  0  0  0  0  0  0  0  0  0  0
  -25.8788    9.7651  -11.5290 C   0  0  0  0  0  0  0  0  0  0  0  0
  -24.9484   10.7927  -11.4831 C   0  0  0  0  0  0  0  0  0  0  0  0
  -23.6499   10.6078  -11.8916 C   0  0  0  0  0  0  0  0  0  0  0  0
 19 20  1  0  0  0
 20 21  1  0  0  0
 21 22  1  0  0  0
 22 23  1  0  0  0
 23 24  1  0  0  0
 24 25  1  0  0  0
 23 13  1  0  0  0
 13 14  1  0  0  0
 14 15  1  0  0  0
 15 16  1  0  0  0
 16 17  1  0  0  0
 17 18  1  0  0  0
 16  1  1  0  0  0
  1  2  1  0  0  0
  2  3  2  0  0  0
  3 26  1  0  0  0
 26 27  2  0  0  0
 27 28  1  0  0  0
 28 29  2  0  0  0
 29 32  1  0  0  0
 32 33  1  0  0  0
 33 34  2  0  0  0
 34 35  1  0  0  0
 35 36  2  0  0  0
 36 37  1  0  0  0
 37 38  2  0  0  0
 29 30  1  0  0  0
 30 31  2  0  0  0
  3  4  1  0  0  0
  4  5  2  0  0  0
  5  6  1  0  0  0
  5  7  1  0  0  0
  7  8  2  0  0  0
  8  9  1  0  0  0
  9 10  2  0  0  0
 25 20  1  0  0  0
 18 13  1  0  0  0
 10  1  1  0  0  0
 31 26  1  0  0  0
 10  4  1  0  0  0
 38 33  1  0  0  0
  6 11  1  0  0  0
  6 12  1  0  0  0
M  END
> <minimizedAffinity>
-7.34026

> <CNNscore>
0.4257889092

> <CNNaffinity>
6.8341231346

> <CNN_VS>
2.9098937511

> <CNNaffinity_variance>
0.0838477239

$$$$
[H]c1nc(N([H])[H])c2c(-c3c([H])c([H])c(Oc4c([H])c([H])c([H])c([H])c4[H])c([H])c3[H])c([H])n([C@]3([H])C([H])([H])C([H])([H])[C@]([H])(N4C([H])([H])C([H])([H])N(C([H])([H])[H])C([H])([H])C4([H])[H])C([H])([H])C3([H])[H])c2n1


 38 43  0  0  0  0  0  0  0  0999 V2000
  -18.9808   11.1449  -17.4899 N   0  0  0  0  0  0  0  0  0  0  0  0
  -19.5800   12.3261  -17.6431 C   0  0  0  0  0  0  0  0  0  0  0  0
  -19.1960   12.9249  -18.8356 C   0  0  0  0  0  0  0  0  0  0  0  0
  -18.3159   12.0697  -19.4447 C   0  0  0  0  0  0  0  0  0  0  0  0
  -17.5930   12.1102  -20.6291 C   0  0  0  0  0  0  0  0  0  0  0  0
  -17.6493   13.2047  -21.5193 N   0  0  0  0  0  0  0  0  0  0  0  0
  -16.7814   11.0891  -20.9550 N   0  0  0  0  0  0  0  0  0  0  0  0
  -16.6759   10.0318  -20.1255 C   0  0  0  0  0  0  0  0  0  0  0  0
  -17.3721    9.9813  -18.9709 N   0  0  0  0  0  0  0  0  0  0  0  0
  -18.2002   10.9698  -18.5871 C   0  0  0  0  0  0  0  0  0  0  0  0
  -17.3149   14.1755  -21.2666 H   0  0  0  0  0  0  0  0  0  0  0  0
  -18.0304   13.1196  -22.4964 H   0  0  0  0  0  0  0  0  0  0  0  0
  -19.5114    8.3150  -14.5762 C   0  0  0  0  0  0  0  0  0  0  0  0
  -20.1414    7.9762  -15.9026 C   0  0  0  0  0  0  0  0  0  0  0  0
  -19.4242    8.7895  -16.9608 C   0  0  0  0  0  0  0  0  0  0  0  0
  -19.0506   10.1564  -16.4375 C   0  0  0  0  0  0  0  0  0  0  0  0
  -20.0598   10.5590  -15.4153 C   0  0  0  0  0  0  0  0  0  0  0  0
  -19.9833    9.6780  -14.1760 C   0  0  0  0  0  0  0  0  0  0  0  0
  -22.4080    6.2264  -11.9580 C   0  0  0  0  0  0  0  0  0  0  0  0
  -21.1086    5.6128  -11.8753 N   0  0  0  0  0  0  0  0  0  0  0  0
  -20.1131    6.5380  -11.3679 C   0  0  0  0  0  0  0  0  0  0  0  0
  -20.0863    7.7156  -12.3085 C   0  0  0  0  0  0  0  0  0  0  0  0
  -19.6412    7.3018  -13.5905 N   0  0  0  0  0  0  0  0  0  0  0  0
  -20.2719    6.1352  -14.1248 C   0  0  0  0  0  0  0  0  0  0  0  0
  -20.6230    5.0939  -13.1163 C   0  0  0  0  0  0  0  0  0  0  0  0
  -19.6686   14.1919  -19.3686 C   0  0  0  0  0  0  0  0  0  0  0  0
  -18.9127   15.3424  -19.4187 C   0  0  0  0  0  0  0  0  0  0  0  0
  -19.3939   16.5410  -19.9225 C   0  0  0  0  0  0  0  0  0  0  0  0
  -20.6796   16.6395  -20.4077 C   0  0  0  0  0  0  0  0  0  0  0  0
  -21.4561   15.5000  -20.3682 C   0  0  0  0  0  0  0  0  0  0  0  0
  -20.9751   14.3117  -19.8674 C   0  0  0  0  0  0  0  0  0  0  0  0
  -21.2112   17.8043  -20.9201 O   0  0  0  0  0  0  0  0  0  0  0  0
  -20.5008   18.9607  -21.1478 C   0  0  0  0  0  0  0  0  0  0  0  0
  -20.3616   19.9475  -20.2100 C   0  0  0  0  0  0  0  0  0  0  0  0
  -19.6337   21.0721  -20.5198 C   0  0  0  0  0  0  0  0  0  0  0  0
  -19.0262   21.2687  -21.7381 C   0  0  0  0  0  0  0  0  0  0  0  0
  -19.1864   20.2505  -22.6661 C   0  0  0  0  0  0  0  0  0  0  0  0
  -19.9094   19.1189  -22.3766 C   0  0  0  0  0  0  0  0  0  0  0  0
 19 20  1  0  0  0
 20 21  1  0  0  0
 21 22  1  0  0  0
 22 23  1  0  0  0
 23 24  1  0  0  0
 24 25  1  0  0  0
 23 13  1  0  0  0
 13 14  1  0  0  0
 14 15  1  0  0  0
 15 16  1  0  0  0
 16 17  1  0  0  0
 17 18  1  0  0  0
 16  1  1  0  0  0
  1  2  1  0  0  0
  2  3  2  0  0  0
  3 26  1  0  0  0
 26 27  2  0  0  0
 27 28  1  0  0  0
 28 29  2  0  0  0
 29 32  1  0  0  0
 32 33  1  0  0  0
 33 34  2  0  0  0
 34 35  1  0  0  0
 35 36  2  0  0  0
 36 37  1  0  0  0
 37 38  2  0  0  0
 29 30  1  0  0  0
 30 31  2  0  0  0
  3  4  1  0  0  0
  4  5  2  0  0  0
  5  6  1  0  0  0
  5  7  1  0  0  0
  7  8  2  0  0  0
  8  9  1  0  0  0
  9 10  2  0  0  0
 25 20  1  0  0  0
 18 13  1  0  0  0
 10  1  1  0  0  0
 31 26  1  0  0  0
 10  4  1  0  0  0
 38 33  1  0  0  0
  6 11  1  0  0  0
  6 12  1  0  0  0
M  END
> <minimizedAffinity>
-7.73585

> <CNNscore>
0.4245852232

> <CNNaffinity>
6.9738755226

> <CNN_VS>
2.9610044956

> <CNNaffinity_variance>
0.1714069545

$$$$
[H]c1nc(N([H])[H])c2c(-c3c([H])c([H])c(Oc4c([H])c([H])c([H])c([H])c4[H])c([H])c3[H])c([H])n([C@]3([H])C([H])([H])C([H])([H])[C@]([H])(N4C([H])([H])C([H])([H])N(C([H])([H])[H])C([H])([H])C4([H])[H])C([H])([H])C3([H])[H])c2n1


 38 43  0  0  0  0  0  0  0  0999 V2000
  -19.9018   13.8505  -19.3758 N   0  0  0  0  0  0  0  0  0  0  0  0
  -20.3431   13.3568  -18.2186 C   0  0  0  0  0  0  0  0  0  0  0  0
  -19.6430   12.2092  -17.8709 C   0  0  0  0  0  0  0  0  0  0  0  0
  -18.7268   11.9859  -18.8647 C   0  0  0  0  0  0  0  0  0  0  0  0
  -17.7654   11.0102  -19.0905 C   0  0  0  0  0  0  0  0  0  0  0  0
  -17.5561    9.9280  -18.2082 N   0  0  0  0  0  0  0  0  0  0  0  0
  -17.0046   11.0616  -20.1977 N   0  0  0  0  0  0  0  0  0  0  0  0
  -17.1832   12.0630  -21.0823 C   0  0  0  0  0  0  0  0  0  0  0  0
  -18.1151   13.0163  -20.8748 N   0  0  0  0  0  0  0  0  0  0  0  0
  -18.9083   13.0218  -19.7881 C   0  0  0  0  0  0  0  0  0  0  0  0
  -18.2844    9.1852  -18.0186 H   0  0  0  0  0  0  0  0  0  0  0  0
  -16.6549    9.7939  -17.6819 H   0  0  0  0  0  0  0  0  0  0  0  0
  -21.0624   17.2972  -21.2608 C   0  0  0  0  0  0  0  0  0  0  0  0
  -20.0211   17.4882  -20.1883 C   0  0  0  0  0  0  0  0  0  0  0  0
  -19.3274   16.1553  -19.9940 C   0  0  0  0  0  0  0  0  0  0  0  0
  -20.2984   15.0081  -20.1453 C   0  0  0  0  0  0  0  0  0  0  0  0
  -21.6482   15.4769  -19.7168 C   0  0  0  0  0  0  0  0  0  0  0  0
  -22.2022   16.5305  -20.6660 C   0  0  0  0  0  0  0  0  0  0  0  0
  -19.4335   20.6506  -23.6500 C   0  0  0  0  0  0  0  0  0  0  0  0
  -20.8719   20.6946  -23.6206 N   0  0  0  0  0  0  0  0  0  0  0  0
  -21.3730   20.8608  -22.2694 C   0  0  0  0  0  0  0  0  0  0  0  0
  -20.8600   19.6952  -21.4629 C   0  0  0  0  0  0  0  0  0  0  0  0
  -21.4119   18.4846  -21.9557 N   0  0  0  0  0  0  0  0  0  0  0  0
  -21.3438   18.2970  -23.3714 C   0  0  0  0  0  0  0  0  0  0  0  0
  -21.5073   19.5409  -24.1779 C   0  0  0  0  0  0  0  0  0  0  0  0
  -19.8080   11.4176  -16.6630 C   0  0  0  0  0  0  0  0  0  0  0  0
  -20.1870   10.0934  -16.6496 C   0  0  0  0  0  0  0  0  0  0  0  0
  -20.3480    9.3656  -15.4805 C   0  0  0  0  0  0  0  0  0  0  0  0
  -20.1312    9.9461  -14.2500 C   0  0  0  0  0  0  0  0  0  0  0  0
  -19.7504   11.2720  -14.2379 C   0  0  0  0  0  0  0  0  0  0  0  0
  -19.5916   11.9914  -15.4005 C   0  0  0  0  0  0  0  0  0  0  0  0
  -20.2758    9.2718  -13.0558 O   0  0  0  0  0  0  0  0  0  0  0  0
  -19.9581    9.7841  -11.8186 C   0  0  0  0  0  0  0  0  0  0  0  0
  -18.7731    9.5240  -11.1855 C   0  0  0  0  0  0  0  0  0  0  0  0
  -18.5354   10.0772   -9.9494 C   0  0  0  0  0  0  0  0  0  0  0  0
  -19.4334   10.8908   -9.2988 C   0  0  0  0  0  0  0  0  0  0  0  0
  -20.6242   11.1346   -9.9669 C   0  0  0  0  0  0  0  0  0  0  0  0
  -20.8814   10.5919  -11.2024 C   0  0  0  0  0  0  0  0  0  0  0  0
 19 20  1  0  0  0
 20 21  1  0  0  0
 21 22  1  0  0  0
 22 23  1  0  0  0
 23 24  1  0  0  0
 24 25  1  0  0  0
 23 13  1  0  0  0
 13 14  1  0  0  0
 14 15  1  0  0  0
 15 16  1  0  0  0
 16 17  1  0  0  0
 17 18  1  0  0  0
 16  1  1  0  0  0
  1  2  1  0  0  0
  2  3  2  0  0  0
  3 26  1  0  0  0
 26 27  2  0  0  0
 27 28  1  0  0  0
 28 29  2  0  0  0
 29 32  1  0  0  0
 32 33  1  0  0  0
 33 34  2  0  0  0
 34 35  1  0  0  0
 35 36  2  0  0  0
 36 37  1  0  0  0
 37 38  2  0  0  0
 29 30  1  0  0  0
 30 31  2  0  0  0
  3  4  1  0  0  0
  4  5  2  0  0  0
  5  6  1  0  0  0
  5  7  1  0  0  0
  7  8  2  0  0  0
  8  9  1  0  0  0
  9 10  2  0  0  0
 25 20  1  0  0  0
 18 13  1  0  0  0
 10  1  1  0  0  0
 31 26  1  0  0  0
 10  4  1  0  0  0
 38 33  1  0  0  0
  6 11  1  0  0  0
  6 12  1  0  0  0
M  END
> <minimizedAffinity>
-8.15484

> <CNNscore>
0.4164738357

> <CNNaffinity>
6.8334846497

> <CNN_VS>
2.8459675312

> <CNNaffinity_variance>
0.1082956791

$$$$
[H]c1nc(N([H])[H])c2c(-c3c([H])c([H])c(Oc4c([H])c([H])c([H])c([H])c4[H])c([H])c3[H])c([H])n([C@]3([H])C([H])([H])C([H])([H])[C@]([H])(N4C([H])([H])C([H])([H])N(C([H])([H])[H])C([H])([H])C4([H])[H])C([H])([H])C3([H])[H])c2n1


 38 43  0  0  0  0  0  0  0  0999 V2000
  -19.5058   11.8484  -17.0851 N   0  0  0  0  0  0  0  0  0  0  0  0
  -20.1231   13.0132  -17.2845 C   0  0  0  0  0  0  0  0  0  0  0  0
  -19.7049   13.5981  -18.4724 C   0  0  0  0  0  0  0  0  0  0  0  0
  -18.7836   12.7510  -19.0298 C   0  0  0  0  0  0  0  0  0  0  0  0
  -18.0153   12.7853  -20.1856 C   0  0  0  0  0  0  0  0  0  0  0  0
  -18.0594   13.8616  -21.0984 N   0  0  0  0  0  0  0  0  0  0  0  0
  -17.1703   11.7762  -20.4596 N   0  0  0  0  0  0  0  0  0  0  0  0
  -17.0755   10.7370  -19.6062 C   0  0  0  0  0  0  0  0  0  0  0  0
  -17.8157   10.6928  -18.4791 N   0  0  0  0  0  0  0  0  0  0  0  0
  -18.6789   11.6700  -18.1472 C   0  0  0  0  0  0  0  0  0  0  0  0
  -17.7557   14.8440  -20.8515 H   0  0  0  0  0  0  0  0  0  0  0  0
  -18.3996   13.7502  -22.0878 H   0  0  0  0  0  0  0  0  0  0  0  0
  -20.0913    9.1855  -14.0280 C   0  0  0  0  0  0  0  0  0  0  0  0
  -21.1471    9.1496  -15.1026 C   0  0  0  0  0  0  0  0  0  0  0  0
  -20.5334    9.7424  -16.3546 C   0  0  0  0  0  0  0  0  0  0  0  0
  -19.5964   10.8783  -16.0172 C   0  0  0  0  0  0  0  0  0  0  0  0
  -20.0811   11.5298  -14.7658 C   0  0  0  0  0  0  0  0  0  0  0  0
  -19.9515   10.6022  -13.5655 C   0  0  0  0  0  0  0  0  0  0  0  0
  -17.9331    6.6415  -11.1162 C   0  0  0  0  0  0  0  0  0  0  0  0
  -19.3563    6.5466  -10.9226 N   0  0  0  0  0  0  0  0  0  0  0  0
  -20.0198    6.0111  -12.0962 C   0  0  0  0  0  0  0  0  0  0  0  0
  -19.6997    6.9353  -13.2432 C   0  0  0  0  0  0  0  0  0  0  0  0
  -20.2631    8.2156  -13.0058 N   0  0  0  0  0  0  0  0  0  0  0  0
  -20.0206    8.7754  -11.7127 C   0  0  0  0  0  0  0  0  0  0  0  0
  -19.9897    7.7866  -10.5965 C   0  0  0  0  0  0  0  0  0  0  0  0
  -20.1825   14.8444  -19.0479 C   0  0  0  0  0  0  0  0  0  0  0  0
  -19.5862   16.0698  -18.8473 C   0  0  0  0  0  0  0  0  0  0  0  0
  -20.0710   17.2452  -19.4001 C   0  0  0  0  0  0  0  0  0  0  0  0
  -21.1970   17.2423  -20.1941 C   0  0  0  0  0  0  0  0  0  0  0  0
  -21.8117   16.0263  -20.4097 C   0  0  0  0  0  0  0  0  0  0  0  0
  -21.3277   14.8613  -19.8593 C   0  0  0  0  0  0  0  0  0  0  0  0
  -21.7238   18.3794  -20.7697 O   0  0  0  0  0  0  0  0  0  0  0  0
  -22.1648   18.4718  -22.0700 C   0  0  0  0  0  0  0  0  0  0  0  0
  -23.3820   17.9996  -22.4802 C   0  0  0  0  0  0  0  0  0  0  0  0
  -23.7454   18.1331  -23.7995 C   0  0  0  0  0  0  0  0  0  0  0  0
  -22.9446   18.7231  -24.7493 C   0  0  0  0  0  0  0  0  0  0  0  0
  -21.7181   19.1911  -24.3015 C   0  0  0  0  0  0  0  0  0  0  0  0
  -21.3359   19.0678  -22.9879 C   0  0  0  0  0  0  0  0  0  0  0  0
 19 20  1  0  0  0
 20 21  1  0  0  0
 21 22  1  0  0  0
 22 23  1  0  0  0
 23 24  1  0  0  0
 24 25  1  0  0  0
 23 13  1  0  0  0
 13 14  1  0  0  0
 14 15  1  0  0  0
 15 16  1  0  0  0
 16 17  1  0  0  0
 17 18  1  0  0  0
 16  1  1  0  0  0
  1  2  1  0  0  0
  2  3  2  0  0  0
  3 26  1  0  0  0
 26 27  2  0  0  0
 27 28  1  0  0  0
 28 29  2  0  0  0
 29 32  1  0  0  0
 32 33  1  0  0  0
 33 34  2  0  0  0
 34 35  1  0  0  0
 35 36  2  0  0  0
 36 37  1  0  0  0
 37 38  2  0  0  0
 29 30  1  0  0  0
 30 31  2  0  0  0
  3  4  1  0  0  0
  4  5  2  0  0  0
  5  6  1  0  0  0
  5  7  1  0  0  0
  7  8  2  0  0  0
  8  9  1  0  0  0
  9 10  2  0  0  0
 25 20  1  0  0  0
 18 13  1  0  0  0
 10  1  1  0  0  0
 31 26  1  0  0  0
 10  4  1  0  0  0
 38 33  1  0  0  0
  6 11  1  0  0  0
  6 12  1  0  0  0
M  END
> <minimizedAffinity>
-7.61526

> <CNNscore>
0.3320416808

> <CNNaffinity>
6.8249297142

> <CNN_VS>
2.2661612034

> <CNNaffinity_variance>
0.1251545697

$$$$
[H]/C(C(=O)N(c1c([H])c([H])c2nc(N([H])c3c([H])c(N([H])C(=O)c4c([H])c([H])c([H])c(C(F)(F)F)c4[H])c([H])c([H])c3C([H])([H])[H])c3c([H])nc([H])n3c2c1[H])C([H])([H])[H])=C(/[H])C([H])([H])N(C([H])([H])[H])C([H])([H])[H]


 46 50  0  0  0  0  0  0  0  0999 V2000
  -19.7946   11.7951  -17.1966 C   0  0  0  0  0  0  0  0  0  0  0  0
  -20.3855   12.9051  -17.7428 C   0  0  0  0  0  0  0  0  0  0  0  0
  -20.0050   13.4107  -18.9732 C   0  0  0  0  0  0  0  0  0  0  0  0
  -19.0041   12.8204  -19.7122 C   0  0  0  0  0  0  0  0  0  0  0  0
  -18.5775   13.3085  -20.8955 N   0  0  0  0  0  0  0  0  0  0  0  0
  -17.5558   12.7222  -21.5914 C   0  0  0  0  0  0  0  0  0  0  0  0
  -16.9515   11.5857  -21.0480 C   0  0  0  0  0  0  0  0  0  0  0  0
  -15.9102   10.7879  -21.5541 C   0  0  0  0  0  0  0  0  0  0  0  0
  -15.7368    9.8133  -20.6215 N   0  0  0  0  0  0  0  0  0  0  0  0
  -16.6235   10.0115  -19.6118 C   0  0  0  0  0  0  0  0  0  0  0  0
  -17.3723   11.1080  -19.8873 N   0  0  0  0  0  0  0  0  0  0  0  0
  -18.3701   11.6707  -19.1895 C   0  0  0  0  0  0  0  0  0  0  0  0
  -18.8011   11.2346  -17.9705 C   0  0  0  0  0  0  0  0  0  0  0  0
  -20.8828   10.0687  -15.8963 C   0  0  0  0  0  0  0  0  0  0  0  0
  -22.1110   10.0523  -16.1405 O   0  0  0  0  0  0  0  0  0  0  0  0
  -20.0698   11.2185  -15.9452 N   0  0  0  0  0  0  0  0  0  0  0  0
  -19.5612   11.8128  -14.7389 C   0  0  0  0  0  0  0  0  0  0  0  0
  -20.9405    7.7360  -15.1544 C   0  0  0  0  0  0  0  0  0  0  0  0
  -20.2485    8.7799  -15.5390 C   0  0  0  0  0  0  0  0  0  0  0  0
  -20.4797    6.4033  -14.7689 C   0  0  0  0  0  0  0  0  0  0  0  0
  -22.1382    5.5853  -16.3301 C   0  0  0  0  0  0  0  0  0  0  0  0
  -20.9058    5.3800  -15.6528 N   0  0  0  0  0  0  0  0  0  0  0  0
  -20.6692    4.0591  -15.1092 C   0  0  0  0  0  0  0  0  0  0  0  0
  -16.9641   13.2589  -22.7350 N   0  0  0  0  0  0  0  0  0  0  0  0
  -16.4101   12.5816  -23.3677 H   0  0  0  0  0  0  0  0  0  0  0  0
  -17.0253   14.6215  -23.1370 C   0  0  0  0  0  0  0  0  0  0  0  0
  -18.2057   15.3384  -23.1637 C   0  0  0  0  0  0  0  0  0  0  0  0
  -18.2011   16.5939  -23.7291 C   0  0  0  0  0  0  0  0  0  0  0  0
  -17.0535   17.1246  -24.2433 C   0  0  0  0  0  0  0  0  0  0  0  0
  -15.8416   16.4062  -24.2185 C   0  0  0  0  0  0  0  0  0  0  0  0
  -15.8629   15.1524  -23.6578 C   0  0  0  0  0  0  0  0  0  0  0  0
  -14.5932   14.3636  -23.6151 C   0  0  0  0  0  0  0  0  0  0  0  0
  -19.4907   17.2533  -23.8443 N   0  0  0  0  0  0  0  0  0  0  0  0
  -19.8429   18.1091  -22.7244 C   0  0  0  0  0  0  0  0  0  0  0  0
  -19.0204   18.1764  -21.7984 O   0  0  0  0  0  0  0  0  0  0  0  0
  -20.0785   17.0997  -24.6560 H   0  0  0  0  0  0  0  0  0  0  0  0
  -21.0993   18.8052  -22.7597 C   0  0  0  0  0  0  0  0  0  0  0  0
  -21.6531   19.5777  -21.7895 C   0  0  0  0  0  0  0  0  0  0  0  0
  -22.8492   20.2652  -21.8949 C   0  0  0  0  0  0  0  0  0  0  0  0
  -23.5188   20.1386  -23.1021 C   0  0  0  0  0  0  0  0  0  0  0  0
  -23.0317   19.3739  -24.1426 C   0  0  0  0  0  0  0  0  0  0  0  0
  -21.8329   18.7177  -23.9640 C   0  0  0  0  0  0  0  0  0  0  0  0
  -23.7222   19.2445  -25.4512 C   0  0  0  0  0  0  0  0  0  0  0  0
  -24.9999   19.7587  -25.3347 F   0  0  0  0  0  0  0  0  0  0  0  0
  -23.0344   19.9161  -26.4440 F   0  0  0  0  0  0  0  0  0  0  0  0
  -23.8441   17.9235  -25.8339 F   0  0  0  0  0  0  0  0  0  0  0  0
 21 22  1  0  0  0
 22 23  1  0  0  0
 22 20  1  0  0  0
 20 18  1  0  0  0
 18 19  2  0  0  0
 19 14  1  0  0  0
 14 15  2  0  0  0
 14 16  1  0  0  0
 16 17  1  0  0  0
 16  1  1  0  0  0
  1  2  2  0  0  0
  2  3  1  0  0  0
  3  4  2  0  0  0
  4  5  1  0  0  0
  5  6  2  0  0  0
  6 24  1  0  0  0
 24 26  1  0  0  0
 26 27  2  0  0  0
 27 28  1  0  0  0
 28 33  1  0  0  0
 33 34  1  0  0  0
 34 35  2  0  0  0
 34 37  1  0  0  0
 37 38  2  0  0  0
 38 39  1  0  0  0
 39 40  2  0  0  0
 40 41  1  0  0  0
 41 42  2  0  0  0
 41 43  1  0  0  0
 43 44  1  0  0  0
 43 45  1  0  0  0
 43 46  1  0  0  0
 28 29  2  0  0  0
 29 30  1  0  0  0
 30 31  2  0  0  0
 31 32  1  0  0  0
  6  7  1  0  0  0
  7  8  2  0  0  0
  8  9  1  0  0  0
  9 10  2  0  0  0
 10 11  1  0  0  0
 11 12  1  0  0  0
 12 13  2  0  0  0
 13  1  1  0  0  0
 12  4  1  0  0  0
 31 26  1  0  0  0
 11  7  1  0  0  0
 42 37  1  0  0  0
 24 25  1  0  0  0
 33 36  1  0  0  0
M  END
> <minimizedAffinity>
-10.03212

> <CNNscore>
0.8678166270

> <CNNaffinity>
8.2535104752

> <CNN_VS>
7.1625337601

> <CNNaffinity_variance>
0.0722698867

$$$$
[H]/C(C(=O)N(c1c([H])c([H])c2nc(N([H])c3c([H])c(N([H])C(=O)c4c([H])c([H])c([H])c(C(F)(F)F)c4[H])c([H])c([H])c3C([H])([H])[H])c3c([H])nc([H])n3c2c1[H])C([H])([H])[H])=C(/[H])C([H])([H])N(C([H])([H])[H])C([H])([H])[H]


 46 50  0  0  0  0  0  0  0  0999 V2000
  -20.4882   12.4875  -17.1157 C   0  0  0  0  0  0  0  0  0  0  0  0
  -20.9149   13.5915  -17.8076 C   0  0  0  0  0  0  0  0  0  0  0  0
  -20.3658   13.9545  -19.0246 C   0  0  0  0  0  0  0  0  0  0  0  0
  -19.3541   13.2202  -19.6020 C   0  0  0  0  0  0  0  0  0  0  0  0
  -18.7657   13.5660  -20.7659 N   0  0  0  0  0  0  0  0  0  0  0  0
  -17.7373   12.8376  -21.2986 C   0  0  0  0  0  0  0  0  0  0  0  0
  -17.2995   11.7059  -20.6061 C   0  0  0  0  0  0  0  0  0  0  0  0
  -16.2906   10.7824  -20.9321 C   0  0  0  0  0  0  0  0  0  0  0  0
  -16.3042    9.8815  -19.9133 N   0  0  0  0  0  0  0  0  0  0  0  0
  -17.2669   10.2405  -19.0249 C   0  0  0  0  0  0  0  0  0  0  0  0
  -17.8788   11.3680  -19.4646 N   0  0  0  0  0  0  0  0  0  0  0  0
  -18.8859   12.0710  -18.9257 C   0  0  0  0  0  0  0  0  0  0  0  0
  -19.4774   11.7804  -17.7308 C   0  0  0  0  0  0  0  0  0  0  0  0
  -20.6953   10.7115  -15.4853 C   0  0  0  0  0  0  0  0  0  0  0  0
  -21.2456    9.7120  -16.0017 O   0  0  0  0  0  0  0  0  0  0  0  0
  -20.9416   12.0471  -15.8609 N   0  0  0  0  0  0  0  0  0  0  0  0
  -21.6730   12.9325  -14.9961 C   0  0  0  0  0  0  0  0  0  0  0  0
  -20.0546    9.9886  -13.2354 C   0  0  0  0  0  0  0  0  0  0  0  0
  -19.7112   10.4592  -14.4089 C   0  0  0  0  0  0  0  0  0  0  0  0
  -19.2215    9.6852  -12.0732 C   0  0  0  0  0  0  0  0  0  0  0  0
  -18.4501   10.4885   -9.9245 C   0  0  0  0  0  0  0  0  0  0  0  0
  -19.2971   10.6657  -11.0518 N   0  0  0  0  0  0  0  0  0  0  0  0
  -20.6616   11.0720  -10.7887 C   0  0  0  0  0  0  0  0  0  0  0  0
  -16.9851   13.2212  -22.4090 N   0  0  0  0  0  0  0  0  0  0  0  0
  -16.3144   12.4861  -22.8281 H   0  0  0  0  0  0  0  0  0  0  0  0
  -17.0235   14.4980  -23.0339 C   0  0  0  0  0  0  0  0  0  0  0  0
  -18.1654   15.2741  -23.0740 C   0  0  0  0  0  0  0  0  0  0  0  0
  -18.1603   16.4138  -23.8468 C   0  0  0  0  0  0  0  0  0  0  0  0
  -17.0482   16.7761  -24.5504 C   0  0  0  0  0  0  0  0  0  0  0  0
  -15.8753   15.9962  -24.5148 C   0  0  0  0  0  0  0  0  0  0  0  0
  -15.8974   14.8584  -23.7455 C   0  0  0  0  0  0  0  0  0  0  0  0
  -14.6684   14.0086  -23.6855 C   0  0  0  0  0  0  0  0  0  0  0  0
  -19.4226   17.1254  -23.9534 N   0  0  0  0  0  0  0  0  0  0  0  0
  -19.7292   17.9994  -22.8340 C   0  0  0  0  0  0  0  0  0  0  0  0
  -18.8964   18.0360  -21.9155 O   0  0  0  0  0  0  0  0  0  0  0  0
  -20.0234   16.9932  -24.7593 H   0  0  0  0  0  0  0  0  0  0  0  0
  -20.9559   18.7466  -22.8612 C   0  0  0  0  0  0  0  0  0  0  0  0
  -21.4139   19.6333  -21.9399 C   0  0  0  0  0  0  0  0  0  0  0  0
  -22.5855   20.3625  -22.0395 C   0  0  0  0  0  0  0  0  0  0  0  0
  -23.3367   20.1524  -23.1856 C   0  0  0  0  0  0  0  0  0  0  0  0
  -22.9495   19.2698  -24.1734 C   0  0  0  0  0  0  0  0  0  0  0  0
  -21.7692   18.5787  -24.0043 C   0  0  0  0  0  0  0  0  0  0  0  0
  -23.7282   19.0482  -25.4186 C   0  0  0  0  0  0  0  0  0  0  0  0
  -23.0518   19.6251  -26.4769 F   0  0  0  0  0  0  0  0  0  0  0  0
  -23.9100   17.6991  -25.6570 F   0  0  0  0  0  0  0  0  0  0  0  0
  -24.9727   19.6426  -25.3532 F   0  0  0  0  0  0  0  0  0  0  0  0
 21 22  1  0  0  0
 22 23  1  0  0  0
 22 20  1  0  0  0
 20 18  1  0  0  0
 18 19  2  0  0  0
 19 14  1  0  0  0
 14 15  2  0  0  0
 14 16  1  0  0  0
 16 17  1  0  0  0
 16  1  1  0  0  0
  1  2  2  0  0  0
  2  3  1  0  0  0
  3  4  2  0  0  0
  4  5  1  0  0  0
  5  6  2  0  0  0
  6 24  1  0  0  0
 24 26  1  0  0  0
 26 27  2  0  0  0
 27 28  1  0  0  0
 28 33  1  0  0  0
 33 34  1  0  0  0
 34 35  2  0  0  0
 34 37  1  0  0  0
 37 38  2  0  0  0
 38 39  1  0  0  0
 39 40  2  0  0  0
 40 41  1  0  0  0
 41 42  2  0  0  0
 41 43  1  0  0  0
 43 44  1  0  0  0
 43 45  1  0  0  0
 43 46  1  0  0  0
 28 29  2  0  0  0
 29 30  1  0  0  0
 30 31  2  0  0  0
 31 32  1  0  0  0
  6  7  1  0  0  0
  7  8  2  0  0  0
  8  9  1  0  0  0
  9 10  2  0  0  0
 10 11  1  0  0  0
 11 12  1  0  0  0
 12 13  2  0  0  0
 13  1  1  0  0  0
 12  4  1  0  0  0
 31 26  1  0  0  0
 11  7  1  0  0  0
 42 37  1  0  0  0
 24 25  1  0  0  0
 33 36  1  0  0  0
M  END
> <minimizedAffinity>
-9.92812

> <CNNscore>
0.8446387053

> <CNNaffinity>
8.1221647263

> <CNN_VS>
6.8602948189

> <CNNaffinity_variance>
0.0499298982

$$$$
[H]/C(C(=O)N(c1c([H])c([H])c2nc(N([H])c3c([H])c(N([H])C(=O)c4c([H])c([H])c([H])c(C(F)(F)F)c4[H])c([H])c([H])c3C([H])([H])[H])c3c([H])nc([H])n3c2c1[H])C([H])([H])[H])=C(/[H])C([H])([H])N(C([H])([H])[H])C([H])([H])[H]


 46 50  0  0  0  0  0  0  0  0999 V2000
  -19.3821   11.5142  -17.9344 C   0  0  0  0  0  0  0  0  0  0  0  0
  -20.0046   12.6434  -18.4001 C   0  0  0  0  0  0  0  0  0  0  0  0
  -19.6064   13.2760  -19.5644 C   0  0  0  0  0  0  0  0  0  0  0  0
  -18.5549   12.7996  -20.3152 C   0  0  0  0  0  0  0  0  0  0  0  0
  -18.1114   13.4123  -21.4324 N   0  0  0  0  0  0  0  0  0  0  0  0
  -17.0407   12.9369  -22.1392 C   0  0  0  0  0  0  0  0  0  0  0  0
  -16.4034   11.7822  -21.6783 C   0  0  0  0  0  0  0  0  0  0  0  0
  -15.3098   11.0796  -22.2146 C   0  0  0  0  0  0  0  0  0  0  0  0
  -15.1234   10.0316  -21.3680 N   0  0  0  0  0  0  0  0  0  0  0  0
  -16.0520   10.0979  -20.3790 C   0  0  0  0  0  0  0  0  0  0  0  0
  -16.8409   11.1821  -20.5824 N   0  0  0  0  0  0  0  0  0  0  0  0
  -17.8866   11.6348  -19.8750 C   0  0  0  0  0  0  0  0  0  0  0  0
  -18.3381   11.0704  -18.7176 C   0  0  0  0  0  0  0  0  0  0  0  0
  -20.4599   11.4461  -15.7690 C   0  0  0  0  0  0  0  0  0  0  0  0
  -20.0850   12.4140  -15.0683 O   0  0  0  0  0  0  0  0  0  0  0  0
  -19.6726   10.8136  -16.7517 N   0  0  0  0  0  0  0  0  0  0  0  0
  -19.1456    9.4935  -16.5359 C   0  0  0  0  0  0  0  0  0  0  0  0
  -22.6428   11.4712  -14.6601 C   0  0  0  0  0  0  0  0  0  0  0  0
  -21.8341   10.9435  -15.5456 C   0  0  0  0  0  0  0  0  0  0  0  0
  -24.0144   11.1023  -14.3145 C   0  0  0  0  0  0  0  0  0  0  0  0
  -23.2553   10.6653  -12.0584 C   0  0  0  0  0  0  0  0  0  0  0  0
  -24.1091   10.3151  -13.1391 N   0  0  0  0  0  0  0  0  0  0  0  0
  -24.2416    8.9048  -13.4389 C   0  0  0  0  0  0  0  0  0  0  0  0
  -16.4360   13.6014  -23.2064 N   0  0  0  0  0  0  0  0  0  0  0  0
  -15.8102   13.0144  -23.8618 H   0  0  0  0  0  0  0  0  0  0  0  0
  -16.5706   14.9856  -23.5027 C   0  0  0  0  0  0  0  0  0  0  0  0
  -17.7261   15.6953  -23.2396 C   0  0  0  0  0  0  0  0  0  0  0  0
  -17.8309   16.9830  -23.7158 C   0  0  0  0  0  0  0  0  0  0  0  0
  -16.8119   17.5514  -24.4240 C   0  0  0  0  0  0  0  0  0  0  0  0
  -15.6260   16.8406  -24.6956 C   0  0  0  0  0  0  0  0  0  0  0  0
  -15.5384   15.5547  -24.2205 C   0  0  0  0  0  0  0  0  0  0  0  0
  -14.2928   14.7729  -24.4910 C   0  0  0  0  0  0  0  0  0  0  0  0
  -19.1120   17.6400  -23.5197 N   0  0  0  0  0  0  0  0  0  0  0  0
  -19.1733   18.5331  -22.3755 C   0  0  0  0  0  0  0  0  0  0  0  0
  -18.1425   18.6299  -21.6924 O   0  0  0  0  0  0  0  0  0  0  0  0
  -19.8861   17.4604  -24.1494 H   0  0  0  0  0  0  0  0  0  0  0  0
  -20.4021   19.2294  -22.1119 C   0  0  0  0  0  0  0  0  0  0  0  0
  -20.6747   20.5453  -22.3087 C   0  0  0  0  0  0  0  0  0  0  0  0
  -21.8951   21.1559  -22.0802 C   0  0  0  0  0  0  0  0  0  0  0  0
  -22.9079   20.3336  -21.6114 C   0  0  0  0  0  0  0  0  0  0  0  0
  -22.7209   18.9858  -21.3813 C   0  0  0  0  0  0  0  0  0  0  0  0
  -21.4770   18.4479  -21.6323 C   0  0  0  0  0  0  0  0  0  0  0  0
  -23.7992   18.0840  -20.9017 C   0  0  0  0  0  0  0  0  0  0  0  0
  -23.2711   17.2153  -19.9651 F   0  0  0  0  0  0  0  0  0  0  0  0
  -24.8365   18.8048  -20.3412 F   0  0  0  0  0  0  0  0  0  0  0  0
  -24.3158   17.3179  -21.9276 F   0  0  0  0  0  0  0  0  0  0  0  0
 21 22  1  0  0  0
 22 23  1  0  0  0
 22 20  1  0  0  0
 20 18  1  0  0  0
 18 19  2  0  0  0
 19 14  1  0  0  0
 14 15  2  0  0  0
 14 16  1  0  0  0
 16 17  1  0  0  0
 16  1  1  0  0  0
  1  2  2  0  0  0
  2  3  1  0  0  0
  3  4  2  0  0  0
  4  5  1  0  0  0
  5  6  2  0  0  0
  6 24  1  0  0  0
 24 26  1  0  0  0
 26 27  2  0  0  0
 27 28  1  0  0  0
 28 33  1  0  0  0
 33 34  1  0  0  0
 34 35  2  0  0  0
 34 37  1  0  0  0
 37 38  2  0  0  0
 38 39  1  0  0  0
 39 40  2  0  0  0
 40 41  1  0  0  0
 41 42  2  0  0  0
 41 43  1  0  0  0
 43 44  1  0  0  0
 43 45  1  0  0  0
 43 46  1  0  0  0
 28 29  2  0  0  0
 29 30  1  0  0  0
 30 31  2  0  0  0
 31 32  1  0  0  0
  6  7  1  0  0  0
  7  8  2  0  0  0
  8  9  1  0  0  0
  9 10  2  0  0  0
 10 11  1  0  0  0
 11 12  1  0  0  0
 12 13  2  0  0  0
 13  1  1  0  0  0
 12  4  1  0  0  0
 31 26  1  0  0  0
 11  7  1  0  0  0
 42 37  1  0  0  0
 24 25  1  0  0  0
 33 36  1  0  0  0
M  END
> <minimizedAffinity>
-8.65026

> <CNNscore>
0.8086420894

> <CNNaffinity>
8.2739849091

> <CNN_VS>
6.6906924248

> <CNNaffinity_variance>
0.0630135760

$$$$
[H]/C(C(=O)N(c1c([H])c([H])c2nc(N([H])c3c([H])c(N([H])C(=O)c4c([H])c([H])c([H])c(C(F)(F)F)c4[H])c([H])c([H])c3C([H])([H])[H])c3c([H])nc([H])n3c2c1[H])C([H])([H])[H])=C(/[H])C([H])([H])N(C([H])([H])[H])C([H])([H])[H]


 46 50  0  0  0  0  0  0  0  0999 V2000
  -19.9130   11.7461  -17.3247 C   0  0  0  0  0  0  0  0  0  0  0  0
  -20.4538   12.8899  -17.8527 C   0  0  0  0  0  0  0  0  0  0  0  0
  -20.0079   13.4320  -19.0451 C   0  0  0  0  0  0  0  0  0  0  0  0
  -18.9890   12.8457  -19.7623 C   0  0  0  0  0  0  0  0  0  0  0  0
  -18.4995   13.3673  -20.9062 N   0  0  0  0  0  0  0  0  0  0  0  0
  -17.4616   12.7829  -21.5794 C   0  0  0  0  0  0  0  0  0  0  0  0
  -16.9079   11.6124  -21.0547 C   0  0  0  0  0  0  0  0  0  0  0  0
  -15.8636   10.8090  -21.5456 C   0  0  0  0  0  0  0  0  0  0  0  0
  -15.7537    9.7961  -20.6446 N   0  0  0  0  0  0  0  0  0  0  0  0
  -16.6795    9.9778  -19.6674 C   0  0  0  0  0  0  0  0  0  0  0  0
  -17.3903   11.1018  -19.9325 N   0  0  0  0  0  0  0  0  0  0  0  0
  -18.4049   11.6620  -19.2574 C   0  0  0  0  0  0  0  0  0  0  0  0
  -18.8992   11.1910  -18.0760 C   0  0  0  0  0  0  0  0  0  0  0  0
  -21.4316   11.5434  -15.4517 C   0  0  0  0  0  0  0  0  0  0  0  0
  -21.5850   12.6555  -14.8966 O   0  0  0  0  0  0  0  0  0  0  0  0
  -20.2562   11.1298  -16.1096 N   0  0  0  0  0  0  0  0  0  0  0  0
  -19.4048   10.1245  -15.5339 C   0  0  0  0  0  0  0  0  0  0  0  0
  -23.4719   10.6247  -14.4576 C   0  0  0  0  0  0  0  0  0  0  0  0
  -22.5772   10.6069  -15.4145 C   0  0  0  0  0  0  0  0  0  0  0  0
  -24.6509    9.7814  -14.2687 C   0  0  0  0  0  0  0  0  0  0  0  0
  -26.3436   10.4175  -12.6601 C   0  0  0  0  0  0  0  0  0  0  0  0
  -25.8303   10.5142  -13.9818 N   0  0  0  0  0  0  0  0  0  0  0  0
  -26.7897   10.4450  -15.0639 C   0  0  0  0  0  0  0  0  0  0  0  0
  -16.8080   13.3476  -22.6748 N   0  0  0  0  0  0  0  0  0  0  0  0
  -16.1580   12.7028  -23.2473 H   0  0  0  0  0  0  0  0  0  0  0  0
  -16.9217   14.6998  -23.0997 C   0  0  0  0  0  0  0  0  0  0  0  0
  -18.1228   15.3820  -23.1016 C   0  0  0  0  0  0  0  0  0  0  0  0
  -18.1728   16.6258  -23.6901 C   0  0  0  0  0  0  0  0  0  0  0  0
  -17.0581   17.1791  -24.2508 C   0  0  0  0  0  0  0  0  0  0  0  0
  -15.8256   16.4963  -24.2518 C   0  0  0  0  0  0  0  0  0  0  0  0
  -15.7924   15.2535  -23.6676 C   0  0  0  0  0  0  0  0  0  0  0  0
  -14.4995   14.5024  -23.6513 C   0  0  0  0  0  0  0  0  0  0  0  0
  -19.4842   17.2457  -23.7756 N   0  0  0  0  0  0  0  0  0  0  0  0
  -19.8076   18.1475  -22.6836 C   0  0  0  0  0  0  0  0  0  0  0  0
  -18.9452   18.2820  -21.8022 O   0  0  0  0  0  0  0  0  0  0  0  0
  -20.1046   17.0367  -24.5499 H   0  0  0  0  0  0  0  0  0  0  0  0
  -21.0830   18.8088  -22.6928 C   0  0  0  0  0  0  0  0  0  0  0  0
  -21.6530   19.5371  -21.6981 C   0  0  0  0  0  0  0  0  0  0  0  0
  -22.8683   20.1936  -21.7780 C   0  0  0  0  0  0  0  0  0  0  0  0
  -23.5406   20.0833  -22.9854 C   0  0  0  0  0  0  0  0  0  0  0  0
  -23.0379   19.3630  -24.0499 C   0  0  0  0  0  0  0  0  0  0  0  0
  -21.8203   18.7358  -23.8958 C   0  0  0  0  0  0  0  0  0  0  0  0
  -23.7314   19.2523  -25.3586 C   0  0  0  0  0  0  0  0  0  0  0  0
  -23.0127   19.9570  -26.3058 F   0  0  0  0  0  0  0  0  0  0  0  0
  -23.8511   17.9314  -25.7468 F   0  0  0  0  0  0  0  0  0  0  0  0
  -24.9976   19.8008  -25.3115 F   0  0  0  0  0  0  0  0  0  0  0  0
 21 22  1  0  0  0
 22 23  1  0  0  0
 22 20  1  0  0  0
 20 18  1  0  0  0
 18 19  2  0  0  0
 19 14  1  0  0  0
 14 15  2  0  0  0
 14 16  1  0  0  0
 16 17  1  0  0  0
 16  1  1  0  0  0
  1  2  2  0  0  0
  2  3  1  0  0  0
  3  4  2  0  0  0
  4  5  1  0  0  0
  5  6  2  0  0  0
  6 24  1  0  0  0
 24 26  1  0  0  0
 26 27  2  0  0  0
 27 28  1  0  0  0
 28 33  1  0  0  0
 33 34  1  0  0  0
 34 35  2  0  0  0
 34 37  1  0  0  0
 37 38  2  0  0  0
 38 39  1  0  0  0
 39 40  2  0  0  0
 40 41  1  0  0  0
 41 42  2  0  0  0
 41 43  1  0  0  0
 43 44  1  0  0  0
 43 45  1  0  0  0
 43 46  1  0  0  0
 28 29  2  0  0  0
 29 30  1  0  0  0
 30 31  2  0  0  0
 31 32  1  0  0  0
  6  7  1  0  0  0
  7  8  2  0  0  0
  8  9  1  0  0  0
  9 10  2  0  0  0
 10 11  1  0  0  0
 11 12  1  0  0  0
 12 13  2  0  0  0
 13  1  1  0  0  0
 12  4  1  0  0  0
 31 26  1  0  0  0
 11  7  1  0  0  0
 42 37  1  0  0  0
 24 25  1  0  0  0
 33 36  1  0  0  0
M  END
> <minimizedAffinity>
-9.48882

> <CNNscore>
0.7837153673

> <CNNaffinity>
8.0230560303

> <CNN_VS>
6.2877922058

> <CNNaffinity_variance>
0.0906339139

$$$$
[H]/C(C(=O)N(c1c([H])c([H])c2nc(N([H])c3c([H])c(N([H])C(=O)c4c([H])c([H])c([H])c(C(F)(F)F)c4[H])c([H])c([H])c3C([H])([H])[H])c3c([H])nc([H])n3c2c1[H])C([H])([H])[H])=C(/[H])C([H])([H])N(C([H])([H])[H])C([H])([H])[H]


 46 50  0  0  0  0  0  0  0  0999 V2000
  -20.4880   12.5496  -17.2217 C   0  0  0  0  0  0  0  0  0  0  0  0
  -20.9232   13.6274  -17.9486 C   0  0  0  0  0  0  0  0  0  0  0  0
  -20.3653   13.9654  -19.1689 C   0  0  0  0  0  0  0  0  0  0  0  0
  -19.3358   13.2312  -19.7142 C   0  0  0  0  0  0  0  0  0  0  0  0
  -18.7391   13.5540  -20.8804 N   0  0  0  0  0  0  0  0  0  0  0  0
  -17.6935   12.8273  -21.3810 C   0  0  0  0  0  0  0  0  0  0  0  0
  -17.2467   11.7220  -20.6525 C   0  0  0  0  0  0  0  0  0  0  0  0
  -16.2201   10.8056  -20.9414 C   0  0  0  0  0  0  0  0  0  0  0  0
  -16.2321    9.9329  -19.8983 N   0  0  0  0  0  0  0  0  0  0  0  0
  -17.2106   10.3013  -19.0311 C   0  0  0  0  0  0  0  0  0  0  0  0
  -17.8343   11.4066  -19.5088 N   0  0  0  0  0  0  0  0  0  0  0  0
  -18.8583   12.1085  -19.0010 C   0  0  0  0  0  0  0  0  0  0  0  0
  -19.4594   11.8416  -17.8054 C   0  0  0  0  0  0  0  0  0  0  0  0
  -20.7129   10.8075  -15.5574 C   0  0  0  0  0  0  0  0  0  0  0  0
  -21.2669    9.8013  -16.0562 O   0  0  0  0  0  0  0  0  0  0  0  0
  -20.9494   12.1369  -15.9604 N   0  0  0  0  0  0  0  0  0  0  0  0
  -21.6793   13.0435  -15.1165 C   0  0  0  0  0  0  0  0  0  0  0  0
  -20.0779   10.0717  -13.3100 C   0  0  0  0  0  0  0  0  0  0  0  0
  -19.7349   10.5707  -14.4718 C   0  0  0  0  0  0  0  0  0  0  0  0
  -19.2504    9.7778  -12.1414 C   0  0  0  0  0  0  0  0  0  0  0  0
  -19.5726    7.4243  -12.6049 C   0  0  0  0  0  0  0  0  0  0  0  0
  -18.7208    8.4626  -12.1399 N   0  0  0  0  0  0  0  0  0  0  0  0
  -17.9465    8.1899  -10.9473 C   0  0  0  0  0  0  0  0  0  0  0  0
  -16.9341   13.1919  -22.4930 N   0  0  0  0  0  0  0  0  0  0  0  0
  -16.2862   12.4388  -22.9160 H   0  0  0  0  0  0  0  0  0  0  0  0
  -16.9377   14.4707  -23.1146 C   0  0  0  0  0  0  0  0  0  0  0  0
  -18.0412   15.3016  -23.1036 C   0  0  0  0  0  0  0  0  0  0  0  0
  -18.0146   16.4419  -23.8751 C   0  0  0  0  0  0  0  0  0  0  0  0
  -16.9185   16.7516  -24.6271 C   0  0  0  0  0  0  0  0  0  0  0  0
  -15.7845   15.9154  -24.6440 C   0  0  0  0  0  0  0  0  0  0  0  0
  -15.8280   14.7779  -23.8752 C   0  0  0  0  0  0  0  0  0  0  0  0
  -14.6405   13.8691  -23.8704 C   0  0  0  0  0  0  0  0  0  0  0  0
  -19.2442   17.2145  -23.9252 N   0  0  0  0  0  0  0  0  0  0  0  0
  -19.2759   18.3724  -23.0483 C   0  0  0  0  0  0  0  0  0  0  0  0
  -18.2675   18.5687  -22.3533 O   0  0  0  0  0  0  0  0  0  0  0  0
  -20.0058   16.9341  -24.5329 H   0  0  0  0  0  0  0  0  0  0  0  0
  -20.4528   19.1964  -23.0400 C   0  0  0  0  0  0  0  0  0  0  0  0
  -20.8581   20.0825  -23.9862 C   0  0  0  0  0  0  0  0  0  0  0  0
  -22.0291   20.8186  -23.9487 C   0  0  0  0  0  0  0  0  0  0  0  0
  -22.8390   20.6163  -22.8419 C   0  0  0  0  0  0  0  0  0  0  0  0
  -22.5063   19.7372  -21.8314 C   0  0  0  0  0  0  0  0  0  0  0  0
  -21.3232   19.0384  -21.9384 C   0  0  0  0  0  0  0  0  0  0  0  0
  -23.3713   19.4893  -20.6498 C   0  0  0  0  0  0  0  0  0  0  0  0
  -23.8323   20.7015  -20.1717 F   0  0  0  0  0  0  0  0  0  0  0  0
  -24.4400   18.6771  -20.9784 F   0  0  0  0  0  0  0  0  0  0  0  0
  -22.6720   18.8826  -19.6254 F   0  0  0  0  0  0  0  0  0  0  0  0
 21 22  1  0  0  0
 22 23  1  0  0  0
 22 20  1  0  0  0
 20 18  1  0  0  0
 18 19  2  0  0  0
 19 14  1  0  0  0
 14 15  2  0  0  0
 14 16  1  0  0  0
 16 17  1  0  0  0
 16  1  1  0  0  0
  1  2  2  0  0  0
  2  3  1  0  0  0
  3  4  2  0  0  0
  4  5  1  0  0  0
  5  6  2  0  0  0
  6 24  1  0  0  0
 24 26  1  0  0  0
 26 27  2  0  0  0
 27 28  1  0  0  0
 28 33  1  0  0  0
 33 34  1  0  0  0
 34 35  2  0  0  0
 34 37  1  0  0  0
 37 38  2  0  0  0
 38 39  1  0  0  0
 39 40  2  0  0  0
 40 41  1  0  0  0
 41 42  2  0  0  0
 41 43  1  0  0  0
 43 44  1  0  0  0
 43 45  1  0  0  0
 43 46  1  0  0  0
 28 29  2  0  0  0
 29 30  1  0  0  0
 30 31  2  0  0  0
 31 32  1  0  0  0
  6  7  1  0  0  0
  7  8  2  0  0  0
  8  9  1  0  0  0
  9 10  2  0  0  0
 10 11  1  0  0  0
 11 12  1  0  0  0
 12 13  2  0  0  0
 13  1  1  0  0  0
 12  4  1  0  0  0
 31 26  1  0  0  0
 11  7  1  0  0  0
 42 37  1  0  0  0
 24 25  1  0  0  0
 33 36  1  0  0  0
M  END
> <minimizedAffinity>
-8.98785

> <CNNscore>
0.6778627634

> <CNNaffinity>
8.0244016647

> <CNN_VS>
5.4394431114

> <CNNaffinity_variance>
0.0570889004

$$$$
[H]/C(C(=O)N(c1c([H])c([H])c2nc(N([H])c3c([H])c(N([H])C(=O)c4c([H])c([H])c([H])c(C(F)(F)F)c4[H])c([H])c([H])c3C([H])([H])[H])c3c([H])nc([H])n3c2c1[H])C([H])([H])[H])=C(/[H])C([H])([H])N(C([H])([H])[H])C([H])([H])[H]


 46 50  0  0  0  0  0  0  0  0999 V2000
  -20.0813   11.0421  -16.3531 C   0  0  0  0  0  0  0  0  0  0  0  0
  -20.7229   12.2182  -16.6441 C   0  0  0  0  0  0  0  0  0  0  0  0
  -20.4120   12.9680  -17.7646 C   0  0  0  0  0  0  0  0  0  0  0  0
  -19.4330   12.5672  -18.6462 C   0  0  0  0  0  0  0  0  0  0  0  0
  -19.0735   13.2920  -19.7259 N   0  0  0  0  0  0  0  0  0  0  0  0
  -18.0717   12.8872  -20.5654 C   0  0  0  0  0  0  0  0  0  0  0  0
  -17.4162   11.6862  -20.2829 C   0  0  0  0  0  0  0  0  0  0  0  0
  -16.3811   11.0375  -20.9791 C   0  0  0  0  0  0  0  0  0  0  0  0
  -16.1416    9.9046  -20.2657 N   0  0  0  0  0  0  0  0  0  0  0  0
  -16.9849    9.8716  -19.2014 C   0  0  0  0  0  0  0  0  0  0  0  0
  -17.7713   10.9762  -19.2234 N   0  0  0  0  0  0  0  0  0  0  0  0
  -18.7485   11.3581  -18.3879 C   0  0  0  0  0  0  0  0  0  0  0  0
  -19.1120   10.6771  -17.2627 C   0  0  0  0  0  0  0  0  0  0  0  0
  -21.0334    9.0388  -15.3858 C   0  0  0  0  0  0  0  0  0  0  0  0
  -22.2664    8.9979  -15.6014 O   0  0  0  0  0  0  0  0  0  0  0  0
  -20.2843   10.2221  -15.2304 N   0  0  0  0  0  0  0  0  0  0  0  0
  -19.7685   10.6035  -13.9438 C   0  0  0  0  0  0  0  0  0  0  0  0
  -20.8815    6.6616  -14.8191 C   0  0  0  0  0  0  0  0  0  0  0  0
  -20.3205    7.7446  -15.2976 C   0  0  0  0  0  0  0  0  0  0  0  0
  -20.3283    5.3177  -14.6613 C   0  0  0  0  0  0  0  0  0  0  0  0
  -21.4344    3.7697  -16.1571 C   0  0  0  0  0  0  0  0  0  0  0  0
  -21.2854    4.2874  -14.8420 N   0  0  0  0  0  0  0  0  0  0  0  0
  -22.5000    4.5370  -14.0947 C   0  0  0  0  0  0  0  0  0  0  0  0
  -17.5467   13.6572  -21.6034 N   0  0  0  0  0  0  0  0  0  0  0  0
  -17.5090   13.2043  -22.5829 H   0  0  0  0  0  0  0  0  0  0  0  0
  -17.0540   14.9855  -21.4814 C   0  0  0  0  0  0  0  0  0  0  0  0
  -17.3531   15.7952  -20.4030 C   0  0  0  0  0  0  0  0  0  0  0  0
  -16.9787   17.1195  -20.4500 C   0  0  0  0  0  0  0  0  0  0  0  0
  -16.3169   17.6207  -21.5335 C   0  0  0  0  0  0  0  0  0  0  0  0
  -16.0015   16.8049  -22.6382 C   0  0  0  0  0  0  0  0  0  0  0  0
  -16.3875   15.4879  -22.5804 C   0  0  0  0  0  0  0  0  0  0  0  0
  -16.0675   14.5948  -23.7363 C   0  0  0  0  0  0  0  0  0  0  0  0
  -17.4256   17.9547  -19.3482 N   0  0  0  0  0  0  0  0  0  0  0  0
  -18.8383   18.2929  -19.3702 C   0  0  0  0  0  0  0  0  0  0  0  0
  -19.5001   17.8467  -20.3196 O   0  0  0  0  0  0  0  0  0  0  0  0
  -16.7722   18.2658  -18.6381 H   0  0  0  0  0  0  0  0  0  0  0  0
  -19.3659   19.1106  -18.3133 C   0  0  0  0  0  0  0  0  0  0  0  0
  -19.8250   20.3863  -18.3946 C   0  0  0  0  0  0  0  0  0  0  0  0
  -20.3677   21.1132  -17.3499 C   0  0  0  0  0  0  0  0  0  0  0  0
  -20.4376   20.4619  -16.1281 C   0  0  0  0  0  0  0  0  0  0  0  0
  -19.9939   19.1669  -15.9526 C   0  0  0  0  0  0  0  0  0  0  0  0
  -19.4653   18.5058  -17.0403 C   0  0  0  0  0  0  0  0  0  0  0  0
  -20.0816   18.4442  -14.6580 C   0  0  0  0  0  0  0  0  0  0  0  0
  -20.0012   17.0855  -14.8989 F   0  0  0  0  0  0  0  0  0  0  0  0
  -19.0661   18.8305  -13.8040 F   0  0  0  0  0  0  0  0  0  0  0  0
  -21.2858   18.6788  -14.0247 F   0  0  0  0  0  0  0  0  0  0  0  0
 21 22  1  0  0  0
 22 23  1  0  0  0
 22 20  1  0  0  0
 20 18  1  0  0  0
 18 19  2  0  0  0
 19 14  1  0  0  0
 14 15  2  0  0  0
 14 16  1  0  0  0
 16 17  1  0  0  0
 16  1  1  0  0  0
  1  2  2  0  0  0
  2  3  1  0  0  0
  3  4  2  0  0  0
  4  5  1  0  0  0
  5  6  2  0  0  0
  6 24  1  0  0  0
 24 26  1  0  0  0
 26 27  2  0  0  0
 27 28  1  0  0  0
 28 33  1  0  0  0
 33 34  1  0  0  0
 34 35  2  0  0  0
 34 37  1  0  0  0
 37 38  2  0  0  0
 38 39  1  0  0  0
 39 40  2  0  0  0
 40 41  1  0  0  0
 41 42  2  0  0  0
 41 43  1  0  0  0
 43 44  1  0  0  0
 43 45  1  0  0  0
 43 46  1  0  0  0
 28 29  2  0  0  0
 29 30  1  0  0  0
 30 31  2  0  0  0
 31 32  1  0  0  0
  6  7  1  0  0  0
  7  8  2  0  0  0
  8  9  1  0  0  0
  9 10  2  0  0  0
 10 11  1  0  0  0
 11 12  1  0  0  0
 12 13  2  0  0  0
 13  1  1  0  0  0
 12  4  1  0  0  0
 31 26  1  0  0  0
 11  7  1  0  0  0
 42 37  1  0  0  0
 24 25  1  0  0  0
 33 36  1  0  0  0
M  END
> <minimizedAffinity>
-8.93837

> <CNNscore>
0.6411272883

> <CNNaffinity>
7.8567352295

> <CNN_VS>
5.0371675491

> <CNNaffinity_variance>
0.1352788508

$$$$
[H]/C(C(=O)N(c1c([H])c([H])c2nc(N([H])c3c([H])c(N([H])C(=O)c4c([H])c([H])c([H])c(C(F)(F)F)c4[H])c([H])c([H])c3C([H])([H])[H])c3c([H])nc([H])n3c2c1[H])C([H])([H])[H])=C(/[H])C([H])([H])N(C([H])([H])[H])C([H])([H])[H]


 46 50  0  0  0  0  0  0  0  0999 V2000
  -20.5703   12.6759  -17.2315 C   0  0  0  0  0  0  0  0  0  0  0  0
  -20.9756   13.7354  -18.0013 C   0  0  0  0  0  0  0  0  0  0  0  0
  -20.3952   14.0205  -19.2246 C   0  0  0  0  0  0  0  0  0  0  0  0
  -19.3722   13.2494  -19.7295 C   0  0  0  0  0  0  0  0  0  0  0  0
  -18.7539   13.5206  -20.8977 N   0  0  0  0  0  0  0  0  0  0  0  0
  -17.7153   12.7581  -21.3580 C   0  0  0  0  0  0  0  0  0  0  0  0
  -17.2989   11.6710  -20.5855 C   0  0  0  0  0  0  0  0  0  0  0  0
  -16.2856   10.7268  -20.8280 C   0  0  0  0  0  0  0  0  0  0  0  0
  -16.3278    9.8913  -19.7556 N   0  0  0  0  0  0  0  0  0  0  0  0
  -17.3109   10.3072  -18.9157 C   0  0  0  0  0  0  0  0  0  0  0  0
  -17.9076   11.4063  -19.4401 N   0  0  0  0  0  0  0  0  0  0  0  0
  -18.9251   12.1438  -18.9713 C   0  0  0  0  0  0  0  0  0  0  0  0
  -19.5471   11.9296  -17.7758 C   0  0  0  0  0  0  0  0  0  0  0  0
  -20.9172   10.9781  -15.5425 C   0  0  0  0  0  0  0  0  0  0  0  0
  -21.5460   10.0089  -16.0259 O   0  0  0  0  0  0  0  0  0  0  0  0
  -21.0562   12.3157  -15.9634 N   0  0  0  0  0  0  0  0  0  0  0  0
  -21.7138   13.2853  -15.1301 C   0  0  0  0  0  0  0  0  0  0  0  0
  -20.3317   10.4689  -13.2202 C   0  0  0  0  0  0  0  0  0  0  0  0
  -19.9553   10.6844  -14.4565 C   0  0  0  0  0  0  0  0  0  0  0  0
  -19.5240   10.1694  -12.0392 C   0  0  0  0  0  0  0  0  0  0  0  0
  -19.9787    7.8046  -12.2799 C   0  0  0  0  0  0  0  0  0  0  0  0
  -19.0407    8.8369  -12.0077 N   0  0  0  0  0  0  0  0  0  0  0  0
  -18.1251    8.6168  -10.9080 C   0  0  0  0  0  0  0  0  0  0  0  0
  -16.9343   13.0700  -22.4711 N   0  0  0  0  0  0  0  0  0  0  0  0
  -16.3350   12.2761  -22.8910 H   0  0  0  0  0  0  0  0  0  0  0  0
  -16.8575   14.3442  -23.0976 C   0  0  0  0  0  0  0  0  0  0  0  0
  -17.9208   15.2255  -23.1271 C   0  0  0  0  0  0  0  0  0  0  0  0
  -17.8153   16.3591  -23.9018 C   0  0  0  0  0  0  0  0  0  0  0  0
  -16.6813   16.6133  -24.6176 C   0  0  0  0  0  0  0  0  0  0  0  0
  -15.5876   15.7253  -24.5930 C   0  0  0  0  0  0  0  0  0  0  0  0
  -15.7098   14.5952  -23.8216 C   0  0  0  0  0  0  0  0  0  0  0  0
  -14.5668   13.6323  -23.7731 C   0  0  0  0  0  0  0  0  0  0  0  0
  -19.0051   17.1876  -23.9963 N   0  0  0  0  0  0  0  0  0  0  0  0
  -18.9563   18.4192  -23.2272 C   0  0  0  0  0  0  0  0  0  0  0  0
  -17.9222   18.6234  -22.5734 O   0  0  0  0  0  0  0  0  0  0  0  0
  -19.7949   16.8946  -24.5606 H   0  0  0  0  0  0  0  0  0  0  0  0
  -20.0895   19.3014  -23.2694 C   0  0  0  0  0  0  0  0  0  0  0  0
  -21.3403   19.0772  -22.7900 C   0  0  0  0  0  0  0  0  0  0  0  0
  -22.3853   19.9837  -22.8160 C   0  0  0  0  0  0  0  0  0  0  0  0
  -22.1061   21.2170  -23.3842 C   0  0  0  0  0  0  0  0  0  0  0  0
  -20.8643   21.5319  -23.8977 C   0  0  0  0  0  0  0  0  0  0  0  0
  -19.8721   20.5773  -23.8360 C   0  0  0  0  0  0  0  0  0  0  0  0
  -20.5390   22.8549  -24.4889 C   0  0  0  0  0  0  0  0  0  0  0  0
  -21.5402   23.2067  -25.3745 F   0  0  0  0  0  0  0  0  0  0  0  0
  -20.4189   23.8210  -23.5081 F   0  0  0  0  0  0  0  0  0  0  0  0
  -19.3559   22.8176  -25.1998 F   0  0  0  0  0  0  0  0  0  0  0  0
 21 22  1  0  0  0
 22 23  1  0  0  0
 22 20  1  0  0  0
 20 18  1  0  0  0
 18 19  2  0  0  0
 19 14  1  0  0  0
 14 15  2  0  0  0
 14 16  1  0  0  0
 16 17  1  0  0  0
 16  1  1  0  0  0
  1  2  2  0  0  0
  2  3  1  0  0  0
  3  4  2  0  0  0
  4  5  1  0  0  0
  5  6  2  0  0  0
  6 24  1  0  0  0
 24 26  1  0  0  0
 26 27  2  0  0  0
 27 28  1  0  0  0
 28 33  1  0  0  0
 33 34  1  0  0  0
 34 35  2  0  0  0
 34 37  1  0  0  0
 37 38  2  0  0  0
 38 39  1  0  0  0
 39 40  2  0  0  0
 40 41  1  0  0  0
 41 42  2  0  0  0
 41 43  1  0  0  0
 43 44  1  0  0  0
 43 45  1  0  0  0
 43 46  1  0  0  0
 28 29  2  0  0  0
 29 30  1  0  0  0
 30 31  2  0  0  0
 31 32  1  0  0  0
  6  7  1  0  0  0
  7  8  2  0  0  0
  8  9  1  0  0  0
  9 10  2  0  0  0
 10 11  1  0  0  0
 11 12  1  0  0  0
 12 13  2  0  0  0
 13  1  1  0  0  0
 12  4  1  0  0  0
 31 26  1  0  0  0
 11  7  1  0  0  0
 42 37  1  0  0  0
 24 25  1  0  0  0
 33 36  1  0  0  0
M  END
> <minimizedAffinity>
-9.07318

> <CNNscore>
0.5906531215

> <CNNaffinity>
7.7934060097

> <CNN_VS>
4.6031994820

> <CNNaffinity_variance>
0.0608213134

$$$$
[H]/C(C(=O)N(c1c([H])c([H])c2nc(N([H])c3c([H])c(N([H])C(=O)c4c([H])c([H])c([H])c(C(F)(F)F)c4[H])c([H])c([H])c3C([H])([H])[H])c3c([H])nc([H])n3c2c1[H])C([H])([H])[H])=C(/[H])C([H])([H])N(C([H])([H])[H])C([H])([H])[H]


 46 50  0  0  0  0  0  0  0  0999 V2000
  -19.9434   11.7627  -17.0608 C   0  0  0  0  0  0  0  0  0  0  0  0
  -20.5166   12.8798  -17.6113 C   0  0  0  0  0  0  0  0  0  0  0  0
  -20.1110   13.3893  -18.8321 C   0  0  0  0  0  0  0  0  0  0  0  0
  -19.1016   12.7957  -19.5566 C   0  0  0  0  0  0  0  0  0  0  0  0
  -18.6508   13.2870  -20.7295 N   0  0  0  0  0  0  0  0  0  0  0  0
  -17.6212   12.6971  -21.4107 C   0  0  0  0  0  0  0  0  0  0  0  0
  -17.0346   11.5534  -20.8630 C   0  0  0  0  0  0  0  0  0  0  0  0
  -15.9902   10.7508  -21.3551 C   0  0  0  0  0  0  0  0  0  0  0  0
  -15.8402    9.7700  -20.4249 N   0  0  0  0  0  0  0  0  0  0  0  0
  -16.7431    9.9692  -19.4299 C   0  0  0  0  0  0  0  0  0  0  0  0
  -17.4791   11.0726  -19.7124 N   0  0  0  0  0  0  0  0  0  0  0  0
  -18.4850   11.6387  -19.0292 C   0  0  0  0  0  0  0  0  0  0  0  0
  -18.9405   11.1992  -17.8203 C   0  0  0  0  0  0  0  0  0  0  0  0
  -21.0386   10.0178  -15.7916 C   0  0  0  0  0  0  0  0  0  0  0  0
  -22.2587    9.9800  -16.0712 O   0  0  0  0  0  0  0  0  0  0  0  0
  -20.2445   11.1815  -15.8177 N   0  0  0  0  0  0  0  0  0  0  0  0
  -19.7814   11.7845  -14.5975 C   0  0  0  0  0  0  0  0  0  0  0  0
  -21.0781    7.6766  -15.0757 C   0  0  0  0  0  0  0  0  0  0  0  0
  -20.3927    8.7402  -15.4155 C   0  0  0  0  0  0  0  0  0  0  0  0
  -20.6057    6.3509  -14.6804 C   0  0  0  0  0  0  0  0  0  0  0  0
  -20.9045    3.9839  -15.0873 C   0  0  0  0  0  0  0  0  0  0  0  0
  -21.4472    5.2970  -15.1180 N   0  0  0  0  0  0  0  0  0  0  0  0
  -22.2103    5.6631  -16.2927 C   0  0  0  0  0  0  0  0  0  0  0  0
  -17.0057   13.2356  -22.5408 N   0  0  0  0  0  0  0  0  0  0  0  0
  -16.7233   12.5474  -23.3235 H   0  0  0  0  0  0  0  0  0  0  0  0
  -16.7157   14.6120  -22.7488 C   0  0  0  0  0  0  0  0  0  0  0  0
  -17.4948   15.6253  -22.2250 C   0  0  0  0  0  0  0  0  0  0  0  0
  -17.2426   16.9205  -22.6187 C   0  0  0  0  0  0  0  0  0  0  0  0
  -16.2382   17.2002  -23.4995 C   0  0  0  0  0  0  0  0  0  0  0  0
  -15.4330   16.1770  -24.0380 C   0  0  0  0  0  0  0  0  0  0  0  0
  -15.7007   14.8892  -23.6417 C   0  0  0  0  0  0  0  0  0  0  0  0
  -14.8641   13.7797  -24.1942 C   0  0  0  0  0  0  0  0  0  0  0  0
  -18.1677   17.9319  -22.1365 N   0  0  0  0  0  0  0  0  0  0  0  0
  -17.7460   18.6218  -20.9295 C   0  0  0  0  0  0  0  0  0  0  0  0
  -16.6609   18.2711  -20.4413 O   0  0  0  0  0  0  0  0  0  0  0  0
  -19.0369   18.1122  -22.6264 H   0  0  0  0  0  0  0  0  0  0  0  0
  -18.5991   19.6428  -20.3875 C   0  0  0  0  0  0  0  0  0  0  0  0
  -19.0204   20.7851  -20.9895 C   0  0  0  0  0  0  0  0  0  0  0  0
  -19.8828   21.7144  -20.4355 C   0  0  0  0  0  0  0  0  0  0  0  0
  -20.3411   21.4325  -19.1579 C   0  0  0  0  0  0  0  0  0  0  0  0
  -19.9649   20.2968  -18.4699 C   0  0  0  0  0  0  0  0  0  0  0  0
  -19.1025   19.4164  -19.0869 C   0  0  0  0  0  0  0  0  0  0  0  0
  -20.4630   19.9654  -17.1105 C   0  0  0  0  0  0  0  0  0  0  0  0
  -20.7880   21.1386  -16.4558 F   0  0  0  0  0  0  0  0  0  0  0  0
  -21.5704   19.1412  -17.1747 F   0  0  0  0  0  0  0  0  0  0  0  0
  -19.4982   19.3276  -16.3564 F   0  0  0  0  0  0  0  0  0  0  0  0
 21 22  1  0  0  0
 22 23  1  0  0  0
 22 20  1  0  0  0
 20 18  1  0  0  0
 18 19  2  0  0  0
 19 14  1  0  0  0
 14 15  2  0  0  0
 14 16  1  0  0  0
 16 17  1  0  0  0
 16  1  1  0  0  0
  1  2  2  0  0  0
  2  3  1  0  0  0
  3  4  2  0  0  0
  4  5  1  0  0  0
  5  6  2  0  0  0
  6 24  1  0  0  0
 24 26  1  0  0  0
 26 27  2  0  0  0
 27 28  1  0  0  0
 28 33  1  0  0  0
 33 34  1  0  0  0
 34 35  2  0  0  0
 34 37  1  0  0  0
 37 38  2  0  0  0
 38 39  1  0  0  0
 39 40  2  0  0  0
 40 41  1  0  0  0
 41 42  2  0  0  0
 41 43  1  0  0  0
 43 44  1  0  0  0
 43 45  1  0  0  0
 43 46  1  0  0  0
 28 29  2  0  0  0
 29 30  1  0  0  0
 30 31  2  0  0  0
 31 32  1  0  0  0
  6  7  1  0  0  0
  7  8  2  0  0  0
  8  9  1  0  0  0
  9 10  2  0  0  0
 10 11  1  0  0  0
 11 12  1  0  0  0
 12 13  2  0  0  0
 13  1  1  0  0  0
 12  4  1  0  0  0
 31 26  1  0  0  0
 11  7  1  0  0  0
 42 37  1  0  0  0
 24 25  1  0  0  0
 33 36  1  0  0  0
M  END
> <minimizedAffinity>
-8.82115

> <CNNscore>
0.5512406826

> <CNNaffinity>
7.9749288559

> <CNN_VS>
4.3961052895

> <CNNaffinity_variance>
0.0756732151

$$$$
[H]/C(C(=O)N(c1c([H])c([H])c2nc(N([H])c3c([H])c(N([H])C(=O)c4c([H])c([H])c([H])c(C(F)(F)F)c4[H])c([H])c([H])c3C([H])([H])[H])c3c([H])nc([H])n3c2c1[H])C([H])([H])[H])=C(/[H])C([H])([H])N(C([H])([H])[H])C([H])([H])[H]


 46 50  0  0  0  0  0  0  0  0999 V2000
  -20.1755   11.1145  -16.5667 C   0  0  0  0  0  0  0  0  0  0  0  0
  -20.6267   12.4026  -16.6955 C   0  0  0  0  0  0  0  0  0  0  0  0
  -20.1411   13.2583  -17.6684 C   0  0  0  0  0  0  0  0  0  0  0  0
  -19.1712   12.8547  -18.5586 C   0  0  0  0  0  0  0  0  0  0  0  0
  -18.6437   13.6725  -19.4930 N   0  0  0  0  0  0  0  0  0  0  0  0
  -17.6546   13.2554  -20.3414 C   0  0  0  0  0  0  0  0  0  0  0  0
  -17.1926   11.9421  -20.2243 C   0  0  0  0  0  0  0  0  0  0  0  0
  -16.2139   11.2599  -20.9686 C   0  0  0  0  0  0  0  0  0  0  0  0
  -16.1820   10.0097  -20.4339 N   0  0  0  0  0  0  0  0  0  0  0  0
  -17.0901    9.9418  -19.4261 C   0  0  0  0  0  0  0  0  0  0  0  0
  -17.7122   11.1410  -19.3073 N   0  0  0  0  0  0  0  0  0  0  0  0
  -18.6799   11.5328  -18.4654 C   0  0  0  0  0  0  0  0  0  0  0  0
  -19.2083   10.7515  -17.4793 C   0  0  0  0  0  0  0  0  0  0  0  0
  -19.5634    9.5215  -14.8511 C   0  0  0  0  0  0  0  0  0  0  0  0
  -18.7675    8.6722  -15.3132 O   0  0  0  0  0  0  0  0  0  0  0  0
  -20.5643   10.1739  -15.5981 N   0  0  0  0  0  0  0  0  0  0  0  0
  -21.9532    9.8591  -15.4011 C   0  0  0  0  0  0  0  0  0  0  0  0
  -19.6066    8.9827  -12.4630 C   0  0  0  0  0  0  0  0  0  0  0  0
  -19.4284    9.8627  -13.4171 C   0  0  0  0  0  0  0  0  0  0  0  0
  -19.5142    9.1485  -11.0135 C   0  0  0  0  0  0  0  0  0  0  0  0
  -17.4145    8.2971  -10.1630 C   0  0  0  0  0  0  0  0  0  0  0  0
  -18.1985    9.4149  -10.5576 N   0  0  0  0  0  0  0  0  0  0  0  0
  -18.1446   10.5857   -9.7075 C   0  0  0  0  0  0  0  0  0  0  0  0
  -16.9601   14.0867  -21.2203 N   0  0  0  0  0  0  0  0  0  0  0  0
  -15.8848   13.9918  -21.2429 H   0  0  0  0  0  0  0  0  0  0  0  0
  -17.5466   15.0503  -22.0861 C   0  0  0  0  0  0  0  0  0  0  0  0
  -17.9987   16.2766  -21.6391 C   0  0  0  0  0  0  0  0  0  0  0  0
  -18.7076   17.0742  -22.5093 C   0  0  0  0  0  0  0  0  0  0  0  0
  -18.9504   16.6682  -23.7896 C   0  0  0  0  0  0  0  0  0  0  0  0
  -18.4911   15.4219  -24.2600 C   0  0  0  0  0  0  0  0  0  0  0  0
  -17.7916   14.6339  -23.3787 C   0  0  0  0  0  0  0  0  0  0  0  0
  -17.2896   13.3053  -23.8466 C   0  0  0  0  0  0  0  0  0  0  0  0
  -19.2663   18.2953  -21.9542 N   0  0  0  0  0  0  0  0  0  0  0  0
  -20.5478   18.1352  -21.2890 C   0  0  0  0  0  0  0  0  0  0  0  0
  -21.0257   16.9906  -21.2753 O   0  0  0  0  0  0  0  0  0  0  0  0
  -18.7749   19.1772  -22.0482 H   0  0  0  0  0  0  0  0  0  0  0  0
  -21.1688   19.2919  -20.7055 C   0  0  0  0  0  0  0  0  0  0  0  0
  -22.2439   19.9833  -21.1647 C   0  0  0  0  0  0  0  0  0  0  0  0
  -22.8312   21.0665  -20.5354 C   0  0  0  0  0  0  0  0  0  0  0  0
  -22.2551   21.4591  -19.3371 C   0  0  0  0  0  0  0  0  0  0  0  0
  -21.1603   20.8163  -18.7960 C   0  0  0  0  0  0  0  0  0  0  0  0
  -20.6296   19.7442  -19.4804 C   0  0  0  0  0  0  0  0  0  0  0  0
  -20.5435   21.2069  -17.5026 C   0  0  0  0  0  0  0  0  0  0  0  0
  -20.3050   20.0663  -16.7591 F   0  0  0  0  0  0  0  0  0  0  0  0
  -19.3603   21.8922  -17.7036 F   0  0  0  0  0  0  0  0  0  0  0  0
  -21.3839   22.0128  -16.7607 F   0  0  0  0  0  0  0  0  0  0  0  0
 21 22  1  0  0  0
 22 23  1  0  0  0
 22 20  1  0  0  0
 20 18  1  0  0  0
 18 19  2  0  0  0
 19 14  1  0  0  0
 14 15  2  0  0  0
 14 16  1  0  0  0
 16 17  1  0  0  0
 16  1  1  0  0  0
  1  2  2  0  0  0
  2  3  1  0  0  0
  3  4  2  0  0  0
  4  5  1  0  0  0
  5  6  2  0  0  0
  6 24  1  0  0  0
 24 26  1  0  0  0
 26 27  2  0  0  0
 27 28  1  0  0  0
 28 33  1  0  0  0
 33 34  1  0  0  0
 34 35  2  0  0  0
 34 37  1  0  0  0
 37 38  2  0  0  0
 38 39  1  0  0  0
 39 40  2  0  0  0
 40 41  1  0  0  0
 41 42  2  0  0  0
 41 43  1  0  0  0
 43 44  1  0  0  0
 43 45  1  0  0  0
 43 46  1  0  0  0
 28 29  2  0  0  0
 29 30  1  0  0  0
 30 31  2  0  0  0
 31 32  1  0  0  0
  6  7  1  0  0  0
  7  8  2  0  0  0
  8  9  1  0  0  0
  9 10  2  0  0  0
 10 11  1  0  0  0
 11 12  1  0  0  0
 12 13  2  0  0  0
 13  1  1  0  0  0
 12  4  1  0  0  0
 31 26  1  0  0  0
 11  7  1  0  0  0
 42 37  1  0  0  0
 24 25  1  0  0  0
 33 36  1  0  0  0
M  END
> <minimizedAffinity>
-8.64211

> <CNNscore>
0.5284990668

> <CNNaffinity>
7.6568045616

> <CNN_VS>
4.0466141701

> <CNNaffinity_variance>
0.0623733997

$$$$
[H]Oc1c([H])c([H])c([H])c2c1C(=O)/C(=C(\[H])c1c([H])n(C([H])([H])[H])c3nc([H])c([H])c(-c4c([H])c([H])c(C(=O)N([H])C([H])([H])C([H])([H])O[H])c([H])c4[H])c13)O2


 37 41  0  0  0  0  0  0  0  0999 V2000
  -16.3972    9.5785  -20.3745 C   0  0  0  0  0  0  0  0  0  0  0  0
  -17.1545   10.8297  -20.2347 N   0  0  0  0  0  0  0  0  0  0  0  0
  -17.1162   11.8563  -21.0762 C   0  0  0  0  0  0  0  0  0  0  0  0
  -17.9600   12.8879  -20.6443 C   0  0  0  0  0  0  0  0  0  0  0  0
  -18.5299   12.4416  -19.4726 C   0  0  0  0  0  0  0  0  0  0  0  0
  -19.4255   12.9828  -18.6053 C   0  0  0  0  0  0  0  0  0  0  0  0
  -19.8094   12.2216  -17.4954 C   0  0  0  0  0  0  0  0  0  0  0  0
  -19.2871   10.9773  -17.3056 C   0  0  0  0  0  0  0  0  0  0  0  0
  -18.4100   10.4732  -18.1684 N   0  0  0  0  0  0  0  0  0  0  0  0
  -18.0026   11.1522  -19.2525 C   0  0  0  0  0  0  0  0  0  0  0  0
  -18.1732   14.1399  -21.3390 C   0  0  0  0  0  0  0  0  0  0  0  0
  -17.3620   14.5290  -22.3192 C   0  0  0  0  0  0  0  0  0  0  0  0
  -16.2644   13.8587  -22.8034 O   0  0  0  0  0  0  0  0  0  0  0  0
  -15.6602   14.5656  -23.8270 C   0  0  0  0  0  0  0  0  0  0  0  0
  -14.5586   14.3278  -24.6191 C   0  0  0  0  0  0  0  0  0  0  0  0
  -14.1347   15.2034  -25.6045 C   0  0  0  0  0  0  0  0  0  0  0  0
  -14.8370   16.3782  -25.8196 C   0  0  0  0  0  0  0  0  0  0  0  0
  -15.9477   16.6444  -25.0395 C   0  0  0  0  0  0  0  0  0  0  0  0
  -16.6055   17.8333  -25.3035 O   0  0  0  0  0  0  0  0  0  0  0  0
  -16.3475   15.7563  -24.0664 C   0  0  0  0  0  0  0  0  0  0  0  0
  -17.4471   15.7620  -23.1127 C   0  0  0  0  0  0  0  0  0  0  0  0
  -18.3100   16.6564  -22.9904 O   0  0  0  0  0  0  0  0  0  0  0  0
  -17.4172   18.0637  -24.7589 H   0  0  0  0  0  0  0  0  0  0  0  0
  -19.9212   14.3377  -18.7691 C   0  0  0  0  0  0  0  0  0  0  0  0
  -21.0663   14.6126  -19.4960 C   0  0  0  0  0  0  0  0  0  0  0  0
  -21.5549   15.9149  -19.6647 C   0  0  0  0  0  0  0  0  0  0  0  0
  -20.9062   16.9799  -19.1072 C   0  0  0  0  0  0  0  0  0  0  0  0
  -19.7493   16.7050  -18.3724 C   0  0  0  0  0  0  0  0  0  0  0  0
  -19.2721   15.4267  -18.2084 C   0  0  0  0  0  0  0  0  0  0  0  0
  -21.3582   18.3775  -19.2393 C   0  0  0  0  0  0  0  0  0  0  0  0
  -21.9219   18.7349  -20.3191 O   0  0  0  0  0  0  0  0  0  0  0  0
  -21.1953   19.3389  -18.2246 N   0  0  0  0  0  0  0  0  0  0  0  0
  -20.6920   18.9461  -17.3460 H   0  0  0  0  0  0  0  0  0  0  0  0
  -21.6071   20.6970  -18.2515 C   0  0  0  0  0  0  0  0  0  0  0  0
  -23.0051   21.0275  -17.8859 C   0  0  0  0  0  0  0  0  0  0  0  0
  -24.0107   20.3839  -18.5668 O   0  0  0  0  0  0  0  0  0  0  0  0
  -24.5148   20.9429  -19.1945 H   0  0  0  0  0  0  0  0  0  0  0  0
  1  2  1  0  0  0
  2  3  1  0  0  0
  3  4  2  0  0  0
  4 11  1  0  0  0
 11 12  2  0  0  0
 12 13  1  0  0  0
 13 14  1  0  0  0
 14 15  2  0  0  0
 15 16  1  0  0  0
 16 17  2  0  0  0
 17 18  1  0  0  0
 18 19  1  0  0  0
 18 20  2  0  0  0
 20 21  1  0  0  0
 21 22  2  0  0  0
  4  5  1  0  0  0
  5  6  2  0  0  0
  6  7  1  0  0  0
  7  8  2  0  0  0
  8  9  1  0  0  0
  9 10  2  0  0  0
  6 24  1  0  0  0
 24 25  2  0  0  0
 25 26  1  0  0  0
 26 27  2  0  0  0
 27 28  1  0  0  0
 28 29  2  0  0  0
 27 30  1  0  0  0
 30 31  2  0  0  0
 30 32  1  0  0  0
 32 34  1  0  0  0
 34 35  1  0  0  0
 35 36  1  0  0  0
 10  2  1  0  0  0
 29 24  1  0  0  0
 21 12  1  0  0  0
 10  5  1  0  0  0
 20 14  1  0  0  0
 19 23  1  0  0  0
 32 33  1  0  0  0
 36 37  1  0  0  0
M  END
> <minimizedAffinity>
-8.93314

> <CNNscore>
0.5973566175

> <CNNaffinity>
6.9854636192

> <CNN_VS>
4.1728129387

> <CNNaffinity_variance>
0.2155093700

$$$$
[H]Oc1c([H])c([H])c([H])c2c1C(=O)/C(=C(\[H])c1c([H])n(C([H])([H])[H])c3nc([H])c([H])c(-c4c([H])c([H])c(C(=O)N([H])C([H])([H])C([H])([H])O[H])c([H])c4[H])c13)O2


 37 41  0  0  0  0  0  0  0  0999 V2000
  -16.5063    9.8147  -19.7439 C   0  0  0  0  0  0  0  0  0  0  0  0
  -17.3096   11.0369  -19.8832 N   0  0  0  0  0  0  0  0  0  0  0  0
  -17.2924   11.8603  -20.9251 C   0  0  0  0  0  0  0  0  0  0  0  0
  -18.1797   12.9274  -20.7330 C   0  0  0  0  0  0  0  0  0  0  0  0
  -18.7543   12.7208  -19.4984 C   0  0  0  0  0  0  0  0  0  0  0  0
  -19.6838   13.4004  -18.7764 C   0  0  0  0  0  0  0  0  0  0  0  0
  -20.0603   12.8804  -17.5328 C   0  0  0  0  0  0  0  0  0  0  0  0
  -19.4979   11.7265  -17.0752 C   0  0  0  0  0  0  0  0  0  0  0  0
  -18.5884   11.0833  -17.8011 N   0  0  0  0  0  0  0  0  0  0  0  0
  -18.1859   11.5295  -19.0016 C   0  0  0  0  0  0  0  0  0  0  0  0
  -18.4245   13.9925  -21.6822 C   0  0  0  0  0  0  0  0  0  0  0  0
  -17.5063   14.3361  -22.5817 C   0  0  0  0  0  0  0  0  0  0  0  0
  -16.2610   13.7800  -22.7507 O   0  0  0  0  0  0  0  0  0  0  0  0
  -15.5782   14.3918  -23.7861 C   0  0  0  0  0  0  0  0  0  0  0  0
  -14.3295   14.2046  -24.3367 C   0  0  0  0  0  0  0  0  0  0  0  0
  -13.8514   14.9577  -25.3957 C   0  0  0  0  0  0  0  0  0  0  0  0
  -14.6500   15.9499  -25.9411 C   0  0  0  0  0  0  0  0  0  0  0  0
  -15.9092   16.1611  -25.4092 C   0  0  0  0  0  0  0  0  0  0  0  0
  -16.6573   17.1658  -25.9977 O   0  0  0  0  0  0  0  0  0  0  0  0
  -16.3600   15.3977  -24.3557 C   0  0  0  0  0  0  0  0  0  0  0  0
  -17.6059   15.3867  -23.6032 C   0  0  0  0  0  0  0  0  0  0  0  0
  -18.5858   16.1375  -23.7922 O   0  0  0  0  0  0  0  0  0  0  0  0
  -17.5775   17.3507  -25.6406 H   0  0  0  0  0  0  0  0  0  0  0  0
  -20.2239   14.6689  -19.2321 C   0  0  0  0  0  0  0  0  0  0  0  0
  -19.6055   15.8721  -18.9400 C   0  0  0  0  0  0  0  0  0  0  0  0
  -20.1163   17.1035  -19.3707 C   0  0  0  0  0  0  0  0  0  0  0  0
  -21.2646   17.1619  -20.1081 C   0  0  0  0  0  0  0  0  0  0  0  0
  -21.8912   15.9480  -20.4045 C   0  0  0  0  0  0  0  0  0  0  0  0
  -21.3882   14.7413  -19.9809 C   0  0  0  0  0  0  0  0  0  0  0  0
  -21.8632   18.4177  -20.5977 C   0  0  0  0  0  0  0  0  0  0  0  0
  -21.7243   19.4698  -19.9010 O   0  0  0  0  0  0  0  0  0  0  0  0
  -22.5837   18.5089  -21.8031 N   0  0  0  0  0  0  0  0  0  0  0  0
  -22.6621   17.5583  -22.3225 H   0  0  0  0  0  0  0  0  0  0  0  0
  -23.1817   19.6681  -22.3629 C   0  0  0  0  0  0  0  0  0  0  0  0
  -23.6640   19.6183  -23.7636 C   0  0  0  0  0  0  0  0  0  0  0  0
  -24.3488   18.4951  -24.1620 O   0  0  0  0  0  0  0  0  0  0  0  0
  -23.8647   17.9072  -24.7790 H   0  0  0  0  0  0  0  0  0  0  0  0
  1  2  1  0  0  0
  2  3  1  0  0  0
  3  4  2  0  0  0
  4 11  1  0  0  0
 11 12  2  0  0  0
 12 13  1  0  0  0
 13 14  1  0  0  0
 14 15  2  0  0  0
 15 16  1  0  0  0
 16 17  2  0  0  0
 17 18  1  0  0  0
 18 19  1  0  0  0
 18 20  2  0  0  0
 20 21  1  0  0  0
 21 22  2  0  0  0
  4  5  1  0  0  0
  5  6  2  0  0  0
  6  7  1  0  0  0
  7  8  2  0  0  0
  8  9  1  0  0  0
  9 10  2  0  0  0
  6 24  1  0  0  0
 24 25  2  0  0  0
 25 26  1  0  0  0
 26 27  2  0  0  0
 27 28  1  0  0  0
 28 29  2  0  0  0
 27 30  1  0  0  0
 30 31  2  0  0  0
 30 32  1  0  0  0
 32 34  1  0  0  0
 34 35  1  0  0  0
 35 36  1  0  0  0
 10  2  1  0  0  0
 29 24  1  0  0  0
 21 12  1  0  0  0
 10  5  1  0  0  0
 20 14  1  0  0  0
 19 23  1  0  0  0
 32 33  1  0  0  0
 36 37  1  0  0  0
M  END
> <minimizedAffinity>
-9.56411

> <CNNscore>
0.3819534183

> <CNNaffinity>
6.7021431923

> <CNN_VS>
2.5599064827

> <CNNaffinity_variance>
0.0580390915

$$$$
[H]Oc1c([H])c([H])c([H])c2c1C(=O)/C(=C(\[H])c1c([H])n(C([H])([H])[H])c3nc([H])c([H])c(-c4c([H])c([H])c(C(=O)N([H])C([H])([H])C([H])([H])O[H])c([H])c4[H])c13)O2


 37 41  0  0  0  0  0  0  0  0999 V2000
  -16.7450   13.6929  -23.1907 C   0  0  0  0  0  0  0  0  0  0  0  0
  -17.4378   13.3566  -21.9395 N   0  0  0  0  0  0  0  0  0  0  0  0
  -18.4244   14.0545  -21.3889 C   0  0  0  0  0  0  0  0  0  0  0  0
  -18.8577   13.4540  -20.1996 C   0  0  0  0  0  0  0  0  0  0  0  0
  -18.0750   12.3323  -20.0380 C   0  0  0  0  0  0  0  0  0  0  0  0
  -18.0277   11.3555  -19.0942 C   0  0  0  0  0  0  0  0  0  0  0  0
  -17.0941   10.3260  -19.2586 C   0  0  0  0  0  0  0  0  0  0  0  0
  -16.2633   10.3222  -20.3389 C   0  0  0  0  0  0  0  0  0  0  0  0
  -16.3289   11.2922  -21.2459 N   0  0  0  0  0  0  0  0  0  0  0  0
  -17.2028   12.3064  -21.1460 C   0  0  0  0  0  0  0  0  0  0  0  0
  -19.9319   13.9408  -19.3602 C   0  0  0  0  0  0  0  0  0  0  0  0
  -20.5954   15.0522  -19.6683 C   0  0  0  0  0  0  0  0  0  0  0  0
  -20.3893   15.8675  -20.7552 O   0  0  0  0  0  0  0  0  0  0  0  0
  -21.2682   16.9352  -20.7512 C   0  0  0  0  0  0  0  0  0  0  0  0
  -21.4626   18.0037  -21.5986 C   0  0  0  0  0  0  0  0  0  0  0  0
  -22.4295   18.9711  -21.3833 C   0  0  0  0  0  0  0  0  0  0  0  0
  -23.2495   18.8786  -20.2703 C   0  0  0  0  0  0  0  0  0  0  0  0
  -23.0779   17.8165  -19.4010 C   0  0  0  0  0  0  0  0  0  0  0  0
  -23.9276   17.7808  -18.3092 O   0  0  0  0  0  0  0  0  0  0  0  0
  -22.1085   16.8681  -19.6390 C   0  0  0  0  0  0  0  0  0  0  0  0
  -21.7007   15.6683  -18.9228 C   0  0  0  0  0  0  0  0  0  0  0  0
  -22.2016   15.2388  -17.8626 O   0  0  0  0  0  0  0  0  0  0  0  0
  -23.8355   17.0253  -17.6540 H   0  0  0  0  0  0  0  0  0  0  0  0
  -18.8609   11.4037  -17.9059 C   0  0  0  0  0  0  0  0  0  0  0  0
  -19.0378   12.5724  -17.1860 C   0  0  0  0  0  0  0  0  0  0  0  0
  -19.8365   12.6332  -16.0365 C   0  0  0  0  0  0  0  0  0  0  0  0
  -20.4813   11.5205  -15.5765 C   0  0  0  0  0  0  0  0  0  0  0  0
  -20.3043   10.3387  -16.3019 C   0  0  0  0  0  0  0  0  0  0  0  0
  -19.5204   10.2815  -17.4292 C   0  0  0  0  0  0  0  0  0  0  0  0
  -21.3385   11.5053  -14.3765 C   0  0  0  0  0  0  0  0  0  0  0  0
  -22.5852   11.6993  -14.5172 O   0  0  0  0  0  0  0  0  0  0  0  0
  -20.8422   11.2858  -13.0781 N   0  0  0  0  0  0  0  0  0  0  0  0
  -19.7657   11.1439  -13.0546 H   0  0  0  0  0  0  0  0  0  0  0  0
  -21.5848   11.2387  -11.8693 C   0  0  0  0  0  0  0  0  0  0  0  0
  -21.9806   12.5127  -11.2234 C   0  0  0  0  0  0  0  0  0  0  0  0
  -22.4843   13.5059  -12.0291 O   0  0  0  0  0  0  0  0  0  0  0  0
  -21.8928   14.2757  -12.1631 H   0  0  0  0  0  0  0  0  0  0  0  0
  1  2  1  0  0  0
  2  3  1  0  0  0
  3  4  2  0  0  0
  4 11  1  0  0  0
 11 12  2  0  0  0
 12 13  1  0  0  0
 13 14  1  0  0  0
 14 15  2  0  0  0
 15 16  1  0  0  0
 16 17  2  0  0  0
 17 18  1  0  0  0
 18 19  1  0  0  0
 18 20  2  0  0  0
 20 21  1  0  0  0
 21 22  2  0  0  0
  4  5  1  0  0  0
  5  6  2  0  0  0
  6  7  1  0  0  0
  7  8  2  0  0  0
  8  9  1  0  0  0
  9 10  2  0  0  0
  6 24  1  0  0  0
 24 25  2  0  0  0
 25 26  1  0  0  0
 26 27  2  0  0  0
 27 28  1  0  0  0
 28 29  2  0  0  0
 27 30  1  0  0  0
 30 31  2  0  0  0
 30 32  1  0  0  0
 32 34  1  0  0  0
 34 35  1  0  0  0
 35 36  1  0  0  0
 10  2  1  0  0  0
 29 24  1  0  0  0
 21 12  1  0  0  0
 10  5  1  0  0  0
 20 14  1  0  0  0
 19 23  1  0  0  0
 32 33  1  0  0  0
 36 37  1  0  0  0
M  END
> <minimizedAffinity>
-8.21208

> <CNNscore>
0.3479007781

> <CNNaffinity>
6.2862157822

> <CNN_VS>
2.1869792938

> <CNNaffinity_variance>
0.1294311434

$$$$
[H]Oc1c([H])c([H])c([H])c2c1C(=O)/C(=C(\[H])c1c([H])n(C([H])([H])[H])c3nc([H])c([H])c(-c4c([H])c([H])c(C(=O)N([H])C([H])([H])C([H])([H])O[H])c([H])c4[H])c13)O2


 37 41  0  0  0  0  0  0  0  0999 V2000
  -16.3862   13.1656  -24.1764 C   0  0  0  0  0  0  0  0  0  0  0  0
  -17.0359   12.9946  -22.8698 N   0  0  0  0  0  0  0  0  0  0  0  0
  -18.0595   13.7079  -22.4147 C   0  0  0  0  0  0  0  0  0  0  0  0
  -18.4333   13.2835  -21.1329 C   0  0  0  0  0  0  0  0  0  0  0  0
  -17.5736   12.2565  -20.8115 C   0  0  0  0  0  0  0  0  0  0  0  0
  -17.4461   11.4525  -19.7231 C   0  0  0  0  0  0  0  0  0  0  0  0
  -16.4470   10.4727  -19.7421 C   0  0  0  0  0  0  0  0  0  0  0  0
  -15.6339   10.3458  -20.8284 C   0  0  0  0  0  0  0  0  0  0  0  0
  -15.7788   11.1478  -21.8789 N   0  0  0  0  0  0  0  0  0  0  0  0
  -16.7182   12.1060  -21.9226 C   0  0  0  0  0  0  0  0  0  0  0  0
  -19.5256   13.8305  -20.3564 C   0  0  0  0  0  0  0  0  0  0  0  0
  -19.5266   15.1049  -19.9741 C   0  0  0  0  0  0  0  0  0  0  0  0
  -18.5623   16.0494  -20.2317 O   0  0  0  0  0  0  0  0  0  0  0  0
  -18.8996   17.2704  -19.6769 C   0  0  0  0  0  0  0  0  0  0  0  0
  -18.2827   18.5019  -19.6539 C   0  0  0  0  0  0  0  0  0  0  0  0
  -18.8259   19.6060  -19.0189 C   0  0  0  0  0  0  0  0  0  0  0  0
  -20.0449   19.4878  -18.3711 C   0  0  0  0  0  0  0  0  0  0  0  0
  -20.6882   18.2634  -18.3772 C   0  0  0  0  0  0  0  0  0  0  0  0
  -21.9014   18.2105  -17.7132 O   0  0  0  0  0  0  0  0  0  0  0  0
  -20.1257   17.1814  -19.0165 C   0  0  0  0  0  0  0  0  0  0  0  0
  -20.5545   15.8012  -19.1894 C   0  0  0  0  0  0  0  0  0  0  0  0
  -21.6091   15.2981  -18.7489 O   0  0  0  0  0  0  0  0  0  0  0  0
  -22.4006   17.3393  -17.6945 H   0  0  0  0  0  0  0  0  0  0  0  0
  -18.2629   11.6406  -18.5374 C   0  0  0  0  0  0  0  0  0  0  0  0
  -19.0742   10.6340  -18.0435 C   0  0  0  0  0  0  0  0  0  0  0  0
  -19.8696   10.8019  -16.9023 C   0  0  0  0  0  0  0  0  0  0  0  0
  -19.8728   11.9872  -16.2237 C   0  0  0  0  0  0  0  0  0  0  0  0
  -19.0542   13.0055  -16.7204 C   0  0  0  0  0  0  0  0  0  0  0  0
  -18.2749   12.8385  -17.8400 C   0  0  0  0  0  0  0  0  0  0  0  0
  -20.6810   12.2399  -15.0161 C   0  0  0  0  0  0  0  0  0  0  0  0
  -20.4639   11.5375  -13.9811 O   0  0  0  0  0  0  0  0  0  0  0  0
  -21.6848   13.2242  -14.9531 N   0  0  0  0  0  0  0  0  0  0  0  0
  -21.8080   13.7637  -15.8875 H   0  0  0  0  0  0  0  0  0  0  0  0
  -22.5015   13.5506  -13.8390 C   0  0  0  0  0  0  0  0  0  0  0  0
  -23.0101   14.9366  -13.7071 C   0  0  0  0  0  0  0  0  0  0  0  0
  -22.1028   15.9621  -13.8263 O   0  0  0  0  0  0  0  0  0  0  0  0
  -21.8951   16.4354  -12.9935 H   0  0  0  0  0  0  0  0  0  0  0  0
  1  2  1  0  0  0
  2  3  1  0  0  0
  3  4  2  0  0  0
  4 11  1  0  0  0
 11 12  2  0  0  0
 12 13  1  0  0  0
 13 14  1  0  0  0
 14 15  2  0  0  0
 15 16  1  0  0  0
 16 17  2  0  0  0
 17 18  1  0  0  0
 18 19  1  0  0  0
 18 20  2  0  0  0
 20 21  1  0  0  0
 21 22  2  0  0  0
  4  5  1  0  0  0
  5  6  2  0  0  0
  6  7  1  0  0  0
  7  8  2  0  0  0
  8  9  1  0  0  0
  9 10  2  0  0  0
  6 24  1  0  0  0
 24 25  2  0  0  0
 25 26  1  0  0  0
 26 27  2  0  0  0
 27 28  1  0  0  0
 28 29  2  0  0  0
 27 30  1  0  0  0
 30 31  2  0  0  0
 30 32  1  0  0  0
 32 34  1  0  0  0
 34 35  1  0  0  0
 35 36  1  0  0  0
 10  2  1  0  0  0
 29 24  1  0  0  0
 21 12  1  0  0  0
 10  5  1  0  0  0
 20 14  1  0  0  0
 19 23  1  0  0  0
 32 33  1  0  0  0
 36 37  1  0  0  0
M  END
> <minimizedAffinity>
-8.88156

> <CNNscore>
0.3225902021

> <CNNaffinity>
6.5120429993

> <CNN_VS>
2.1007213593

> <CNNaffinity_variance>
0.2796709836

$$$$
[H]Oc1c([H])c([H])c([H])c2c1C(=O)/C(=C(\[H])c1c([H])n(C([H])([H])[H])c3nc([H])c([H])c(-c4c([H])c([H])c(C(=O)N([H])C([H])([H])C([H])([H])O[H])c([H])c4[H])c13)O2


 37 41  0  0  0  0  0  0  0  0999 V2000
  -15.4230   15.2945  -26.9557 C   0  0  0  0  0  0  0  0  0  0  0  0
  -16.0718   15.5917  -25.6715 N   0  0  0  0  0  0  0  0  0  0  0  0
  -16.4335   16.7970  -25.2472 C   0  0  0  0  0  0  0  0  0  0  0  0
  -17.0258   16.7233  -23.9797 C   0  0  0  0  0  0  0  0  0  0  0  0
  -17.0100   15.3901  -23.6344 C   0  0  0  0  0  0  0  0  0  0  0  0
  -17.4450   14.7031  -22.5453 C   0  0  0  0  0  0  0  0  0  0  0  0
  -17.2816   13.3132  -22.5355 C   0  0  0  0  0  0  0  0  0  0  0  0
  -16.6986   12.6854  -23.5953 C   0  0  0  0  0  0  0  0  0  0  0  0
  -16.2793   13.3825  -24.6471 N   0  0  0  0  0  0  0  0  0  0  0  0
  -16.4081   14.7170  -24.7177 C   0  0  0  0  0  0  0  0  0  0  0  0
  -17.5541   17.8479  -23.2370 C   0  0  0  0  0  0  0  0  0  0  0  0
  -18.8487   18.1521  -23.2788 C   0  0  0  0  0  0  0  0  0  0  0  0
  -19.8324   17.4993  -23.9821 O   0  0  0  0  0  0  0  0  0  0  0  0
  -21.0644   18.0968  -23.7877 C   0  0  0  0  0  0  0  0  0  0  0  0
  -22.3308   17.8284  -24.2585 C   0  0  0  0  0  0  0  0  0  0  0  0
  -23.4388   18.5852  -23.9168 C   0  0  0  0  0  0  0  0  0  0  0  0
  -23.2882   19.6664  -23.0635 C   0  0  0  0  0  0  0  0  0  0  0  0
  -22.0282   19.9605  -22.5745 C   0  0  0  0  0  0  0  0  0  0  0  0
  -21.9441   21.0518  -21.7274 O   0  0  0  0  0  0  0  0  0  0  0  0
  -20.9432   19.1913  -22.9305 C   0  0  0  0  0  0  0  0  0  0  0  0
  -19.5304   19.2531  -22.5858 C   0  0  0  0  0  0  0  0  0  0  0  0
  -18.9928   20.0932  -21.8343 O   0  0  0  0  0  0  0  0  0  0  0  0
  -21.0466   21.2986  -21.3506 H   0  0  0  0  0  0  0  0  0  0  0  0
  -17.9953   15.3825  -21.3860 C   0  0  0  0  0  0  0  0  0  0  0  0
  -17.1835   15.9652  -20.4285 C   0  0  0  0  0  0  0  0  0  0  0  0
  -17.7002   16.6217  -19.3038 C   0  0  0  0  0  0  0  0  0  0  0  0
  -19.0491   16.7119  -19.1084 C   0  0  0  0  0  0  0  0  0  0  0  0
  -19.8713   16.1243  -20.0741 C   0  0  0  0  0  0  0  0  0  0  0  0
  -19.3620   15.4808  -21.1765 C   0  0  0  0  0  0  0  0  0  0  0  0
  -19.6680   17.3862  -17.9519 C   0  0  0  0  0  0  0  0  0  0  0  0
  -20.9340   17.4635  -17.8989 O   0  0  0  0  0  0  0  0  0  0  0  0
  -18.9228   17.9507  -16.9000 N   0  0  0  0  0  0  0  0  0  0  0  0
  -17.8505   17.8487  -17.0384 H   0  0  0  0  0  0  0  0  0  0  0  0
  -19.4243   18.6039  -15.7438 C   0  0  0  0  0  0  0  0  0  0  0  0
  -20.0266   17.7853  -14.6649 C   0  0  0  0  0  0  0  0  0  0  0  0
  -19.4335   17.8286  -13.4258 O   0  0  0  0  0  0  0  0  0  0  0  0
  -18.9538   17.0152  -13.1633 H   0  0  0  0  0  0  0  0  0  0  0  0
  1  2  1  0  0  0
  2  3  1  0  0  0
  3  4  2  0  0  0
  4 11  1  0  0  0
 11 12  2  0  0  0
 12 13  1  0  0  0
 13 14  1  0  0  0
 14 15  2  0  0  0
 15 16  1  0  0  0
 16 17  2  0  0  0
 17 18  1  0  0  0
 18 19  1  0  0  0
 18 20  2  0  0  0
 20 21  1  0  0  0
 21 22  2  0  0  0
  4  5  1  0  0  0
  5  6  2  0  0  0
  6  7  1  0  0  0
  7  8  2  0  0  0
  8  9  1  0  0  0
  9 10  2  0  0  0
  6 24  1  0  0  0
 24 25  2  0  0  0
 25 26  1  0  0  0
 26 27  2  0  0  0
 27 28  1  0  0  0
 28 29  2  0  0  0
 27 30  1  0  0  0
 30 31  2  0  0  0
 30 32  1  0  0  0
 32 34  1  0  0  0
 34 35  1  0  0  0
 35 36  1  0  0  0
 10  2  1  0  0  0
 29 24  1  0  0  0
 21 12  1  0  0  0
 10  5  1  0  0  0
 20 14  1  0  0  0
 19 23  1  0  0  0
 32 33  1  0  0  0
 36 37  1  0  0  0
M  END
> <minimizedAffinity>
-8.88652

> <CNNscore>
0.2985098660

> <CNNaffinity>
6.2223281860

> <CNN_VS>
1.8574264050

> <CNNaffinity_variance>
0.1549683064

$$$$
[H]Oc1c([H])c([H])c([H])c2c1C(=O)/C(=C(\[H])c1c([H])n(C([H])([H])[H])c3nc([H])c([H])c(-c4c([H])c([H])c(C(=O)N([H])C([H])([H])C([H])([H])O[H])c([H])c4[H])c13)O2


 37 41  0  0  0  0  0  0  0  0999 V2000
  -23.5730   17.5098  -26.3718 C   0  0  0  0  0  0  0  0  0  0  0  0
  -23.3763   17.8360  -24.9528 N   0  0  0  0  0  0  0  0  0  0  0  0
  -22.8775   17.0189  -24.0324 C   0  0  0  0  0  0  0  0  0  0  0  0
  -22.8263   17.6476  -22.7815 C   0  0  0  0  0  0  0  0  0  0  0  0
  -23.3291   18.9149  -22.9769 C   0  0  0  0  0  0  0  0  0  0  0  0
  -23.5216   19.9795  -22.1542 C   0  0  0  0  0  0  0  0  0  0  0  0
  -24.0504   21.1514  -22.7071 C   0  0  0  0  0  0  0  0  0  0  0  0
  -24.3597   21.2030  -24.0333 C   0  0  0  0  0  0  0  0  0  0  0  0
  -24.1641   20.1454  -24.8150 N   0  0  0  0  0  0  0  0  0  0  0  0
  -23.6592   18.9933  -24.3458 C   0  0  0  0  0  0  0  0  0  0  0  0
  -22.3157   17.0504  -21.5657 C   0  0  0  0  0  0  0  0  0  0  0  0
  -21.0223   17.1126  -21.2599 C   0  0  0  0  0  0  0  0  0  0  0  0
  -20.0242   17.7098  -21.9917 O   0  0  0  0  0  0  0  0  0  0  0  0
  -18.7988   17.5774  -21.3646 C   0  0  0  0  0  0  0  0  0  0  0  0
  -17.5237   17.9904  -21.6828 C   0  0  0  0  0  0  0  0  0  0  0  0
  -16.4254   17.7348  -20.8793 C   0  0  0  0  0  0  0  0  0  0  0  0
  -16.5952   17.0329  -19.6969 C   0  0  0  0  0  0  0  0  0  0  0  0
  -17.8642   16.6051  -19.3508 C   0  0  0  0  0  0  0  0  0  0  0  0
  -17.9676   15.9098  -18.1585 O   0  0  0  0  0  0  0  0  0  0  0  0
  -18.9393   16.8729  -20.1682 C   0  0  0  0  0  0  0  0  0  0  0  0
  -20.3576   16.5599  -20.0725 C   0  0  0  0  0  0  0  0  0  0  0  0
  -20.9114   15.9328  -19.1454 O   0  0  0  0  0  0  0  0  0  0  0  0
  -18.8722   15.5820  -17.8711 H   0  0  0  0  0  0  0  0  0  0  0  0
  -23.2631   19.8963  -20.7278 C   0  0  0  0  0  0  0  0  0  0  0  0
  -24.2379   19.4924  -19.8322 C   0  0  0  0  0  0  0  0  0  0  0  0
  -24.0037   19.4098  -18.4534 C   0  0  0  0  0  0  0  0  0  0  0  0
  -22.7820   19.7309  -17.9338 C   0  0  0  0  0  0  0  0  0  0  0  0
  -21.7956   20.1391  -18.8362 C   0  0  0  0  0  0  0  0  0  0  0  0
  -22.0277   20.2193  -20.1883 C   0  0  0  0  0  0  0  0  0  0  0  0
  -22.4589   19.6685  -16.4961 C   0  0  0  0  0  0  0  0  0  0  0  0
  -23.4033   19.4842  -15.6680 O   0  0  0  0  0  0  0  0  0  0  0  0
  -21.1513   19.8037  -15.9939 N   0  0  0  0  0  0  0  0  0  0  0  0
  -20.4137   19.9715  -16.7732 H   0  0  0  0  0  0  0  0  0  0  0  0
  -20.7400   19.7442  -14.6367 C   0  0  0  0  0  0  0  0  0  0  0  0
  -19.6183   18.8481  -14.2682 C   0  0  0  0  0  0  0  0  0  0  0  0
  -19.8913   17.5077  -14.1343 O   0  0  0  0  0  0  0  0  0  0  0  0
  -19.8764   17.1678  -13.2152 H   0  0  0  0  0  0  0  0  0  0  0  0
  1  2  1  0  0  0
  2  3  1  0  0  0
  3  4  2  0  0  0
  4 11  1  0  0  0
 11 12  2  0  0  0
 12 13  1  0  0  0
 13 14  1  0  0  0
 14 15  2  0  0  0
 15 16  1  0  0  0
 16 17  2  0  0  0
 17 18  1  0  0  0
 18 19  1  0  0  0
 18 20  2  0  0  0
 20 21  1  0  0  0
 21 22  2  0  0  0
  4  5  1  0  0  0
  5  6  2  0  0  0
  6  7  1  0  0  0
  7  8  2  0  0  0
  8  9  1  0  0  0
  9 10  2  0  0  0
  6 24  1  0  0  0
 24 25  2  0  0  0
 25 26  1  0  0  0
 26 27  2  0  0  0
 27 28  1  0  0  0
 28 29  2  0  0  0
 27 30  1  0  0  0
 30 31  2  0  0  0
 30 32  1  0  0  0
 32 34  1  0  0  0
 34 35  1  0  0  0
 35 36  1  0  0  0
 10  2  1  0  0  0
 29 24  1  0  0  0
 21 12  1  0  0  0
 10  5  1  0  0  0
 20 14  1  0  0  0
 19 23  1  0  0  0
 32 33  1  0  0  0
 36 37  1  0  0  0
M  END
> <minimizedAffinity>
-5.95267

> <CNNscore>
0.2929101884

> <CNNaffinity>
5.6536841393

> <CNN_VS>
1.6560217142

> <CNNaffinity_variance>
0.0519192442

$$$$
[H]Oc1c([H])c([H])c([H])c2c1C(=O)/C(=C(\[H])c1c([H])n(C([H])([H])[H])c3nc([H])c([H])c(-c4c([H])c([H])c(C(=O)N([H])C([H])([H])C([H])([H])O[H])c([H])c4[H])c13)O2


 37 41  0  0  0  0  0  0  0  0999 V2000
  -17.2990    9.7246  -18.8525 C   0  0  0  0  0  0  0  0  0  0  0  0
  -17.6757   11.1197  -19.1174 N   0  0  0  0  0  0  0  0  0  0  0  0
  -17.0693   11.9370  -19.9706 C   0  0  0  0  0  0  0  0  0  0  0  0
  -17.6840   13.1959  -19.9789 C   0  0  0  0  0  0  0  0  0  0  0  0
  -18.7167   13.1160  -19.0711 C   0  0  0  0  0  0  0  0  0  0  0  0
  -19.6624   13.9983  -18.6536 C   0  0  0  0  0  0  0  0  0  0  0  0
  -20.5953   13.5634  -17.7054 C   0  0  0  0  0  0  0  0  0  0  0  0
  -20.5391   12.2895  -17.2247 C   0  0  0  0  0  0  0  0  0  0  0  0
  -19.6012   11.4476  -17.6484 N   0  0  0  0  0  0  0  0  0  0  0  0
  -18.6788   11.8033  -18.5567 C   0  0  0  0  0  0  0  0  0  0  0  0
  -17.2900   14.3133  -20.8107 C   0  0  0  0  0  0  0  0  0  0  0  0
  -17.2200   14.1941  -22.1340 C   0  0  0  0  0  0  0  0  0  0  0  0
  -17.4896   13.0731  -22.8818 O   0  0  0  0  0  0  0  0  0  0  0  0
  -17.3106   13.3188  -24.2309 C   0  0  0  0  0  0  0  0  0  0  0  0
  -17.4488   12.5425  -25.3604 C   0  0  0  0  0  0  0  0  0  0  0  0
  -17.2079   13.0195  -26.6377 C   0  0  0  0  0  0  0  0  0  0  0  0
  -16.8085   14.3351  -26.8094 C   0  0  0  0  0  0  0  0  0  0  0  0
  -16.6611   15.1390  -25.6935 C   0  0  0  0  0  0  0  0  0  0  0  0
  -16.2602   16.4422  -25.9316 O   0  0  0  0  0  0  0  0  0  0  0  0
  -16.9073   14.6392  -24.4345 C   0  0  0  0  0  0  0  0  0  0  0  0
  -16.8398   15.2283  -23.1051 C   0  0  0  0  0  0  0  0  0  0  0  0
  -16.5161   16.4043  -22.8374 O   0  0  0  0  0  0  0  0  0  0  0  0
  -16.1417   17.0585  -25.1476 H   0  0  0  0  0  0  0  0  0  0  0  0
  -19.6724   15.3767  -19.1100 C   0  0  0  0  0  0  0  0  0  0  0  0
  -18.8998   16.3516  -18.5034 C   0  0  0  0  0  0  0  0  0  0  0  0
  -18.9012   17.6857  -18.9313 C   0  0  0  0  0  0  0  0  0  0  0  0
  -19.6798   18.0794  -19.9822 C   0  0  0  0  0  0  0  0  0  0  0  0
  -20.4611   17.0966  -20.5968 C   0  0  0  0  0  0  0  0  0  0  0  0
  -20.4580   15.7886  -20.1753 C   0  0  0  0  0  0  0  0  0  0  0  0
  -19.7347   19.4628  -20.4906 C   0  0  0  0  0  0  0  0  0  0  0  0
  -19.5404   20.4178  -19.6772 O   0  0  0  0  0  0  0  0  0  0  0  0
  -19.9929   19.7787  -21.8374 N   0  0  0  0  0  0  0  0  0  0  0  0
  -20.1597   18.9004  -22.4539 H   0  0  0  0  0  0  0  0  0  0  0  0
  -20.0516   21.0707  -22.4225 C   0  0  0  0  0  0  0  0  0  0  0  0
  -19.8594   21.2019  -23.8863 C   0  0  0  0  0  0  0  0  0  0  0  0
  -18.7043   20.6883  -24.4258 O   0  0  0  0  0  0  0  0  0  0  0  0
  -18.0535   21.3543  -24.7315 H   0  0  0  0  0  0  0  0  0  0  0  0
  1  2  1  0  0  0
  2  3  1  0  0  0
  3  4  2  0  0  0
  4 11  1  0  0  0
 11 12  2  0  0  0
 12 13  1  0  0  0
 13 14  1  0  0  0
 14 15  2  0  0  0
 15 16  1  0  0  0
 16 17  2  0  0  0
 17 18  1  0  0  0
 18 19  1  0  0  0
 18 20  2  0  0  0
 20 21  1  0  0  0
 21 22  2  0  0  0
  4  5  1  0  0  0
  5  6  2  0  0  0
  6  7  1  0  0  0
  7  8  2  0  0  0
  8  9  1  0  0  0
  9 10  2  0  0  0
  6 24  1  0  0  0
 24 25  2  0  0  0
 25 26  1  0  0  0
 26 27  2  0  0  0
 27 28  1  0  0  0
 28 29  2  0  0  0
 27 30  1  0  0  0
 30 31  2  0  0  0
 30 32  1  0  0  0
 32 34  1  0  0  0
 34 35  1  0  0  0
 35 36  1  0  0  0
 10  2  1  0  0  0
 29 24  1  0  0  0
 21 12  1  0  0  0
 10  5  1  0  0  0
 20 14  1  0  0  0
 19 23  1  0  0  0
 32 33  1  0  0  0
 36 37  1  0  0  0
M  END
> <minimizedAffinity>
-8.89480

> <CNNscore>
0.2832280099

> <CNNaffinity>
6.7171111107

> <CNN_VS>
1.9024740458

> <CNNaffinity_variance>
0.0856477767

$$$$
[H]Oc1c([H])c([H])c([H])c2c1C(=O)/C(=C(\[H])c1c([H])n(C([H])([H])[H])c3nc([H])c([H])c(-c4c([H])c([H])c(C(=O)N([H])C([H])([H])C([H])([H])O[H])c([H])c4[H])c13)O2


 37 41  0  0  0  0  0  0  0  0999 V2000
  -21.2335   11.8777  -16.1970 C   0  0  0  0  0  0  0  0  0  0  0  0
  -20.5116   12.3738  -17.3766 N   0  0  0  0  0  0  0  0  0  0  0  0
  -20.8103   13.4710  -18.0625 C   0  0  0  0  0  0  0  0  0  0  0  0
  -19.9191   13.6519  -19.1282 C   0  0  0  0  0  0  0  0  0  0  0  0
  -19.0409   12.5926  -19.0677 C   0  0  0  0  0  0  0  0  0  0  0  0
  -17.9658   12.2280  -19.8149 C   0  0  0  0  0  0  0  0  0  0  0  0
  -17.2721   11.0691  -19.4484 C   0  0  0  0  0  0  0  0  0  0  0  0
  -17.6798   10.3394  -18.3721 C   0  0  0  0  0  0  0  0  0  0  0  0
  -18.7371   10.7174  -17.6601 N   0  0  0  0  0  0  0  0  0  0  0  0
  -19.4437   11.8190  -17.9594 C   0  0  0  0  0  0  0  0  0  0  0  0
  -19.9443   14.7589  -20.0606 C   0  0  0  0  0  0  0  0  0  0  0  0
  -20.8536   15.7246  -19.9567 C   0  0  0  0  0  0  0  0  0  0  0  0
  -21.8504   15.8283  -19.0164 O   0  0  0  0  0  0  0  0  0  0  0  0
  -22.6090   16.9669  -19.2176 C   0  0  0  0  0  0  0  0  0  0  0  0
  -23.6943   17.5083  -18.5645 C   0  0  0  0  0  0  0  0  0  0  0  0
  -24.3006   18.6889  -18.9593 C   0  0  0  0  0  0  0  0  0  0  0  0
  -23.8084   19.3725  -20.0593 C   0  0  0  0  0  0  0  0  0  0  0  0
  -22.7193   18.8532  -20.7356 C   0  0  0  0  0  0  0  0  0  0  0  0
  -22.2756   19.5826  -21.8249 O   0  0  0  0  0  0  0  0  0  0  0  0
  -22.1353   17.6771  -20.3215 C   0  0  0  0  0  0  0  0  0  0  0  0
  -21.0067   16.9038  -20.8187 C   0  0  0  0  0  0  0  0  0  0  0  0
  -20.2949   17.1916  -21.8035 O   0  0  0  0  0  0  0  0  0  0  0  0
  -21.4867   19.2394  -22.3430 H   0  0  0  0  0  0  0  0  0  0  0  0
  -17.5807   12.9646  -21.0055 C   0  0  0  0  0  0  0  0  0  0  0  0
  -17.6805   12.4109  -22.2700 C   0  0  0  0  0  0  0  0  0  0  0  0
  -17.3105   13.1086  -23.4272 C   0  0  0  0  0  0  0  0  0  0  0  0
  -16.8289   14.3843  -23.3475 C   0  0  0  0  0  0  0  0  0  0  0  0
  -16.7271   14.9460  -22.0715 C   0  0  0  0  0  0  0  0  0  0  0  0
  -17.0907   14.2595  -20.9378 C   0  0  0  0  0  0  0  0  0  0  0  0
  -16.4200   15.1824  -24.5184 C   0  0  0  0  0  0  0  0  0  0  0  0
  -17.0284   16.2711  -24.7548 O   0  0  0  0  0  0  0  0  0  0  0  0
  -15.3852   14.7961  -25.3904 N   0  0  0  0  0  0  0  0  0  0  0  0
  -14.9335   13.8470  -25.1174 H   0  0  0  0  0  0  0  0  0  0  0  0
  -14.9116   15.4992  -26.5289 C   0  0  0  0  0  0  0  0  0  0  0  0
  -15.7998   15.6309  -27.7083 C   0  0  0  0  0  0  0  0  0  0  0  0
  -16.5278   14.5272  -28.0839 O   0  0  0  0  0  0  0  0  0  0  0  0
  -16.2340   14.0949  -28.9130 H   0  0  0  0  0  0  0  0  0  0  0  0
  1  2  1  0  0  0
  2  3  1  0  0  0
  3  4  2  0  0  0
  4 11  1  0  0  0
 11 12  2  0  0  0
 12 13  1  0  0  0
 13 14  1  0  0  0
 14 15  2  0  0  0
 15 16  1  0  0  0
 16 17  2  0  0  0
 17 18  1  0  0  0
 18 19  1  0  0  0
 18 20  2  0  0  0
 20 21  1  0  0  0
 21 22  2  0  0  0
  4  5  1  0  0  0
  5  6  2  0  0  0
  6  7  1  0  0  0
  7  8  2  0  0  0
  8  9  1  0  0  0
  9 10  2  0  0  0
  6 24  1  0  0  0
 24 25  2  0  0  0
 25 26  1  0  0  0
 26 27  2  0  0  0
 27 28  1  0  0  0
 28 29  2  0  0  0
 27 30  1  0  0  0
 30 31  2  0  0  0
 30 32  1  0  0  0
 32 34  1  0  0  0
 34 35  1  0  0  0
 35 36  1  0  0  0
 10  2  1  0  0  0
 29 24  1  0  0  0
 21 12  1  0  0  0
 10  5  1  0  0  0
 20 14  1  0  0  0
 19 23  1  0  0  0
 32 33  1  0  0  0
 36 37  1  0  0  0
M  END
> <minimizedAffinity>
-8.93720

> <CNNscore>
0.2816224992

> <CNNaffinity>
6.5228261948

> <CNN_VS>
1.8369746208

> <CNNaffinity_variance>
0.0481343567

$$$$
[H]Oc1c([H])c([H])c([H])c2c1C(=O)/C(=C(\[H])c1c([H])n(C([H])([H])[H])c3nc([H])c([H])c(-c4c([H])c([H])c(C(=O)N([H])C([H])([H])C([H])([H])O[H])c([H])c4[H])c13)O2


 37 41  0  0  0  0  0  0  0  0999 V2000
  -16.4530   13.4306  -24.4080 C   0  0  0  0  0  0  0  0  0  0  0  0
  -17.0573   13.2072  -23.0877 N   0  0  0  0  0  0  0  0  0  0  0  0
  -18.0830   13.8818  -22.5812 C   0  0  0  0  0  0  0  0  0  0  0  0
  -18.4063   13.4126  -21.3014 C   0  0  0  0  0  0  0  0  0  0  0  0
  -17.5127   12.3986  -21.0360 C   0  0  0  0  0  0  0  0  0  0  0  0
  -17.3320   11.5680  -19.9754 C   0  0  0  0  0  0  0  0  0  0  0  0
  -16.3109   10.6142  -20.0531 C   0  0  0  0  0  0  0  0  0  0  0  0
  -15.5293   10.5379  -21.1669 C   0  0  0  0  0  0  0  0  0  0  0  0
  -15.7260   11.3651  -22.1890 N   0  0  0  0  0  0  0  0  0  0  0  0
  -16.6890   12.3005  -22.1765 C   0  0  0  0  0  0  0  0  0  0  0  0
  -19.4866   13.9104  -20.4765 C   0  0  0  0  0  0  0  0  0  0  0  0
  -19.4920   15.1654  -20.0347 C   0  0  0  0  0  0  0  0  0  0  0  0
  -18.5432   16.1317  -20.2684 O   0  0  0  0  0  0  0  0  0  0  0  0
  -18.8805   17.3216  -19.6496 C   0  0  0  0  0  0  0  0  0  0  0  0
  -18.2758   18.5574  -19.5820 C   0  0  0  0  0  0  0  0  0  0  0  0
  -18.8158   19.6244  -18.8842 C   0  0  0  0  0  0  0  0  0  0  0  0
  -20.0189   19.4625  -18.2163 C   0  0  0  0  0  0  0  0  0  0  0  0
  -20.6498   18.2326  -18.2661 C   0  0  0  0  0  0  0  0  0  0  0  0
  -21.8475   18.1352  -17.5792 O   0  0  0  0  0  0  0  0  0  0  0  0
  -20.0907   17.1881  -18.9676 C   0  0  0  0  0  0  0  0  0  0  0  0
  -20.5092   15.8128  -19.1960 C   0  0  0  0  0  0  0  0  0  0  0  0
  -21.5487   15.2778  -18.7569 O   0  0  0  0  0  0  0  0  0  0  0  0
  -22.3373   17.2585  -17.5907 H   0  0  0  0  0  0  0  0  0  0  0  0
  -18.1158   11.7025  -18.7605 C   0  0  0  0  0  0  0  0  0  0  0  0
  -18.1590   12.8881  -18.0479 C   0  0  0  0  0  0  0  0  0  0  0  0
  -18.9086   13.0318  -16.8730 C   0  0  0  0  0  0  0  0  0  0  0  0
  -19.6372   11.9872  -16.3794 C   0  0  0  0  0  0  0  0  0  0  0  0
  -19.5953   10.7885  -17.0973 C   0  0  0  0  0  0  0  0  0  0  0  0
  -18.8593   10.6501  -18.2496 C   0  0  0  0  0  0  0  0  0  0  0  0
  -20.4504   12.0609  -15.1512 C   0  0  0  0  0  0  0  0  0  0  0  0
  -21.5747   12.6482  -15.2006 O   0  0  0  0  0  0  0  0  0  0  0  0
  -20.0409   11.5110  -13.9222 N   0  0  0  0  0  0  0  0  0  0  0  0
  -19.0626   11.0423  -13.9731 H   0  0  0  0  0  0  0  0  0  0  0  0
  -20.7550   11.5181  -12.6955 C   0  0  0  0  0  0  0  0  0  0  0  0
  -20.2802   10.6563  -11.5870 C   0  0  0  0  0  0  0  0  0  0  0  0
  -18.9247   10.5853  -11.3709 O   0  0  0  0  0  0  0  0  0  0  0  0
  -18.5062    9.7338  -11.6167 H   0  0  0  0  0  0  0  0  0  0  0  0
  1  2  1  0  0  0
  2  3  1  0  0  0
  3  4  2  0  0  0
  4 11  1  0  0  0
 11 12  2  0  0  0
 12 13  1  0  0  0
 13 14  1  0  0  0
 14 15  2  0  0  0
 15 16  1  0  0  0
 16 17  2  0  0  0
 17 18  1  0  0  0
 18 19  1  0  0  0
 18 20  2  0  0  0
 20 21  1  0  0  0
 21 22  2  0  0  0
  4  5  1  0  0  0
  5  6  2  0  0  0
  6  7  1  0  0  0
  7  8  2  0  0  0
  8  9  1  0  0  0
  9 10  2  0  0  0
  6 24  1  0  0  0
 24 25  2  0  0  0
 25 26  1  0  0  0
 26 27  2  0  0  0
 27 28  1  0  0  0
 28 29  2  0  0  0
 27 30  1  0  0  0
 30 31  2  0  0  0
 30 32  1  0  0  0
 32 34  1  0  0  0
 34 35  1  0  0  0
 35 36  1  0  0  0
 10  2  1  0  0  0
 29 24  1  0  0  0
 21 12  1  0  0  0
 10  5  1  0  0  0
 20 14  1  0  0  0
 19 23  1  0  0  0
 32 33  1  0  0  0
 36 37  1  0  0  0
M  END
> <minimizedAffinity>
-8.82924

> <CNNscore>
0.2368753254

> <CNNaffinity>
6.3627862930

> <CNN_VS>
1.5071871281

> <CNNaffinity_variance>
0.2467321157

$$$$
[H]O[C@]1([H])C([H])([H])C([H])([H])[C@@]([H])(n2nc(C#Cc3c([H])c(N([H])C(=O)c4c([H])c([H])c(C([H])([H])[H])c(C(F)(F)F)c4[H])c([H])c([H])c3C([H])([H])[H])c3c(N([H])[H])nc([H])nc32)C([H])([H])C1([H])[H]


 44 48  0  0  0  0  0  0  0  0999 V2000
  -21.2143   14.3075  -17.6971 C   0  0  0  0  0  0  0  0  0  0  0  0
  -20.9684   13.1209  -16.8395 C   0  0  0  0  0  0  0  0  0  0  0  0
  -21.6816   12.9559  -15.6751 C   0  0  0  0  0  0  0  0  0  0  0  0
  -21.4658   11.8725  -14.8801 C   0  0  0  0  0  0  0  0  0  0  0  0
  -20.5129   10.9083  -15.2371 C   0  0  0  0  0  0  0  0  0  0  0  0
  -19.8194   11.1017  -16.4017 C   0  0  0  0  0  0  0  0  0  0  0  0
  -20.0216   12.2100  -17.2411 C   0  0  0  0  0  0  0  0  0  0  0  0
  -20.2910    9.8119  -14.3839 N   0  0  0  0  0  0  0  0  0  0  0  0
  -19.6688    9.8862  -13.1414 C   0  0  0  0  0  0  0  0  0  0  0  0
  -19.2070   10.9154  -12.5955 O   0  0  0  0  0  0  0  0  0  0  0  0
  -20.6321    8.8701  -14.7387 H   0  0  0  0  0  0  0  0  0  0  0  0
  -19.5176    8.6399  -12.3528 C   0  0  0  0  0  0  0  0  0  0  0  0
  -20.5500    7.7335  -12.3431 C   0  0  0  0  0  0  0  0  0  0  0  0
  -20.4376    6.5680  -11.6280 C   0  0  0  0  0  0  0  0  0  0  0  0
  -19.3124    6.2377  -10.8919 C   0  0  0  0  0  0  0  0  0  0  0  0
  -19.2241    4.9674  -10.1285 C   0  0  0  0  0  0  0  0  0  0  0  0
  -18.2882    7.1683  -10.9193 C   0  0  0  0  0  0  0  0  0  0  0  0
  -18.3834    8.3541  -11.6378 C   0  0  0  0  0  0  0  0  0  0  0  0
  -17.0532    6.8590  -10.1411 C   0  0  0  0  0  0  0  0  0  0  0  0
  -16.2575    5.9656  -10.8166 F   0  0  0  0  0  0  0  0  0  0  0  0
  -17.3514    6.4783   -8.8578 F   0  0  0  0  0  0  0  0  0  0  0  0
  -16.3120    8.0367  -10.0246 F   0  0  0  0  0  0  0  0  0  0  0  0
  -19.2657   12.3716  -18.4592 C   0  0  0  0  0  0  0  0  0  0  0  0
  -18.6152   12.5214  -19.4752 C   0  0  0  0  0  0  0  0  0  0  0  0
  -17.8356   12.7176  -20.6622 C   0  0  0  0  0  0  0  0  0  0  0  0
  -17.9056   13.7095  -21.5651 N   0  0  0  0  0  0  0  0  0  0  0  0
  -17.0177   13.5495  -22.5322 N   0  0  0  0  0  0  0  0  0  0  0  0
  -16.3463   12.4064  -22.2415 C   0  0  0  0  0  0  0  0  0  0  0  0
  -15.3534   11.7761  -22.8716 N   0  0  0  0  0  0  0  0  0  0  0  0
  -14.8594   10.6343  -22.3575 C   0  0  0  0  0  0  0  0  0  0  0  0
  -15.3308   10.0925  -21.2174 N   0  0  0  0  0  0  0  0  0  0  0  0
  -16.3392   10.6892  -20.5338 C   0  0  0  0  0  0  0  0  0  0  0  0
  -16.8334   10.1213  -19.3381 N   0  0  0  0  0  0  0  0  0  0  0  0
  -16.8391   11.8588  -21.0686 C   0  0  0  0  0  0  0  0  0  0  0  0
  -16.3730   10.2740  -18.4249 H   0  0  0  0  0  0  0  0  0  0  0  0
  -17.6838    9.5337  -19.3782 H   0  0  0  0  0  0  0  0  0  0  0  0
  -16.7924   14.4177  -23.6855 C   0  0  0  0  0  0  0  0  0  0  0  0
  -15.3324   14.8065  -23.6562 C   0  0  0  0  0  0  0  0  0  0  0  0
  -14.8555   15.3993  -24.9500 C   0  0  0  0  0  0  0  0  0  0  0  0
  -15.9540   15.6430  -25.9440 C   0  0  0  0  0  0  0  0  0  0  0  0
  -16.7024   16.7743  -25.6020 O   0  0  0  0  0  0  0  0  0  0  0  0
  -16.8406   14.4515  -26.1657 C   0  0  0  0  0  0  0  0  0  0  0  0
  -17.0086   13.5986  -24.9379 C   0  0  0  0  0  0  0  0  0  0  0  0
  -16.4465   17.1533  -24.7392 H   0  0  0  0  0  0  0  0  0  0  0  0
  1  2  1  0  0  0
  2  3  2  0  0  0
  3  4  1  0  0  0
  4  5  2  0  0  0
  5  8  1  0  0  0
  8  9  1  0  0  0
  9 10  2  0  0  0
  9 12  1  0  0  0
 12 13  2  0  0  0
 13 14  1  0  0  0
 14 15  2  0  0  0
 15 16  1  0  0  0
 15 17  1  0  0  0
 17 18  2  0  0  0
 17 19  1  0  0  0
 19 20  1  0  0  0
 19 21  1  0  0  0
 19 22  1  0  0  0
  5  6  1  0  0  0
  6  7  2  0  0  0
  7 23  1  0  0  0
 23 24  3  0  0  0
 24 25  1  0  0  0
 25 26  2  0  0  0
 26 27  1  0  0  0
 27 37  1  0  0  0
 37 38  1  0  0  0
 38 39  1  0  0  0
 39 40  1  0  0  0
 40 41  1  0  0  0
 40 42  1  0  0  0
 42 43  1  0  0  0
 27 28  1  0  0  0
 28 29  2  0  0  0
 29 30  1  0  0  0
 30 31  2  0  0  0
 31 32  1  0  0  0
 32 33  1  0  0  0
 32 34  2  0  0  0
  7  2  1  0  0  0
 34 25  1  0  0  0
 18 12  1  0  0  0
 43 37  1  0  0  0
 34 28  1  0  0  0
  8 11  1  0  0  0
 41 44  1  0  0  0
 33 35  1  0  0  0
 33 36  1  0  0  0
M  END
> <minimizedAffinity>
-10.30589

> <CNNscore>
0.6560176015

> <CNNaffinity>
7.4261445999

> <CNN_VS>
4.8716816902

> <CNNaffinity_variance>
0.2645142972

$$$$
[H]O[C@]1([H])C([H])([H])C([H])([H])[C@@]([H])(n2nc(C#Cc3c([H])c(N([H])C(=O)c4c([H])c([H])c(C([H])([H])[H])c(C(F)(F)F)c4[H])c([H])c([H])c3C([H])([H])[H])c3c(N([H])[H])nc([H])nc32)C([H])([H])C1([H])[H]


 44 48  0  0  0  0  0  0  0  0999 V2000
  -20.2066   10.5635  -16.6261 C   0  0  0  0  0  0  0  0  0  0  0  0
  -20.7924   11.8780  -16.2617 C   0  0  0  0  0  0  0  0  0  0  0  0
  -21.5929   11.9879  -15.1487 C   0  0  0  0  0  0  0  0  0  0  0  0
  -22.1359   13.1873  -14.8037 C   0  0  0  0  0  0  0  0  0  0  0  0
  -21.8867   14.3287  -15.5784 C   0  0  0  0  0  0  0  0  0  0  0  0
  -21.0864   14.1862  -16.6802 C   0  0  0  0  0  0  0  0  0  0  0  0
  -20.5129   12.9610  -17.0595 C   0  0  0  0  0  0  0  0  0  0  0  0
  -22.4822   15.5504  -15.2144 N   0  0  0  0  0  0  0  0  0  0  0  0
  -21.7928   16.7445  -15.0264 C   0  0  0  0  0  0  0  0  0  0  0  0
  -20.5572   16.9215  -15.1387 O   0  0  0  0  0  0  0  0  0  0  0  0
  -23.5359   15.5318  -15.0784 H   0  0  0  0  0  0  0  0  0  0  0  0
  -22.5654   17.9535  -14.6531 C   0  0  0  0  0  0  0  0  0  0  0  0
  -22.2360   18.6187  -13.4970 C   0  0  0  0  0  0  0  0  0  0  0  0
  -22.9283   19.7442  -13.1280 C   0  0  0  0  0  0  0  0  0  0  0  0
  -23.9717   20.2685  -13.8719 C   0  0  0  0  0  0  0  0  0  0  0  0
  -24.7004   21.4887  -13.4430 C   0  0  0  0  0  0  0  0  0  0  0  0
  -24.2822   19.5787  -15.0311 C   0  0  0  0  0  0  0  0  0  0  0  0
  -23.5925   18.4372  -15.4216 C   0  0  0  0  0  0  0  0  0  0  0  0
  -25.4003   20.1037  -15.8684 C   0  0  0  0  0  0  0  0  0  0  0  0
  -25.0747   21.3210  -16.4159 F   0  0  0  0  0  0  0  0  0  0  0  0
  -26.5858   20.1031  -15.1792 F   0  0  0  0  0  0  0  0  0  0  0  0
  -25.5839   19.2267  -16.9395 F   0  0  0  0  0  0  0  0  0  0  0  0
  -19.6760   12.8593  -18.2302 C   0  0  0  0  0  0  0  0  0  0  0  0
  -18.9665   12.7950  -19.2152 C   0  0  0  0  0  0  0  0  0  0  0  0
  -18.1288   12.7448  -20.3776 C   0  0  0  0  0  0  0  0  0  0  0  0
  -18.0937   13.5777  -21.4307 N   0  0  0  0  0  0  0  0  0  0  0  0
  -17.1817   13.2062  -22.3136 N   0  0  0  0  0  0  0  0  0  0  0  0
  -16.6037   12.0865  -21.8093 C   0  0  0  0  0  0  0  0  0  0  0  0
  -15.6332   11.3007  -22.2791 N   0  0  0  0  0  0  0  0  0  0  0  0
  -15.2408   10.2300  -21.5637 C   0  0  0  0  0  0  0  0  0  0  0  0
  -15.7934    9.9129  -20.3764 N   0  0  0  0  0  0  0  0  0  0  0  0
  -16.7840   10.6754  -19.8494 C   0  0  0  0  0  0  0  0  0  0  0  0
  -17.3633   10.3432  -18.6042 N   0  0  0  0  0  0  0  0  0  0  0  0
  -17.1795   11.7705  -20.5899 C   0  0  0  0  0  0  0  0  0  0  0  0
  -16.9298   10.6145  -17.7055 H   0  0  0  0  0  0  0  0  0  0  0  0
  -18.2505    9.8112  -18.5920 H   0  0  0  0  0  0  0  0  0  0  0  0
  -16.8510   13.8577  -23.5788 C   0  0  0  0  0  0  0  0  0  0  0  0
  -17.9012   14.9202  -23.8062 C   0  0  0  0  0  0  0  0  0  0  0  0
  -17.5167   15.9097  -24.8672 C   0  0  0  0  0  0  0  0  0  0  0  0
  -16.2575   15.5496  -25.6012 C   0  0  0  0  0  0  0  0  0  0  0  0
  -16.4862   14.5214  -26.5217 O   0  0  0  0  0  0  0  0  0  0  0  0
  -15.1055   15.2218  -24.6955 C   0  0  0  0  0  0  0  0  0  0  0  0
  -15.5286   14.5703  -23.4073 C   0  0  0  0  0  0  0  0  0  0  0  0
  -17.3895   14.1547  -26.4659 H   0  0  0  0  0  0  0  0  0  0  0  0
  1  2  1  0  0  0
  2  3  2  0  0  0
  3  4  1  0  0  0
  4  5  2  0  0  0
  5  8  1  0  0  0
  8  9  1  0  0  0
  9 10  2  0  0  0
  9 12  1  0  0  0
 12 13  2  0  0  0
 13 14  1  0  0  0
 14 15  2  0  0  0
 15 16  1  0  0  0
 15 17  1  0  0  0
 17 18  2  0  0  0
 17 19  1  0  0  0
 19 20  1  0  0  0
 19 21  1  0  0  0
 19 22  1  0  0  0
  5  6  1  0  0  0
  6  7  2  0  0  0
  7 23  1  0  0  0
 23 24  3  0  0  0
 24 25  1  0  0  0
 25 26  2  0  0  0
 26 27  1  0  0  0
 27 37  1  0  0  0
 37 38  1  0  0  0
 38 39  1  0  0  0
 39 40  1  0  0  0
 40 41  1  0  0  0
 40 42  1  0  0  0
 42 43  1  0  0  0
 27 28  1  0  0  0
 28 29  2  0  0  0
 29 30  1  0  0  0
 30 31  2  0  0  0
 31 32  1  0  0  0
 32 33  1  0  0  0
 32 34  2  0  0  0
  7  2  1  0  0  0
 34 25  1  0  0  0
 18 12  1  0  0  0
 43 37  1  0  0  0
 34 28  1  0  0  0
  8 11  1  0  0  0
 41 44  1  0  0  0
 33 35  1  0  0  0
 33 36  1  0  0  0
M  END
> <minimizedAffinity>
-8.60107

> <CNNscore>
0.6282030344

> <CNNaffinity>
7.3313932419

> <CNN_VS>
4.6056036949

> <CNNaffinity_variance>
0.2918433547

$$$$
[H]O[C@]1([H])C([H])([H])C([H])([H])[C@@]([H])(n2nc(C#Cc3c([H])c(N([H])C(=O)c4c([H])c([H])c(C([H])([H])[H])c(C(F)(F)F)c4[H])c([H])c([H])c3C([H])([H])[H])c3c(N([H])[H])nc([H])nc32)C([H])([H])C1([H])[H]


 44 48  0  0  0  0  0  0  0  0999 V2000
  -21.5809   15.6382  -18.9278 C   0  0  0  0  0  0  0  0  0  0  0  0
  -21.4256   14.7410  -17.7552 C   0  0  0  0  0  0  0  0  0  0  0  0
  -22.2606   14.8778  -16.6709 C   0  0  0  0  0  0  0  0  0  0  0  0
  -22.1287   14.0615  -15.5898 C   0  0  0  0  0  0  0  0  0  0  0  0
  -21.1392   13.0689  -15.5661 C   0  0  0  0  0  0  0  0  0  0  0  0
  -20.3238   12.9587  -16.6604 C   0  0  0  0  0  0  0  0  0  0  0  0
  -20.4375   13.7871  -17.7894 C   0  0  0  0  0  0  0  0  0  0  0  0
  -21.0076   12.2563  -14.4250 N   0  0  0  0  0  0  0  0  0  0  0  0
  -21.4923   10.9565  -14.3161 C   0  0  0  0  0  0  0  0  0  0  0  0
  -22.1185   10.3149  -15.1917 O   0  0  0  0  0  0  0  0  0  0  0  0
  -20.4977   12.6916  -13.6006 H   0  0  0  0  0  0  0  0  0  0  0  0
  -21.2644   10.2230  -13.0480 C   0  0  0  0  0  0  0  0  0  0  0  0
  -22.0614    9.1428  -12.7557 C   0  0  0  0  0  0  0  0  0  0  0  0
  -21.8709    8.4398  -11.5930 C   0  0  0  0  0  0  0  0  0  0  0  0
  -20.8942    8.7615  -10.6659 C   0  0  0  0  0  0  0  0  0  0  0  0
  -20.7156    7.9794   -9.4167 C   0  0  0  0  0  0  0  0  0  0  0  0
  -20.1061    9.8536  -10.9855 C   0  0  0  0  0  0  0  0  0  0  0  0
  -20.2836   10.5778  -12.1582 C   0  0  0  0  0  0  0  0  0  0  0  0
  -19.0384   10.2414  -10.0179 C   0  0  0  0  0  0  0  0  0  0  0  0
  -18.2336    9.1689   -9.7182 F   0  0  0  0  0  0  0  0  0  0  0  0
  -19.5633   10.8677   -8.9166 F   0  0  0  0  0  0  0  0  0  0  0  0
  -18.2193   11.1874  -10.6376 F   0  0  0  0  0  0  0  0  0  0  0  0
  -19.5542   13.6338  -18.9197 C   0  0  0  0  0  0  0  0  0  0  0  0
  -18.8113   13.4829  -19.8701 C   0  0  0  0  0  0  0  0  0  0  0  0
  -17.9334   13.2799  -20.9851 C   0  0  0  0  0  0  0  0  0  0  0  0
  -17.7684   14.0398  -22.0803 N   0  0  0  0  0  0  0  0  0  0  0  0
  -16.8613   13.5273  -22.8949 N   0  0  0  0  0  0  0  0  0  0  0  0
  -16.4221   12.3888  -22.3009 C   0  0  0  0  0  0  0  0  0  0  0  0
  -15.5168   11.4840  -22.6775 N   0  0  0  0  0  0  0  0  0  0  0  0
  -15.2662   10.4253  -21.8847 C   0  0  0  0  0  0  0  0  0  0  0  0
  -15.8992   10.2369  -20.7103 N   0  0  0  0  0  0  0  0  0  0  0  0
  -16.8293   11.1240  -20.2762 C   0  0  0  0  0  0  0  0  0  0  0  0
  -17.4928   10.9266  -19.0444 N   0  0  0  0  0  0  0  0  0  0  0  0
  -17.0793   12.2057  -21.0955 C   0  0  0  0  0  0  0  0  0  0  0  0
  -17.0735   11.2079  -18.1420 H   0  0  0  0  0  0  0  0  0  0  0  0
  -18.4290   10.4865  -19.0461 H   0  0  0  0  0  0  0  0  0  0  0  0
  -16.4117   14.0651  -24.1768 C   0  0  0  0  0  0  0  0  0  0  0  0
  -17.1614   15.3596  -24.3903 C   0  0  0  0  0  0  0  0  0  0  0  0
  -16.5675   16.2115  -25.4739 C   0  0  0  0  0  0  0  0  0  0  0  0
  -15.4640   15.5368  -26.2362 C   0  0  0  0  0  0  0  0  0  0  0  0
  -15.9745   14.5960  -27.1369 O   0  0  0  0  0  0  0  0  0  0  0  0
  -14.4084   14.9303  -25.3571 C   0  0  0  0  0  0  0  0  0  0  0  0
  -14.9466   14.4165  -24.0497 C   0  0  0  0  0  0  0  0  0  0  0  0
  -16.9396   14.4730  -27.0524 H   0  0  0  0  0  0  0  0  0  0  0  0
  1  2  1  0  0  0
  2  3  2  0  0  0
  3  4  1  0  0  0
  4  5  2  0  0  0
  5  8  1  0  0  0
  8  9  1  0  0  0
  9 10  2  0  0  0
  9 12  1  0  0  0
 12 13  2  0  0  0
 13 14  1  0  0  0
 14 15  2  0  0  0
 15 16  1  0  0  0
 15 17  1  0  0  0
 17 18  2  0  0  0
 17 19  1  0  0  0
 19 20  1  0  0  0
 19 21  1  0  0  0
 19 22  1  0  0  0
  5  6  1  0  0  0
  6  7  2  0  0  0
  7 23  1  0  0  0
 23 24  3  0  0  0
 24 25  1  0  0  0
 25 26  2  0  0  0
 26 27  1  0  0  0
 27 37  1  0  0  0
 37 38  1  0  0  0
 38 39  1  0  0  0
 39 40  1  0  0  0
 40 41  1  0  0  0
 40 42  1  0  0  0
 42 43  1  0  0  0
 27 28  1  0  0  0
 28 29  2  0  0  0
 29 30  1  0  0  0
 30 31  2  0  0  0
 31 32  1  0  0  0
 32 33  1  0  0  0
 32 34  2  0  0  0
  7  2  1  0  0  0
 34 25  1  0  0  0
 18 12  1  0  0  0
 43 37  1  0  0  0
 34 28  1  0  0  0
  8 11  1  0  0  0
 41 44  1  0  0  0
 33 35  1  0  0  0
 33 36  1  0  0  0
M  END
> <minimizedAffinity>
-9.12979

> <CNNscore>
0.6264074445

> <CNNaffinity>
7.4874372482

> <CNN_VS>
4.6901865005

> <CNNaffinity_variance>
0.3722408712

$$$$
[H]O[C@]1([H])C([H])([H])C([H])([H])[C@@]([H])(n2nc(C#Cc3c([H])c(N([H])C(=O)c4c([H])c([H])c(C([H])([H])[H])c(C(F)(F)F)c4[H])c([H])c([H])c3C([H])([H])[H])c3c(N([H])[H])nc([H])nc32)C([H])([H])C1([H])[H]


 44 48  0  0  0  0  0  0  0  0999 V2000
  -20.2800    9.9847  -16.6774 C   0  0  0  0  0  0  0  0  0  0  0  0
  -20.7585   11.2638  -16.0952 C   0  0  0  0  0  0  0  0  0  0  0  0
  -21.5218   11.2543  -14.9512 C   0  0  0  0  0  0  0  0  0  0  0  0
  -21.9666   12.4200  -14.4074 C   0  0  0  0  0  0  0  0  0  0  0  0
  -21.6527   13.6480  -15.0061 C   0  0  0  0  0  0  0  0  0  0  0  0
  -20.8917   13.6237  -16.1440 C   0  0  0  0  0  0  0  0  0  0  0  0
  -20.4192   12.4358  -16.7267 C   0  0  0  0  0  0  0  0  0  0  0  0
  -22.1476   14.8364  -14.4382 N   0  0  0  0  0  0  0  0  0  0  0  0
  -23.2535   15.5392  -14.9064 C   0  0  0  0  0  0  0  0  0  0  0  0
  -23.9676   15.2415  -15.8922 O   0  0  0  0  0  0  0  0  0  0  0  0
  -21.6193   15.2025  -13.5920 H   0  0  0  0  0  0  0  0  0  0  0  0
  -23.6591   16.7731  -14.1916 C   0  0  0  0  0  0  0  0  0  0  0  0
  -24.9071   17.2960  -14.4294 C   0  0  0  0  0  0  0  0  0  0  0  0
  -25.3138   18.4332  -13.7785 C   0  0  0  0  0  0  0  0  0  0  0  0
  -24.5194   19.1086  -12.8676 C   0  0  0  0  0  0  0  0  0  0  0  0
  -24.9907   20.3376  -12.1810 C   0  0  0  0  0  0  0  0  0  0  0  0
  -23.2677   18.5602  -12.6472 C   0  0  0  0  0  0  0  0  0  0  0  0
  -22.8381   17.4092  -13.2966 C   0  0  0  0  0  0  0  0  0  0  0  0
  -22.3727   19.2516  -11.6737 C   0  0  0  0  0  0  0  0  0  0  0  0
  -22.8877   19.1878  -10.4016 F   0  0  0  0  0  0  0  0  0  0  0  0
  -22.0689   20.5232  -12.0876 F   0  0  0  0  0  0  0  0  0  0  0  0
  -21.1583   18.5629  -11.6419 F   0  0  0  0  0  0  0  0  0  0  0  0
  -19.6204   12.4599  -17.9278 C   0  0  0  0  0  0  0  0  0  0  0  0
  -18.9441   12.5017  -18.9372 C   0  0  0  0  0  0  0  0  0  0  0  0
  -18.1473   12.5766  -20.1265 C   0  0  0  0  0  0  0  0  0  0  0  0
  -18.1720   13.4976  -21.1039 N   0  0  0  0  0  0  0  0  0  0  0  0
  -17.2823   13.2308  -22.0453 N   0  0  0  0  0  0  0  0  0  0  0  0
  -16.6570   12.0896  -21.6598 C   0  0  0  0  0  0  0  0  0  0  0  0
  -15.6831   11.3763  -22.2280 N   0  0  0  0  0  0  0  0  0  0  0  0
  -15.2369   10.2602  -21.6218 C   0  0  0  0  0  0  0  0  0  0  0  0
  -15.7383    9.8259  -20.4490 N   0  0  0  0  0  0  0  0  0  0  0  0
  -16.7295   10.5104  -19.8251 C   0  0  0  0  0  0  0  0  0  0  0  0
  -17.2552   10.0552  -18.5951 N   0  0  0  0  0  0  0  0  0  0  0  0
  -17.1803   11.6528  -20.4541 C   0  0  0  0  0  0  0  0  0  0  0  0
  -16.7974   10.2610  -17.6910 H   0  0  0  0  0  0  0  0  0  0  0  0
  -18.1268    9.4980  -18.5998 H   0  0  0  0  0  0  0  0  0  0  0  0
  -17.0143   13.9983  -23.2593 C   0  0  0  0  0  0  0  0  0  0  0  0
  -18.1904   14.9272  -23.4528 C   0  0  0  0  0  0  0  0  0  0  0  0
  -17.9178   16.0233  -24.4413 C   0  0  0  0  0  0  0  0  0  0  0  0
  -16.6074   15.8771  -25.1592 C   0  0  0  0  0  0  0  0  0  0  0  0
  -16.6797   14.8880  -26.1457 O   0  0  0  0  0  0  0  0  0  0  0  0
  -15.4411   15.6456  -24.2421 C   0  0  0  0  0  0  0  0  0  0  0  0
  -15.8011   14.8647  -23.0077 C   0  0  0  0  0  0  0  0  0  0  0  0
  -17.5279   14.4040  -26.1378 H   0  0  0  0  0  0  0  0  0  0  0  0
  1  2  1  0  0  0
  2  3  2  0  0  0
  3  4  1  0  0  0
  4  5  2  0  0  0
  5  8  1  0  0  0
  8  9  1  0  0  0
  9 10  2  0  0  0
  9 12  1  0  0  0
 12 13  2  0  0  0
 13 14  1  0  0  0
 14 15  2  0  0  0
 15 16  1  0  0  0
 15 17  1  0  0  0
 17 18  2  0  0  0
 17 19  1  0  0  0
 19 20  1  0  0  0
 19 21  1  0  0  0
 19 22  1  0  0  0
  5  6  1  0  0  0
  6  7  2  0  0  0
  7 23  1  0  0  0
 23 24  3  0  0  0
 24 25  1  0  0  0
 25 26  2  0  0  0
 26 27  1  0  0  0
 27 37  1  0  0  0
 37 38  1  0  0  0
 38 39  1  0  0  0
 39 40  1  0  0  0
 40 41  1  0  0  0
 40 42  1  0  0  0
 42 43  1  0  0  0
 27 28  1  0  0  0
 28 29  2  0  0  0
 29 30  1  0  0  0
 30 31  2  0  0  0
 31 32  1  0  0  0
 32 33  1  0  0  0
 32 34  2  0  0  0
  7  2  1  0  0  0
 34 25  1  0  0  0
 18 12  1  0  0  0
 43 37  1  0  0  0
 34 28  1  0  0  0
  8 11  1  0  0  0
 41 44  1  0  0  0
 33 35  1  0  0  0
 33 36  1  0  0  0
M  END
> <minimizedAffinity>
-8.72837

> <CNNscore>
0.6232803464

> <CNNaffinity>
7.2584114075

> <CNN_VS>
4.5240249634

> <CNNaffinity_variance>
0.4905604422

$$$$
[H]O[C@]1([H])C([H])([H])C([H])([H])[C@@]([H])(n2nc(C#Cc3c([H])c(N([H])C(=O)c4c([H])c([H])c(C([H])([H])[H])c(C(F)(F)F)c4[H])c([H])c([H])c3C([H])([H])[H])c3c(N([H])[H])nc([H])nc32)C([H])([H])C1([H])[H]


 44 48  0  0  0  0  0  0  0  0999 V2000
  -21.8425   16.1450  -19.0728 C   0  0  0  0  0  0  0  0  0  0  0  0
  -21.7134   15.2569  -17.8902 C   0  0  0  0  0  0  0  0  0  0  0  0
  -22.5291   15.4442  -16.7988 C   0  0  0  0  0  0  0  0  0  0  0  0
  -22.4208   14.6369  -15.7084 C   0  0  0  0  0  0  0  0  0  0  0  0
  -21.4756   13.6020  -15.6823 C   0  0  0  0  0  0  0  0  0  0  0  0
  -20.6785   13.4419  -16.7839 C   0  0  0  0  0  0  0  0  0  0  0  0
  -20.7686   14.2600  -17.9225 C   0  0  0  0  0  0  0  0  0  0  0  0
  -21.3666   12.7991  -14.5320 N   0  0  0  0  0  0  0  0  0  0  0  0
  -20.6073   11.6363  -14.4448 C   0  0  0  0  0  0  0  0  0  0  0  0
  -19.9197   11.1207  -15.3569 O   0  0  0  0  0  0  0  0  0  0  0  0
  -21.9150   13.1266  -13.6828 H   0  0  0  0  0  0  0  0  0  0  0  0
  -20.5852   10.9036  -13.1561 C   0  0  0  0  0  0  0  0  0  0  0  0
  -19.3751   10.5056  -12.6417 C   0  0  0  0  0  0  0  0  0  0  0  0
  -19.3214    9.8314  -11.4479 C   0  0  0  0  0  0  0  0  0  0  0  0
  -20.4469    9.5171  -10.7055 C   0  0  0  0  0  0  0  0  0  0  0  0
  -20.3531    8.7855   -9.4170 C   0  0  0  0  0  0  0  0  0  0  0  0
  -21.6521    9.9297  -11.2469 C   0  0  0  0  0  0  0  0  0  0  0  0
  -21.7266   10.6137  -12.4543 C   0  0  0  0  0  0  0  0  0  0  0  0
  -22.8955    9.6145  -10.4845 C   0  0  0  0  0  0  0  0  0  0  0  0
  -22.9885    8.2673  -10.2312 F   0  0  0  0  0  0  0  0  0  0  0  0
  -24.0046   10.1437  -11.0932 F   0  0  0  0  0  0  0  0  0  0  0  0
  -22.8088   10.2440   -9.2410 F   0  0  0  0  0  0  0  0  0  0  0  0
  -19.9058   14.0535  -19.0602 C   0  0  0  0  0  0  0  0  0  0  0  0
  -19.1663   13.8960  -20.0121 C   0  0  0  0  0  0  0  0  0  0  0  0
  -18.2826   13.7325  -21.1291 C   0  0  0  0  0  0  0  0  0  0  0  0
  -18.1257   14.5208  -22.2052 N   0  0  0  0  0  0  0  0  0  0  0  0
  -17.2091   14.0411  -23.0292 N   0  0  0  0  0  0  0  0  0  0  0  0
  -16.7551   12.8952  -22.4613 C   0  0  0  0  0  0  0  0  0  0  0  0
  -15.8358   12.0128  -22.8567 N   0  0  0  0  0  0  0  0  0  0  0  0
  -15.5720   10.9390  -22.0888 C   0  0  0  0  0  0  0  0  0  0  0  0
  -16.2053   10.7134  -20.9212 N   0  0  0  0  0  0  0  0  0  0  0  0
  -17.1493   11.5763  -20.4687 C   0  0  0  0  0  0  0  0  0  0  0  0
  -17.8131   11.3399  -19.2440 N   0  0  0  0  0  0  0  0  0  0  0  0
  -17.4127   12.6737  -21.2626 C   0  0  0  0  0  0  0  0  0  0  0  0
  -17.4003   11.6054  -18.3339 H   0  0  0  0  0  0  0  0  0  0  0  0
  -18.7428   10.8864  -19.2590 H   0  0  0  0  0  0  0  0  0  0  0  0
  -16.7640   14.6160  -24.2965 C   0  0  0  0  0  0  0  0  0  0  0  0
  -15.2624   14.7583  -24.2037 C   0  0  0  0  0  0  0  0  0  0  0  0
  -14.6110   14.9980  -25.5345 C   0  0  0  0  0  0  0  0  0  0  0  0
  -15.5870   15.2177  -26.6539 C   0  0  0  0  0  0  0  0  0  0  0  0
  -16.1403   16.5012  -26.5968 O   0  0  0  0  0  0  0  0  0  0  0  0
  -16.6575   14.1677  -26.7341 C   0  0  0  0  0  0  0  0  0  0  0  0
  -17.0480   13.6129  -25.3915 C   0  0  0  0  0  0  0  0  0  0  0  0
  -15.8726   16.9958  -25.7984 H   0  0  0  0  0  0  0  0  0  0  0  0
  1  2  1  0  0  0
  2  3  2  0  0  0
  3  4  1  0  0  0
  4  5  2  0  0  0
  5  8  1  0  0  0
  8  9  1  0  0  0
  9 10  2  0  0  0
  9 12  1  0  0  0
 12 13  2  0  0  0
 13 14  1  0  0  0
 14 15  2  0  0  0
 15 16  1  0  0  0
 15 17  1  0  0  0
 17 18  2  0  0  0
 17 19  1  0  0  0
 19 20  1  0  0  0
 19 21  1  0  0  0
 19 22  1  0  0  0
  5  6  1  0  0  0
  6  7  2  0  0  0
  7 23  1  0  0  0
 23 24  3  0  0  0
 24 25  1  0  0  0
 25 26  2  0  0  0
 26 27  1  0  0  0
 27 37  1  0  0  0
 37 38  1  0  0  0
 38 39  1  0  0  0
 39 40  1  0  0  0
 40 41  1  0  0  0
 40 42  1  0  0  0
 42 43  1  0  0  0
 27 28  1  0  0  0
 28 29  2  0  0  0
 29 30  1  0  0  0
 30 31  2  0  0  0
 31 32  1  0  0  0
 32 33  1  0  0  0
 32 34  2  0  0  0
  7  2  1  0  0  0
 34 25  1  0  0  0
 18 12  1  0  0  0
 43 37  1  0  0  0
 34 28  1  0  0  0
  8 11  1  0  0  0
 41 44  1  0  0  0
 33 35  1  0  0  0
 33 36  1  0  0  0
M  END
> <minimizedAffinity>
-9.09065

> <CNNscore>
0.5258776546

> <CNNaffinity>
7.3685059547

> <CNN_VS>
3.8749325275

> <CNNaffinity_variance>
0.4398939013

$$$$
[H]O[C@]1([H])C([H])([H])C([H])([H])[C@@]([H])(n2nc(C#Cc3c([H])c(N([H])C(=O)c4c([H])c([H])c(C([H])([H])[H])c(C(F)(F)F)c4[H])c([H])c([H])c3C([H])([H])[H])c3c(N([H])[H])nc([H])nc32)C([H])([H])C1([H])[H]


 44 48  0  0  0  0  0  0  0  0999 V2000
  -16.7974   10.3566  -19.8087 C   0  0  0  0  0  0  0  0  0  0  0  0
  -17.8386   10.5262  -18.7641 C   0  0  0  0  0  0  0  0  0  0  0  0
  -18.0224    9.5496  -17.8133 C   0  0  0  0  0  0  0  0  0  0  0  0
  -18.9734    9.6930  -16.8502 C   0  0  0  0  0  0  0  0  0  0  0  0
  -19.7796   10.8391  -16.8135 C   0  0  0  0  0  0  0  0  0  0  0  0
  -19.5722   11.7925  -17.7741 C   0  0  0  0  0  0  0  0  0  0  0  0
  -18.5983   11.6708  -18.7793 C   0  0  0  0  0  0  0  0  0  0  0  0
  -20.7730   10.9498  -15.8232 N   0  0  0  0  0  0  0  0  0  0  0  0
  -20.5269   11.1999  -14.4767 C   0  0  0  0  0  0  0  0  0  0  0  0
  -19.4069   11.3548  -13.9362 O   0  0  0  0  0  0  0  0  0  0  0  0
  -21.7753   10.8283  -16.1545 H   0  0  0  0  0  0  0  0  0  0  0  0
  -21.6840   11.2993  -13.5551 C   0  0  0  0  0  0  0  0  0  0  0  0
  -22.2473   10.1428  -13.0728 C   0  0  0  0  0  0  0  0  0  0  0  0
  -23.3150   10.2022  -12.2132 C   0  0  0  0  0  0  0  0  0  0  0  0
  -23.8783   11.3933  -11.7878 C   0  0  0  0  0  0  0  0  0  0  0  0
  -25.0345   11.4217  -10.8570 C   0  0  0  0  0  0  0  0  0  0  0  0
  -23.2914   12.5424  -12.2890 C   0  0  0  0  0  0  0  0  0  0  0  0
  -22.2094   12.5024  -13.1602 C   0  0  0  0  0  0  0  0  0  0  0  0
  -23.8625   13.8527  -11.8606 C   0  0  0  0  0  0  0  0  0  0  0  0
  -23.6527   14.0654  -10.5196 F   0  0  0  0  0  0  0  0  0  0  0  0
  -25.1728   13.9784  -12.2454 F   0  0  0  0  0  0  0  0  0  0  0  0
  -23.1715   14.8633  -12.5324 F   0  0  0  0  0  0  0  0  0  0  0  0
  -18.4167   12.7022  -19.7715 C   0  0  0  0  0  0  0  0  0  0  0  0
  -18.2522   13.5830  -20.5931 C   0  0  0  0  0  0  0  0  0  0  0  0
  -18.0491   14.6370  -21.5434 C   0  0  0  0  0  0  0  0  0  0  0  0
  -18.5616   15.8785  -21.5512 N   0  0  0  0  0  0  0  0  0  0  0  0
  -18.1420   16.5707  -22.5971 N   0  0  0  0  0  0  0  0  0  0  0  0
  -17.3243   15.7414  -23.2939 C   0  0  0  0  0  0  0  0  0  0  0  0
  -16.6340   15.9180  -24.4219 N   0  0  0  0  0  0  0  0  0  0  0  0
  -15.8852   14.9100  -24.9072 C   0  0  0  0  0  0  0  0  0  0  0  0
  -15.8012   13.7131  -24.2942 N   0  0  0  0  0  0  0  0  0  0  0  0
  -16.4809   13.4761  -23.1443 C   0  0  0  0  0  0  0  0  0  0  0  0
  -16.3925   12.2210  -22.5013 N   0  0  0  0  0  0  0  0  0  0  0  0
  -17.2456   14.5151  -22.6548 C   0  0  0  0  0  0  0  0  0  0  0  0
  -15.6099   11.9800  -21.8699 H   0  0  0  0  0  0  0  0  0  0  0  0
  -17.1356   11.5209  -22.6678 H   0  0  0  0  0  0  0  0  0  0  0  0
  -18.4801   17.9486  -22.9457 C   0  0  0  0  0  0  0  0  0  0  0  0
  -19.9168   17.9368  -23.4139 C   0  0  0  0  0  0  0  0  0  0  0  0
  -20.5278   19.3065  -23.4722 C   0  0  0  0  0  0  0  0  0  0  0  0
  -19.5479   20.4161  -23.2220 C   0  0  0  0  0  0  0  0  0  0  0  0
  -18.7376   20.6360  -24.3408 O   0  0  0  0  0  0  0  0  0  0  0  0
  -18.7222   20.2221  -21.9828 C   0  0  0  0  0  0  0  0  0  0  0  0
  -18.4320   18.7771  -21.6818 C   0  0  0  0  0  0  0  0  0  0  0  0
  -18.8815   19.9799  -25.0497 H   0  0  0  0  0  0  0  0  0  0  0  0
  1  2  1  0  0  0
  2  3  2  0  0  0
  3  4  1  0  0  0
  4  5  2  0  0  0
  5  8  1  0  0  0
  8  9  1  0  0  0
  9 10  2  0  0  0
  9 12  1  0  0  0
 12 13  2  0  0  0
 13 14  1  0  0  0
 14 15  2  0  0  0
 15 16  1  0  0  0
 15 17  1  0  0  0
 17 18  2  0  0  0
 17 19  1  0  0  0
 19 20  1  0  0  0
 19 21  1  0  0  0
 19 22  1  0  0  0
  5  6  1  0  0  0
  6  7  2  0  0  0
  7 23  1  0  0  0
 23 24  3  0  0  0
 24 25  1  0  0  0
 25 26  2  0  0  0
 26 27  1  0  0  0
 27 37  1  0  0  0
 37 38  1  0  0  0
 38 39  1  0  0  0
 39 40  1  0  0  0
 40 41  1  0  0  0
 40 42  1  0  0  0
 42 43  1  0  0  0
 27 28  1  0  0  0
 28 29  2  0  0  0
 29 30  1  0  0  0
 30 31  2  0  0  0
 31 32  1  0  0  0
 32 33  1  0  0  0
 32 34  2  0  0  0
  7  2  1  0  0  0
 34 25  1  0  0  0
 18 12  1  0  0  0
 43 37  1  0  0  0
 34 28  1  0  0  0
  8 11  1  0  0  0
 41 44  1  0  0  0
 33 35  1  0  0  0
 33 36  1  0  0  0
M  END
> <minimizedAffinity>
-8.99780

> <CNNscore>
0.1453474760

> <CNNaffinity>
6.9577546120

> <CNN_VS>
1.0112921000

> <CNNaffinity_variance>
0.2214130908

$$$$
[H]O[C@]1([H])C([H])([H])C([H])([H])[C@@]([H])(n2nc(C#Cc3c([H])c(N([H])C(=O)c4c([H])c([H])c(C([H])([H])[H])c(C(F)(F)F)c4[H])c([H])c([H])c3C([H])([H])[H])c3c(N([H])[H])nc([H])nc32)C([H])([H])C1([H])[H]


 44 48  0  0  0  0  0  0  0  0999 V2000
  -16.3175   10.9173  -21.2184 C   0  0  0  0  0  0  0  0  0  0  0  0
  -17.2025   10.9515  -20.0269 C   0  0  0  0  0  0  0  0  0  0  0  0
  -17.2281    9.8840  -19.1600 C   0  0  0  0  0  0  0  0  0  0  0  0
  -18.0349    9.9029  -18.0640 C   0  0  0  0  0  0  0  0  0  0  0  0
  -18.8519   11.0117  -17.8028 C   0  0  0  0  0  0  0  0  0  0  0  0
  -18.8038   12.0578  -18.6849 C   0  0  0  0  0  0  0  0  0  0  0  0
  -17.9808   12.0652  -19.8235 C   0  0  0  0  0  0  0  0  0  0  0  0
  -19.6960   10.9940  -16.6773 N   0  0  0  0  0  0  0  0  0  0  0  0
  -20.0913    9.8447  -15.9997 C   0  0  0  0  0  0  0  0  0  0  0  0
  -19.7756    8.6646  -16.2792 O   0  0  0  0  0  0  0  0  0  0  0  0
  -20.0434   11.9406  -16.3418 H   0  0  0  0  0  0  0  0  0  0  0  0
  -20.9783    9.9913  -14.8208 C   0  0  0  0  0  0  0  0  0  0  0  0
  -22.3230    9.7529  -14.9705 C   0  0  0  0  0  0  0  0  0  0  0  0
  -23.1685    9.8740  -13.8968 C   0  0  0  0  0  0  0  0  0  0  0  0
  -22.7372   10.2329  -12.6310 C   0  0  0  0  0  0  0  0  0  0  0  0
  -23.6798   10.3554  -11.4906 C   0  0  0  0  0  0  0  0  0  0  0  0
  -21.3785   10.4671  -12.5088 C   0  0  0  0  0  0  0  0  0  0  0  0
  -20.5065   10.3493  -13.5844 C   0  0  0  0  0  0  0  0  0  0  0  0
  -20.8634   10.8575  -11.1638 C   0  0  0  0  0  0  0  0  0  0  0  0
  -21.1554    9.8954  -10.2275 F   0  0  0  0  0  0  0  0  0  0  0  0
  -21.2775   12.1173  -10.8146 F   0  0  0  0  0  0  0  0  0  0  0  0
  -19.4705   10.9236  -11.2393 F   0  0  0  0  0  0  0  0  0  0  0  0
  -17.9645   13.1911  -20.7254 C   0  0  0  0  0  0  0  0  0  0  0  0
  -17.9713   14.1444  -21.4797 C   0  0  0  0  0  0  0  0  0  0  0  0
  -18.0048   15.2709  -22.3657 C   0  0  0  0  0  0  0  0  0  0  0  0
  -18.7680   16.3743  -22.3017 N   0  0  0  0  0  0  0  0  0  0  0  0
  -18.5144   17.1991  -23.3040 N   0  0  0  0  0  0  0  0  0  0  0  0
  -17.5469   16.6033  -24.0463 C   0  0  0  0  0  0  0  0  0  0  0  0
  -16.9208   16.9871  -25.1602 N   0  0  0  0  0  0  0  0  0  0  0  0
  -15.9809   16.1901  -25.7020 C   0  0  0  0  0  0  0  0  0  0  0  0
  -15.6399   15.0045  -25.1604 N   0  0  0  0  0  0  0  0  0  0  0  0
  -16.2428   14.5627  -24.0282 C   0  0  0  0  0  0  0  0  0  0  0  0
  -15.8850   13.3195  -23.4599 N   0  0  0  0  0  0  0  0  0  0  0  0
  -17.2048   15.3863  -23.4803 C   0  0  0  0  0  0  0  0  0  0  0  0
  -15.0629   13.2131  -22.8418 H   0  0  0  0  0  0  0  0  0  0  0  0
  -16.4651   12.4890  -23.6693 H   0  0  0  0  0  0  0  0  0  0  0  0
  -19.1394   18.4923  -23.5718 C   0  0  0  0  0  0  0  0  0  0  0  0
  -20.6292   18.2940  -23.4155 C   0  0  0  0  0  0  0  0  0  0  0  0
  -21.3864   19.5853  -23.3073 C   0  0  0  0  0  0  0  0  0  0  0  0
  -20.5412   20.8029  -23.5464 C   0  0  0  0  0  0  0  0  0  0  0  0
  -20.2754   20.9733  -24.9092 O   0  0  0  0  0  0  0  0  0  0  0  0
  -19.2754   20.8252  -22.7389 C   0  0  0  0  0  0  0  0  0  0  0  0
  -18.7041   19.4559  -22.4910 C   0  0  0  0  0  0  0  0  0  0  0  0
  -20.6008   20.2324  -25.4559 H   0  0  0  0  0  0  0  0  0  0  0  0
  1  2  1  0  0  0
  2  3  2  0  0  0
  3  4  1  0  0  0
  4  5  2  0  0  0
  5  8  1  0  0  0
  8  9  1  0  0  0
  9 10  2  0  0  0
  9 12  1  0  0  0
 12 13  2  0  0  0
 13 14  1  0  0  0
 14 15  2  0  0  0
 15 16  1  0  0  0
 15 17  1  0  0  0
 17 18  2  0  0  0
 17 19  1  0  0  0
 19 20  1  0  0  0
 19 21  1  0  0  0
 19 22  1  0  0  0
  5  6  1  0  0  0
  6  7  2  0  0  0
  7 23  1  0  0  0
 23 24  3  0  0  0
 24 25  1  0  0  0
 25 26  2  0  0  0
 26 27  1  0  0  0
 27 37  1  0  0  0
 37 38  1  0  0  0
 38 39  1  0  0  0
 39 40  1  0  0  0
 40 41  1  0  0  0
 40 42  1  0  0  0
 42 43  1  0  0  0
 27 28  1  0  0  0
 28 29  2  0  0  0
 29 30  1  0  0  0
 30 31  2  0  0  0
 31 32  1  0  0  0
 32 33  1  0  0  0
 32 34  2  0  0  0
  7  2  1  0  0  0
 34 25  1  0  0  0
 18 12  1  0  0  0
 43 37  1  0  0  0
 34 28  1  0  0  0
  8 11  1  0  0  0
 41 44  1  0  0  0
 33 35  1  0  0  0
 33 36  1  0  0  0
M  END
> <minimizedAffinity>
-9.69439

> <CNNscore>
0.1421423554

> <CNNaffinity>
6.7244338989

> <CNN_VS>
0.9558268785

> <CNNaffinity_variance>
0.0743393525

$$$$
[H]O[C@]1([H])C([H])([H])C([H])([H])[C@@]([H])(n2nc(C#Cc3c([H])c(N([H])C(=O)c4c([H])c([H])c(C([H])([H])[H])c(C(F)(F)F)c4[H])c([H])c([H])c3C([H])([H])[H])c3c(N([H])[H])nc([H])nc32)C([H])([H])C1([H])[H]


 44 48  0  0  0  0  0  0  0  0999 V2000
  -16.0345   10.9520  -21.1399 C   0  0  0  0  0  0  0  0  0  0  0  0
  -17.0244   10.9143  -20.0342 C   0  0  0  0  0  0  0  0  0  0  0  0
  -17.0717    9.8280  -19.1920 C   0  0  0  0  0  0  0  0  0  0  0  0
  -17.9745    9.7812  -18.1745 C   0  0  0  0  0  0  0  0  0  0  0  0
  -18.8695   10.8406  -17.9701 C   0  0  0  0  0  0  0  0  0  0  0  0
  -18.7973   11.9070  -18.8257 C   0  0  0  0  0  0  0  0  0  0  0  0
  -17.8759   11.9819  -19.8837 C   0  0  0  0  0  0  0  0  0  0  0  0
  -19.8100   10.7547  -16.9272 N   0  0  0  0  0  0  0  0  0  0  0  0
  -20.6930   11.7688  -16.5693 C   0  0  0  0  0  0  0  0  0  0  0  0
  -20.7871   12.9011  -17.0980 O   0  0  0  0  0  0  0  0  0  0  0  0
  -19.8255    9.8384  -16.3894 H   0  0  0  0  0  0  0  0  0  0  0  0
  -21.6345   11.5218  -15.4510 C   0  0  0  0  0  0  0  0  0  0  0  0
  -21.7575   12.4726  -14.4670 C   0  0  0  0  0  0  0  0  0  0  0  0
  -22.6251   12.2759  -13.4225 C   0  0  0  0  0  0  0  0  0  0  0  0
  -23.4097   11.1424  -13.2941 C   0  0  0  0  0  0  0  0  0  0  0  0
  -24.3383   10.9611  -12.1501 C   0  0  0  0  0  0  0  0  0  0  0  0
  -23.2658   10.2014  -14.2990 C   0  0  0  0  0  0  0  0  0  0  0  0
  -22.3927   10.3829  -15.3647 C   0  0  0  0  0  0  0  0  0  0  0  0
  -24.0899    8.9608  -14.2063 C   0  0  0  0  0  0  0  0  0  0  0  0
  -25.4288    9.2515  -14.3089 F   0  0  0  0  0  0  0  0  0  0  0  0
  -23.7642    8.2243  -13.0964 F   0  0  0  0  0  0  0  0  0  0  0  0
  -23.7770    8.1538  -15.3021 F   0  0  0  0  0  0  0  0  0  0  0  0
  -17.8377   13.1268  -20.7606 C   0  0  0  0  0  0  0  0  0  0  0  0
  -17.8116   14.1043  -21.4829 C   0  0  0  0  0  0  0  0  0  0  0  0
  -17.7926   15.2707  -22.3162 C   0  0  0  0  0  0  0  0  0  0  0  0
  -18.3329   16.4795  -22.0907 N   0  0  0  0  0  0  0  0  0  0  0  0
  -18.1059   17.3082  -23.0962 N   0  0  0  0  0  0  0  0  0  0  0  0
  -17.3891   16.6049  -24.0092 C   0  0  0  0  0  0  0  0  0  0  0  0
  -16.8945   16.9442  -25.2010 N   0  0  0  0  0  0  0  0  0  0  0  0
  -16.2068   16.0357  -25.9179 C   0  0  0  0  0  0  0  0  0  0  0  0
  -15.9930   14.7804  -25.4777 N   0  0  0  0  0  0  0  0  0  0  0  0
  -16.4721   14.3791  -24.2736 C   0  0  0  0  0  0  0  0  0  0  0  0
  -16.2476   13.0627  -23.8117 N   0  0  0  0  0  0  0  0  0  0  0  0
  -17.1756   15.3171  -23.5462 C   0  0  0  0  0  0  0  0  0  0  0  0
  -15.3673   12.7857  -23.3453 H   0  0  0  0  0  0  0  0  0  0  0  0
  -16.9887   12.3534  -23.9448 H   0  0  0  0  0  0  0  0  0  0  0  0
  -18.5327   18.7004  -23.2152 C   0  0  0  0  0  0  0  0  0  0  0  0
  -20.0023   18.6744  -23.5660 C   0  0  0  0  0  0  0  0  0  0  0  0
  -20.6754   20.0027  -23.3783 C   0  0  0  0  0  0  0  0  0  0  0  0
  -19.7272   21.1192  -23.0488 C   0  0  0  0  0  0  0  0  0  0  0  0
  -19.0262   21.5380  -24.1846 O   0  0  0  0  0  0  0  0  0  0  0  0
  -18.7907   20.8000  -21.9192 C   0  0  0  0  0  0  0  0  0  0  0  0
  -18.4128   19.3454  -21.8530 C   0  0  0  0  0  0  0  0  0  0  0  0
  -19.2013   20.9804  -24.9669 H   0  0  0  0  0  0  0  0  0  0  0  0
  1  2  1  0  0  0
  2  3  2  0  0  0
  3  4  1  0  0  0
  4  5  2  0  0  0
  5  8  1  0  0  0
  8  9  1  0  0  0
  9 10  2  0  0  0
  9 12  1  0  0  0
 12 13  2  0  0  0
 13 14  1  0  0  0
 14 15  2  0  0  0
 15 16  1  0  0  0
 15 17  1  0  0  0
 17 18  2  0  0  0
 17 19  1  0  0  0
 19 20  1  0  0  0
 19 21  1  0  0  0
 19 22  1  0  0  0
  5  6  1  0  0  0
  6  7  2  0  0  0
  7 23  1  0  0  0
 23 24  3  0  0  0
 24 25  1  0  0  0
 25 26  2  0  0  0
 26 27  1  0  0  0
 27 37  1  0  0  0
 37 38  1  0  0  0
 38 39  1  0  0  0
 39 40  1  0  0  0
 40 41  1  0  0  0
 40 42  1  0  0  0
 42 43  1  0  0  0
 27 28  1  0  0  0
 28 29  2  0  0  0
 29 30  1  0  0  0
 30 31  2  0  0  0
 31 32  1  0  0  0
 32 33  1  0  0  0
 32 34  2  0  0  0
  7  2  1  0  0  0
 34 25  1  0  0  0
 18 12  1  0  0  0
 43 37  1  0  0  0
 34 28  1  0  0  0
  8 11  1  0  0  0
 41 44  1  0  0  0
 33 35  1  0  0  0
 33 36  1  0  0  0
M  END
> <minimizedAffinity>
-9.63834

> <CNNscore>
0.1274891943

> <CNNaffinity>
6.6620111465

> <CNN_VS>
0.8493344188

> <CNNaffinity_variance>
0.0987699404

$$$$
[H]O[C@]1([H])C([H])([H])C([H])([H])[C@@]([H])(n2nc(C#Cc3c([H])c(N([H])C(=O)c4c([H])c([H])c(C([H])([H])[H])c(C(F)(F)F)c4[H])c([H])c([H])c3C([H])([H])[H])c3c(N([H])[H])nc([H])nc32)C([H])([H])C1([H])[H]


 44 48  0  0  0  0  0  0  0  0999 V2000
  -17.0059    9.9229  -19.4789 C   0  0  0  0  0  0  0  0  0  0  0  0
  -18.0226   10.2280  -18.4409 C   0  0  0  0  0  0  0  0  0  0  0  0
  -18.4342    9.2436  -17.5731 C   0  0  0  0  0  0  0  0  0  0  0  0
  -19.3655    9.5104  -16.6170 C   0  0  0  0  0  0  0  0  0  0  0  0
  -19.9187   10.7933  -16.5031 C   0  0  0  0  0  0  0  0  0  0  0  0
  -19.4885   11.7508  -17.3821 C   0  0  0  0  0  0  0  0  0  0  0  0
  -18.5290   11.5035  -18.3781 C   0  0  0  0  0  0  0  0  0  0  0  0
  -20.8990   11.0349  -15.5231 N   0  0  0  0  0  0  0  0  0  0  0  0
  -20.6341   11.2837  -14.1799 C   0  0  0  0  0  0  0  0  0  0  0  0
  -19.5069   11.3235  -13.6337 O   0  0  0  0  0  0  0  0  0  0  0  0
  -21.9067   11.0196  -15.8599 H   0  0  0  0  0  0  0  0  0  0  0  0
  -21.7780   11.5312  -13.2698 C   0  0  0  0  0  0  0  0  0  0  0  0
  -23.0401   11.1785  -13.6820 C   0  0  0  0  0  0  0  0  0  0  0  0
  -24.1181   11.3890  -12.8597 C   0  0  0  0  0  0  0  0  0  0  0  0
  -24.0098   11.9527  -11.5998 C   0  0  0  0  0  0  0  0  0  0  0  0
  -25.1977   12.1670  -10.7356 C   0  0  0  0  0  0  0  0  0  0  0  0
  -22.7273   12.2983  -11.2101 C   0  0  0  0  0  0  0  0  0  0  0  0
  -21.6233   12.0928  -12.0287 C   0  0  0  0  0  0  0  0  0  0  0  0
  -22.5573   12.9102   -9.8598 C   0  0  0  0  0  0  0  0  0  0  0  0
  -22.9166   12.0266   -8.8710 F   0  0  0  0  0  0  0  0  0  0  0  0
  -23.1888   14.1247   -9.7766 F   0  0  0  0  0  0  0  0  0  0  0  0
  -21.1988   13.1758   -9.6759 F   0  0  0  0  0  0  0  0  0  0  0  0
  -18.1070   12.5449  -19.2830 C   0  0  0  0  0  0  0  0  0  0  0  0
  -17.7314   13.4134  -20.0462 C   0  0  0  0  0  0  0  0  0  0  0  0
  -17.2644   14.4295  -20.9432 C   0  0  0  0  0  0  0  0  0  0  0  0
  -16.6607   14.2924  -22.1352 N   0  0  0  0  0  0  0  0  0  0  0  0
  -16.3750   15.4664  -22.6729 N   0  0  0  0  0  0  0  0  0  0  0  0
  -16.8125   16.4008  -21.7912 C   0  0  0  0  0  0  0  0  0  0  0  0
  -16.7816   17.7343  -21.8235 N   0  0  0  0  0  0  0  0  0  0  0  0
  -17.2955   18.4357  -20.7958 C   0  0  0  0  0  0  0  0  0  0  0  0
  -17.8479   17.8409  -19.7203 N   0  0  0  0  0  0  0  0  0  0  0  0
  -17.9072   16.4884  -19.6326 C   0  0  0  0  0  0  0  0  0  0  0  0
  -18.4868   15.8647  -18.5050 N   0  0  0  0  0  0  0  0  0  0  0  0
  -17.3779   15.7782  -20.6906 C   0  0  0  0  0  0  0  0  0  0  0  0
  -19.5080   15.7296  -18.4149 H   0  0  0  0  0  0  0  0  0  0  0  0
  -17.8686   15.5323  -17.7451 H   0  0  0  0  0  0  0  0  0  0  0  0
  -15.7220   15.7226  -23.9545 C   0  0  0  0  0  0  0  0  0  0  0  0
  -14.5234   14.8049  -24.0210 C   0  0  0  0  0  0  0  0  0  0  0  0
  -13.9511   14.6840  -25.4032 C   0  0  0  0  0  0  0  0  0  0  0  0
  -14.5708   15.6225  -26.3978 C   0  0  0  0  0  0  0  0  0  0  0  0
  -14.0982   16.9274  -26.2232 O   0  0  0  0  0  0  0  0  0  0  0  0
  -16.0720   15.5848  -26.4067 C   0  0  0  0  0  0  0  0  0  0  0  0
  -16.6676   15.2983  -25.0554 C   0  0  0  0  0  0  0  0  0  0  0  0
  -13.5258   17.0228  -25.4377 H   0  0  0  0  0  0  0  0  0  0  0  0
  1  2  1  0  0  0
  2  3  2  0  0  0
  3  4  1  0  0  0
  4  5  2  0  0  0
  5  8  1  0  0  0
  8  9  1  0  0  0
  9 10  2  0  0  0
  9 12  1  0  0  0
 12 13  2  0  0  0
 13 14  1  0  0  0
 14 15  2  0  0  0
 15 16  1  0  0  0
 15 17  1  0  0  0
 17 18  2  0  0  0
 17 19  1  0  0  0
 19 20  1  0  0  0
 19 21  1  0  0  0
 19 22  1  0  0  0
  5  6  1  0  0  0
  6  7  2  0  0  0
  7 23  1  0  0  0
 23 24  3  0  0  0
 24 25  1  0  0  0
 25 26  2  0  0  0
 26 27  1  0  0  0
 27 37  1  0  0  0
 37 38  1  0  0  0
 38 39  1  0  0  0
 39 40  1  0  0  0
 40 41  1  0  0  0
 40 42  1  0  0  0
 42 43  1  0  0  0
 27 28  1  0  0  0
 28 29  2  0  0  0
 29 30  1  0  0  0
 30 31  2  0  0  0
 31 32  1  0  0  0
 32 33  1  0  0  0
 32 34  2  0  0  0
  7  2  1  0  0  0
 34 25  1  0  0  0
 18 12  1  0  0  0
 43 37  1  0  0  0
 34 28  1  0  0  0
  8 11  1  0  0  0
 41 44  1  0  0  0
 33 35  1  0  0  0
 33 36  1  0  0  0
M  END
> <minimizedAffinity>
-10.44231

> <CNNscore>
0.0765310675

> <CNNaffinity>
6.3988523483

> <CNN_VS>
0.4897109866

> <CNNaffinity_variance>
0.2701829374

$$$$
[H]c1nc(N([H])c2c([H])c(N([H])C(=O)c3c([H])c([H])c(C([H])([H])N4C([H])([H])C([H])([H])N(C([H])([H])[H])C([H])([H])C4([H])[H])c(Br)c3[H])c([H])c([H])c2C([H])([H])[H])nc(-c2c([H])nc([H])c([H])c2[H])c1[H]


 40 44  0  0  0  0  0  0  0  0999 V2000
  -20.3454   12.4651  -16.9423 C   0  0  0  0  0  0  0  0  0  0  0  0
  -21.0540   11.6303  -16.1273 C   0  0  0  0  0  0  0  0  0  0  0  0
  -20.7151   10.2789  -15.9887 C   0  0  0  0  0  0  0  0  0  0  0  0
  -19.6539    9.7654  -16.6775 C   0  0  0  0  0  0  0  0  0  0  0  0
  -19.2951    8.3468  -16.5336 C   0  0  0  0  0  0  0  0  0  0  0  0
  -18.8915   10.5844  -17.5311 C   0  0  0  0  0  0  0  0  0  0  0  0
  -19.2554   11.9075  -17.6409 C   0  0  0  0  0  0  0  0  0  0  0  0
  -21.0434   14.4803  -18.2934 C   0  0  0  0  0  0  0  0  0  0  0  0
  -21.2783   13.8557  -19.3442 O   0  0  0  0  0  0  0  0  0  0  0  0
  -20.6004   13.8497  -17.1328 N   0  0  0  0  0  0  0  0  0  0  0  0
  -20.4224   14.4848  -16.2910 H   0  0  0  0  0  0  0  0  0  0  0  0
  -21.7436   18.7122  -18.4890 C   0  0  0  0  0  0  0  0  0  0  0  0
  -20.6551   18.1939  -17.8369 C   0  0  0  0  0  0  0  0  0  0  0  0
  -20.4010   16.8332  -17.7521 C   0  0  0  0  0  0  0  0  0  0  0  0
  -21.2580   15.9352  -18.3375 C   0  0  0  0  0  0  0  0  0  0  0  0
  -22.3708   16.4427  -19.0060 C   0  0  0  0  0  0  0  0  0  0  0  0
  -22.6008   17.7662  -19.0773 C   0  0  0  0  0  0  0  0  0  0  0  0
  -24.1321   18.4577  -19.9973 Br  0  0  0  0  0  0  0  0  0  0  0  0
  -22.0341   20.1511  -18.6298 C   0  0  0  0  0  0  0  0  0  0  0  0
  -19.6294   21.6976  -23.3010 C   0  0  0  0  0  0  0  0  0  0  0  0
  -19.8770   21.5817  -21.8669 N   0  0  0  0  0  0  0  0  0  0  0  0
  -19.8200   20.1695  -21.5528 C   0  0  0  0  0  0  0  0  0  0  0  0
  -20.2386   19.8202  -20.1652 C   0  0  0  0  0  0  0  0  0  0  0  0
  -21.2040   20.7979  -19.6150 N   0  0  0  0  0  0  0  0  0  0  0  0
  -22.0060   21.2194  -20.7735 C   0  0  0  0  0  0  0  0  0  0  0  0
  -21.1930   22.1396  -21.6176 C   0  0  0  0  0  0  0  0  0  0  0  0
  -17.8262    9.9644  -18.1969 N   0  0  0  0  0  0  0  0  0  0  0  0
  -17.4265    9.0732  -17.7618 H   0  0  0  0  0  0  0  0  0  0  0  0
  -17.1829   10.3566  -19.3992 C   0  0  0  0  0  0  0  0  0  0  0  0
  -16.1846    9.7225  -20.0070 N   0  0  0  0  0  0  0  0  0  0  0  0
  -15.5808   10.0904  -21.1347 C   0  0  0  0  0  0  0  0  0  0  0  0
  -16.0383   11.2633  -21.7485 C   0  0  0  0  0  0  0  0  0  0  0  0
  -17.0668   11.9599  -21.1661 C   0  0  0  0  0  0  0  0  0  0  0  0
  -17.5977   11.4980  -20.0345 N   0  0  0  0  0  0  0  0  0  0  0  0
  -17.5690   13.1957  -21.7827 C   0  0  0  0  0  0  0  0  0  0  0  0
  -17.3759   13.5273  -23.0909 C   0  0  0  0  0  0  0  0  0  0  0  0
  -17.8810   14.7267  -23.6169 C   0  0  0  0  0  0  0  0  0  0  0  0
  -18.5826   15.5869  -22.8094 C   0  0  0  0  0  0  0  0  0  0  0  0
  -18.7632   15.2434  -21.5234 N   0  0  0  0  0  0  0  0  0  0  0  0
  -18.2821   14.0900  -21.0005 C   0  0  0  0  0  0  0  0  0  0  0  0
 20 21  1  0  0  0
 21 22  1  0  0  0
 22 23  1  0  0  0
 23 24  1  0  0  0
 24 19  1  0  0  0
 19 12  1  0  0  0
 12 13  2  0  0  0
 13 14  1  0  0  0
 14 15  2  0  0  0
 15 16  1  0  0  0
 16 17  2  0  0  0
 17 18  1  0  0  0
 15  8  1  0  0  0
  8  9  2  0  0  0
  8 10  1  0  0  0
 10  1  1  0  0  0
  1  2  2  0  0  0
  2  3  1  0  0  0
  3  4  2  0  0  0
  4  5  1  0  0  0
  4  6  1  0  0  0
  6 27  1  0  0  0
 27 29  1  0  0  0
 29 30  2  0  0  0
 30 31  1  0  0  0
 31 32  2  0  0  0
 32 33  1  0  0  0
 33 34  2  0  0  0
 33 35  1  0  0  0
 35 36  2  0  0  0
 36 37  1  0  0  0
 37 38  2  0  0  0
 38 39  1  0  0  0
 39 40  2  0  0  0
  6  7  2  0  0  0
 24 25  1  0  0  0
 25 26  1  0  0  0
 26 21  1  0  0  0
 17 12  1  0  0  0
  7  1  1  0  0  0
 34 29  1  0  0  0
 40 35  1  0  0  0
 10 11  1  0  0  0
 27 28  1  0  0  0
M  END
> <minimizedAffinity>
-8.43077

> <CNNscore>
0.7426270247

> <CNNaffinity>
7.5137810707

> <CNN_VS>
5.5799369812

> <CNNaffinity_variance>
0.0329407156

$$$$
[H]c1nc(N([H])c2c([H])c(N([H])C(=O)c3c([H])c([H])c(C([H])([H])N4C([H])([H])C([H])([H])N(C([H])([H])[H])C([H])([H])C4([H])[H])c(Br)c3[H])c([H])c([H])c2C([H])([H])[H])nc(-c2c([H])nc([H])c([H])c2[H])c1[H]


 40 44  0  0  0  0  0  0  0  0999 V2000
  -20.3910   15.7869  -19.8047 C   0  0  0  0  0  0  0  0  0  0  0  0
  -20.8556   17.0516  -19.5852 C   0  0  0  0  0  0  0  0  0  0  0  0
  -20.6128   18.0898  -20.4926 C   0  0  0  0  0  0  0  0  0  0  0  0
  -19.8957   17.8510  -21.6297 C   0  0  0  0  0  0  0  0  0  0  0  0
  -19.6395   18.9391  -22.5850 C   0  0  0  0  0  0  0  0  0  0  0  0
  -19.3943   16.5645  -21.9021 C   0  0  0  0  0  0  0  0  0  0  0  0
  -19.6539   15.5699  -20.9864 C   0  0  0  0  0  0  0  0  0  0  0  0
  -19.6754   14.0519  -18.1161 C   0  0  0  0  0  0  0  0  0  0  0  0
  -18.4985   14.4454  -18.0182 O   0  0  0  0  0  0  0  0  0  0  0  0
  -20.6016   14.6681  -18.9547 N   0  0  0  0  0  0  0  0  0  0  0  0
  -21.5822   14.2418  -18.9664 H   0  0  0  0  0  0  0  0  0  0  0  0
  -20.6961   10.6004  -15.7745 C   0  0  0  0  0  0  0  0  0  0  0  0
  -21.3442   11.7969  -15.6102 C   0  0  0  0  0  0  0  0  0  0  0  0
  -21.0376   12.9310  -16.3470 C   0  0  0  0  0  0  0  0  0  0  0  0
  -20.0450   12.8892  -17.2939 C   0  0  0  0  0  0  0  0  0  0  0  0
  -19.3743   11.6810  -17.4763 C   0  0  0  0  0  0  0  0  0  0  0  0
  -19.6856   10.5914  -16.7516 C   0  0  0  0  0  0  0  0  0  0  0  0
  -18.7600    8.9339  -17.0068 Br  0  0  0  0  0  0  0  0  0  0  0  0
  -21.0113    9.3638  -15.0356 C   0  0  0  0  0  0  0  0  0  0  0  0
  -19.4374    7.9151   -9.9939 C   0  0  0  0  0  0  0  0  0  0  0  0
  -19.7390    8.7738  -11.1355 N   0  0  0  0  0  0  0  0  0  0  0  0
  -21.1314    8.5491  -11.4624 C   0  0  0  0  0  0  0  0  0  0  0  0
  -21.5884    9.1923  -12.7273 C   0  0  0  0  0  0  0  0  0  0  0  0
  -20.4812    9.3598  -13.6951 N   0  0  0  0  0  0  0  0  0  0  0  0
  -19.6205    8.1867  -13.4807 C   0  0  0  0  0  0  0  0  0  0  0  0
  -18.8569    8.3699  -12.2144 C   0  0  0  0  0  0  0  0  0  0  0  0
  -18.6676   16.4212  -23.0913 N   0  0  0  0  0  0  0  0  0  0  0  0
  -18.5906   17.2777  -23.7266 H   0  0  0  0  0  0  0  0  0  0  0  0
  -17.9987   15.2731  -23.5890 C   0  0  0  0  0  0  0  0  0  0  0  0
  -17.6294   15.0547  -24.8476 N   0  0  0  0  0  0  0  0  0  0  0  0
  -17.0021   13.9778  -25.3148 C   0  0  0  0  0  0  0  0  0  0  0  0
  -16.6972   12.9685  -24.3928 C   0  0  0  0  0  0  0  0  0  0  0  0
  -17.0545   13.1390  -23.0792 C   0  0  0  0  0  0  0  0  0  0  0  0
  -17.6803   14.2600  -22.7226 N   0  0  0  0  0  0  0  0  0  0  0  0
  -16.7518   12.0985  -22.0867 C   0  0  0  0  0  0  0  0  0  0  0  0
  -17.5213   11.8444  -20.9904 C   0  0  0  0  0  0  0  0  0  0  0  0
  -17.1735   10.8357  -20.0784 C   0  0  0  0  0  0  0  0  0  0  0  0
  -16.0418   10.0866  -20.2844 C   0  0  0  0  0  0  0  0  0  0  0  0
  -15.2960   10.3510  -21.3699 N   0  0  0  0  0  0  0  0  0  0  0  0
  -15.6178   11.3208  -22.2593 C   0  0  0  0  0  0  0  0  0  0  0  0
 20 21  1  0  0  0
 21 22  1  0  0  0
 22 23  1  0  0  0
 23 24  1  0  0  0
 24 19  1  0  0  0
 19 12  1  0  0  0
 12 13  2  0  0  0
 13 14  1  0  0  0
 14 15  2  0  0  0
 15 16  1  0  0  0
 16 17  2  0  0  0
 17 18  1  0  0  0
 15  8  1  0  0  0
  8  9  2  0  0  0
  8 10  1  0  0  0
 10  1  1  0  0  0
  1  2  2  0  0  0
  2  3  1  0  0  0
  3  4  2  0  0  0
  4  5  1  0  0  0
  4  6  1  0  0  0
  6 27  1  0  0  0
 27 29  1  0  0  0
 29 30  2  0  0  0
 30 31  1  0  0  0
 31 32  2  0  0  0
 32 33  1  0  0  0
 33 34  2  0  0  0
 33 35  1  0  0  0
 35 36  2  0  0  0
 36 37  1  0  0  0
 37 38  2  0  0  0
 38 39  1  0  0  0
 39 40  2  0  0  0
  6  7  2  0  0  0
 24 25  1  0  0  0
 25 26  1  0  0  0
 26 21  1  0  0  0
 17 12  1  0  0  0
  7  1  1  0  0  0
 34 29  1  0  0  0
 40 35  1  0  0  0
 10 11  1  0  0  0
 27 28  1  0  0  0
M  END
> <minimizedAffinity>
-8.84612

> <CNNscore>
0.5860002041

> <CNNaffinity>
7.6111207008

> <CNN_VS>
4.4601182938

> <CNNaffinity_variance>
0.0693549961

$$$$
[H]c1nc(N([H])c2c([H])c(N([H])C(=O)c3c([H])c([H])c(C([H])([H])N4C([H])([H])C([H])([H])N(C([H])([H])[H])C([H])([H])C4([H])[H])c(Br)c3[H])c([H])c([H])c2C([H])([H])[H])nc(-c2c([H])nc([H])c([H])c2[H])c1[H]


 40 44  0  0  0  0  0  0  0  0999 V2000
  -20.2929   12.3581  -16.3522 C   0  0  0  0  0  0  0  0  0  0  0  0
  -21.0925   11.4327  -15.7459 C   0  0  0  0  0  0  0  0  0  0  0  0
  -20.8455   10.0597  -15.8646 C   0  0  0  0  0  0  0  0  0  0  0  0
  -19.7844    9.6165  -16.6008 C   0  0  0  0  0  0  0  0  0  0  0  0
  -19.5219    8.1753  -16.7269 C   0  0  0  0  0  0  0  0  0  0  0  0
  -18.9302   10.5301  -17.2460 C   0  0  0  0  0  0  0  0  0  0  0  0
  -19.2053   11.8717  -17.1056 C   0  0  0  0  0  0  0  0  0  0  0  0
  -20.9733   14.6189  -17.2462 C   0  0  0  0  0  0  0  0  0  0  0  0
  -21.3812   14.2046  -18.3469 O   0  0  0  0  0  0  0  0  0  0  0  0
  -20.4516   13.7678  -16.2745 N   0  0  0  0  0  0  0  0  0  0  0  0
  -20.1236   14.2326  -15.3690 H   0  0  0  0  0  0  0  0  0  0  0  0
  -21.3326   18.8552  -16.6441 C   0  0  0  0  0  0  0  0  0  0  0  0
  -20.2414   18.1565  -16.1973 C   0  0  0  0  0  0  0  0  0  0  0  0
  -20.0953   16.7885  -16.3722 C   0  0  0  0  0  0  0  0  0  0  0  0
  -21.0689   16.0694  -17.0190 C   0  0  0  0  0  0  0  0  0  0  0  0
  -22.1866   16.7622  -17.4814 C   0  0  0  0  0  0  0  0  0  0  0  0
  -22.3108   18.0895  -17.3020 C   0  0  0  0  0  0  0  0  0  0  0  0
  -23.8492   19.0360  -17.9396 Br  0  0  0  0  0  0  0  0  0  0  0  0
  -21.5129   20.3124  -16.5072 C   0  0  0  0  0  0  0  0  0  0  0  0
  -21.7944   20.9964  -11.0807 C   0  0  0  0  0  0  0  0  0  0  0  0
  -22.1931   21.0422  -12.4844 N   0  0  0  0  0  0  0  0  0  0  0  0
  -22.1839   19.6744  -12.9591 C   0  0  0  0  0  0  0  0  0  0  0  0
  -22.3777   19.5215  -14.4294 C   0  0  0  0  0  0  0  0  0  0  0  0
  -21.9034   20.7075  -15.1771 N   0  0  0  0  0  0  0  0  0  0  0  0
  -20.7399   21.1856  -14.4150 C   0  0  0  0  0  0  0  0  0  0  0  0
  -21.2161   21.8625  -13.1759 C   0  0  0  0  0  0  0  0  0  0  0  0
  -17.8727    9.9779  -17.9804 N   0  0  0  0  0  0  0  0  0  0  0  0
  -17.4127    9.0945  -17.5916 H   0  0  0  0  0  0  0  0  0  0  0  0
  -17.3080   10.4318  -19.2005 C   0  0  0  0  0  0  0  0  0  0  0  0
  -16.3723    9.8168  -19.9177 N   0  0  0  0  0  0  0  0  0  0  0  0
  -15.8422   10.2424  -21.0619 C   0  0  0  0  0  0  0  0  0  0  0  0
  -16.3131   11.4608  -21.5674 C   0  0  0  0  0  0  0  0  0  0  0  0
  -17.2791   12.1405  -20.8694 C   0  0  0  0  0  0  0  0  0  0  0  0
  -17.7386   11.6192  -19.7324 N   0  0  0  0  0  0  0  0  0  0  0  0
  -17.7931   13.4227  -21.3705 C   0  0  0  0  0  0  0  0  0  0  0  0
  -17.6132   13.8695  -22.6459 C   0  0  0  0  0  0  0  0  0  0  0  0
  -18.1292   15.1075  -23.0600 C   0  0  0  0  0  0  0  0  0  0  0  0
  -18.8282   15.8890  -22.1740 C   0  0  0  0  0  0  0  0  0  0  0  0
  -18.9957   15.4325  -20.9219 N   0  0  0  0  0  0  0  0  0  0  0  0
  -18.5040   14.2404  -20.5066 C   0  0  0  0  0  0  0  0  0  0  0  0
 20 21  1  0  0  0
 21 22  1  0  0  0
 22 23  1  0  0  0
 23 24  1  0  0  0
 24 19  1  0  0  0
 19 12  1  0  0  0
 12 13  2  0  0  0
 13 14  1  0  0  0
 14 15  2  0  0  0
 15 16  1  0  0  0
 16 17  2  0  0  0
 17 18  1  0  0  0
 15  8  1  0  0  0
  8  9  2  0  0  0
  8 10  1  0  0  0
 10  1  1  0  0  0
  1  2  2  0  0  0
  2  3  1  0  0  0
  3  4  2  0  0  0
  4  5  1  0  0  0
  4  6  1  0  0  0
  6 27  1  0  0  0
 27 29  1  0  0  0
 29 30  2  0  0  0
 30 31  1  0  0  0
 31 32  2  0  0  0
 32 33  1  0  0  0
 33 34  2  0  0  0
 33 35  1  0  0  0
 35 36  2  0  0  0
 36 37  1  0  0  0
 37 38  2  0  0  0
 38 39  1  0  0  0
 39 40  2  0  0  0
  6  7  2  0  0  0
 24 25  1  0  0  0
 25 26  1  0  0  0
 26 21  1  0  0  0
 17 12  1  0  0  0
  7  1  1  0  0  0
 34 29  1  0  0  0
 40 35  1  0  0  0
 10 11  1  0  0  0
 27 28  1  0  0  0
M  END
> <minimizedAffinity>
-7.70173

> <CNNscore>
0.4701807499

> <CNNaffinity>
7.1117057800

> <CNN_VS>
3.3437871933

> <CNNaffinity_variance>
0.0238965340

$$$$
[H]c1nc(N([H])c2c([H])c(N([H])C(=O)c3c([H])c([H])c(C([H])([H])N4C([H])([H])C([H])([H])N(C([H])([H])[H])C([H])([H])C4([H])[H])c(Br)c3[H])c([H])c([H])c2C([H])([H])[H])nc(-c2c([H])nc([H])c([H])c2[H])c1[H]


 40 44  0  0  0  0  0  0  0  0999 V2000
  -19.9774   16.2792  -20.3911 C   0  0  0  0  0  0  0  0  0  0  0  0
  -20.2857   17.5871  -20.1507 C   0  0  0  0  0  0  0  0  0  0  0  0
  -19.9785   18.5944  -21.0733 C   0  0  0  0  0  0  0  0  0  0  0  0
  -19.3552   18.2806  -22.2469 C   0  0  0  0  0  0  0  0  0  0  0  0
  -19.0318   19.3361  -23.2181 C   0  0  0  0  0  0  0  0  0  0  0  0
  -19.0157   16.9470  -22.5420 C   0  0  0  0  0  0  0  0  0  0  0  0
  -19.3343   15.9849  -21.6104 C   0  0  0  0  0  0  0  0  0  0  0  0
  -19.3814   14.5143  -18.6871 C   0  0  0  0  0  0  0  0  0  0  0  0
  -18.1779   14.8205  -18.6003 O   0  0  0  0  0  0  0  0  0  0  0  0
  -20.2648   15.1884  -19.5274 N   0  0  0  0  0  0  0  0  0  0  0  0
  -21.2744   14.8358  -19.5287 H   0  0  0  0  0  0  0  0  0  0  0  0
  -20.6337   11.1747  -16.2962 C   0  0  0  0  0  0  0  0  0  0  0  0
  -21.2516   12.3948  -16.2053 C   0  0  0  0  0  0  0  0  0  0  0  0
  -20.8706   13.4941  -16.9599 C   0  0  0  0  0  0  0  0  0  0  0  0
  -19.8308   13.3911  -17.8497 C   0  0  0  0  0  0  0  0  0  0  0  0
  -19.1897   12.1581  -17.9572 C   0  0  0  0  0  0  0  0  0  0  0  0
  -19.5734   11.1030  -17.2163 C   0  0  0  0  0  0  0  0  0  0  0  0
  -18.6883    9.4110  -17.3683 Br  0  0  0  0  0  0  0  0  0  0  0  0
  -21.0267    9.9733  -15.5367 C   0  0  0  0  0  0  0  0  0  0  0  0
  -25.6162    9.1073  -12.6764 C   0  0  0  0  0  0  0  0  0  0  0  0
  -24.6337    9.8031  -13.5022 N   0  0  0  0  0  0  0  0  0  0  0  0
  -24.4625    9.0049  -14.6979 C   0  0  0  0  0  0  0  0  0  0  0  0
  -23.3525    9.4455  -15.5903 C   0  0  0  0  0  0  0  0  0  0  0  0
  -22.2784   10.1339  -14.8400 N   0  0  0  0  0  0  0  0  0  0  0  0
  -22.2391    9.4510  -13.5380 C   0  0  0  0  0  0  0  0  0  0  0  0
  -23.4104    9.8860  -12.7262 C   0  0  0  0  0  0  0  0  0  0  0  0
  -18.3752   16.7271  -23.7684 N   0  0  0  0  0  0  0  0  0  0  0  0
  -18.5610   17.4294  -24.5529 H   0  0  0  0  0  0  0  0  0  0  0  0
  -17.4896   15.6796  -24.1311 C   0  0  0  0  0  0  0  0  0  0  0  0
  -16.7597   15.6075  -25.2403 N   0  0  0  0  0  0  0  0  0  0  0  0
  -15.9291   14.6249  -25.5810 C   0  0  0  0  0  0  0  0  0  0  0  0
  -15.8068   13.5553  -24.6851 C   0  0  0  0  0  0  0  0  0  0  0  0
  -16.5364   13.5753  -23.5234 C   0  0  0  0  0  0  0  0  0  0  0  0
  -17.3384   14.6124  -23.2846 N   0  0  0  0  0  0  0  0  0  0  0  0
  -16.4333   12.4678  -22.5631 C   0  0  0  0  0  0  0  0  0  0  0  0
  -17.3623   12.2052  -21.6005 C   0  0  0  0  0  0  0  0  0  0  0  0
  -17.2016   11.1308  -20.7116 C   0  0  0  0  0  0  0  0  0  0  0  0
  -16.0943   10.3248  -20.8046 C   0  0  0  0  0  0  0  0  0  0  0  0
  -15.1898   10.5986  -21.7591 N   0  0  0  0  0  0  0  0  0  0  0  0
  -15.3301   11.6314  -22.6244 C   0  0  0  0  0  0  0  0  0  0  0  0
 20 21  1  0  0  0
 21 22  1  0  0  0
 22 23  1  0  0  0
 23 24  1  0  0  0
 24 19  1  0  0  0
 19 12  1  0  0  0
 12 13  2  0  0  0
 13 14  1  0  0  0
 14 15  2  0  0  0
 15 16  1  0  0  0
 16 17  2  0  0  0
 17 18  1  0  0  0
 15  8  1  0  0  0
  8  9  2  0  0  0
  8 10  1  0  0  0
 10  1  1  0  0  0
  1  2  2  0  0  0
  2  3  1  0  0  0
  3  4  2  0  0  0
  4  5  1  0  0  0
  4  6  1  0  0  0
  6 27  1  0  0  0
 27 29  1  0  0  0
 29 30  2  0  0  0
 30 31  1  0  0  0
 31 32  2  0  0  0
 32 33  1  0  0  0
 33 34  2  0  0  0
 33 35  1  0  0  0
 35 36  2  0  0  0
 36 37  1  0  0  0
 37 38  2  0  0  0
 38 39  1  0  0  0
 39 40  2  0  0  0
  6  7  2  0  0  0
 24 25  1  0  0  0
 25 26  1  0  0  0
 26 21  1  0  0  0
 17 12  1  0  0  0
  7  1  1  0  0  0
 34 29  1  0  0  0
 40 35  1  0  0  0
 10 11  1  0  0  0
 27 28  1  0  0  0
M  END
> <minimizedAffinity>
-8.37022

> <CNNscore>
0.3373199999

> <CNNaffinity>
7.4423551559

> <CNN_VS>
2.5104551315

> <CNNaffinity_variance>
0.0577685609

$$$$
[H]c1nc(N([H])c2c([H])c(N([H])C(=O)c3c([H])c([H])c(C([H])([H])N4C([H])([H])C([H])([H])N(C([H])([H])[H])C([H])([H])C4([H])[H])c(Br)c3[H])c([H])c([H])c2C([H])([H])[H])nc(-c2c([H])nc([H])c([H])c2[H])c1[H]


 40 44  0  0  0  0  0  0  0  0999 V2000
  -19.9988   15.7856  -19.1558 C   0  0  0  0  0  0  0  0  0  0  0  0
  -20.1117   17.0717  -18.7123 C   0  0  0  0  0  0  0  0  0  0  0  0
  -19.7657   18.1598  -19.5226 C   0  0  0  0  0  0  0  0  0  0  0  0
  -19.3019   17.9495  -20.7894 C   0  0  0  0  0  0  0  0  0  0  0  0
  -18.9384   19.0902  -21.6431 C   0  0  0  0  0  0  0  0  0  0  0  0
  -19.1667   16.6426  -21.2937 C   0  0  0  0  0  0  0  0  0  0  0  0
  -19.5172   15.5988  -20.4674 C   0  0  0  0  0  0  0  0  0  0  0  0
  -19.4796   13.6469  -17.9188 C   0  0  0  0  0  0  0  0  0  0  0  0
  -18.2462   13.7025  -18.0778 O   0  0  0  0  0  0  0  0  0  0  0  0
  -20.3415   14.6216  -18.4168 N   0  0  0  0  0  0  0  0  0  0  0  0
  -21.3830   14.4691  -18.2286 H   0  0  0  0  0  0  0  0  0  0  0  0
  -21.0176   10.3240  -15.6760 C   0  0  0  0  0  0  0  0  0  0  0  0
  -20.0362   10.1612  -16.6189 C   0  0  0  0  0  0  0  0  0  0  0  0
  -19.5197   11.2116  -17.3626 C   0  0  0  0  0  0  0  0  0  0  0  0
  -19.9893   12.4869  -17.1711 C   0  0  0  0  0  0  0  0  0  0  0  0
  -20.9873   12.6732  -16.2160 C   0  0  0  0  0  0  0  0  0  0  0  0
  -21.4763   11.6416  -15.5045 C   0  0  0  0  0  0  0  0  0  0  0  0
  -22.8480   11.9040  -14.1934 Br  0  0  0  0  0  0  0  0  0  0  0  0
  -21.5718    9.2413  -14.8422 C   0  0  0  0  0  0  0  0  0  0  0  0
  -20.9778    3.8280  -15.4232 C   0  0  0  0  0  0  0  0  0  0  0  0
  -20.7651    5.2556  -15.6429 N   0  0  0  0  0  0  0  0  0  0  0  0
  -20.3625    5.8121  -14.3684 C   0  0  0  0  0  0  0  0  0  0  0  0
  -20.2816    7.3003  -14.3336 C   0  0  0  0  0  0  0  0  0  0  0  0
  -21.2018    7.9283  -15.3080 N   0  0  0  0  0  0  0  0  0  0  0  0
  -22.3729    7.0391  -15.3383 C   0  0  0  0  0  0  0  0  0  0  0  0
  -22.0269    5.8065  -16.1007 C   0  0  0  0  0  0  0  0  0  0  0  0
  -18.6788   16.5302  -22.6021 N   0  0  0  0  0  0  0  0  0  0  0  0
  -18.7466   17.3945  -23.2280 H   0  0  0  0  0  0  0  0  0  0  0  0
  -18.0896   15.4055  -23.2355 C   0  0  0  0  0  0  0  0  0  0  0  0
  -17.8498   15.2637  -24.5357 N   0  0  0  0  0  0  0  0  0  0  0  0
  -17.2975   14.2087  -25.1302 C   0  0  0  0  0  0  0  0  0  0  0  0
  -16.9292   13.1356  -24.3088 C   0  0  0  0  0  0  0  0  0  0  0  0
  -17.1528   13.2257  -22.9583 C   0  0  0  0  0  0  0  0  0  0  0  0
  -17.7135   14.3320  -22.4710 N   0  0  0  0  0  0  0  0  0  0  0  0
  -16.7807   12.1168  -22.0687 C   0  0  0  0  0  0  0  0  0  0  0  0
  -17.5128   11.7304  -20.9855 C   0  0  0  0  0  0  0  0  0  0  0  0
  -17.0988   10.6625  -20.1741 C   0  0  0  0  0  0  0  0  0  0  0  0
  -15.9392    9.9890  -20.4674 C   0  0  0  0  0  0  0  0  0  0  0  0
  -15.2310   10.3835  -21.5385 N   0  0  0  0  0  0  0  0  0  0  0  0
  -15.6168   11.4121  -22.3313 C   0  0  0  0  0  0  0  0  0  0  0  0
 20 21  1  0  0  0
 21 22  1  0  0  0
 22 23  1  0  0  0
 23 24  1  0  0  0
 24 19  1  0  0  0
 19 12  1  0  0  0
 12 13  2  0  0  0
 13 14  1  0  0  0
 14 15  2  0  0  0
 15 16  1  0  0  0
 16 17  2  0  0  0
 17 18  1  0  0  0
 15  8  1  0  0  0
  8  9  2  0  0  0
  8 10  1  0  0  0
 10  1  1  0  0  0
  1  2  2  0  0  0
  2  3  1  0  0  0
  3  4  2  0  0  0
  4  5  1  0  0  0
  4  6  1  0  0  0
  6 27  1  0  0  0
 27 29  1  0  0  0
 29 30  2  0  0  0
 30 31  1  0  0  0
 31 32  2  0  0  0
 32 33  1  0  0  0
 33 34  2  0  0  0
 33 35  1  0  0  0
 35 36  2  0  0  0
 36 37  1  0  0  0
 37 38  2  0  0  0
 38 39  1  0  0  0
 39 40  2  0  0  0
  6  7  2  0  0  0
 24 25  1  0  0  0
 25 26  1  0  0  0
 26 21  1  0  0  0
 17 12  1  0  0  0
  7  1  1  0  0  0
 34 29  1  0  0  0
 40 35  1  0  0  0
 10 11  1  0  0  0
 27 28  1  0  0  0
M  END
> <minimizedAffinity>
-8.72450

> <CNNscore>
0.2342817038

> <CNNaffinity>
7.3180289268

> <CNN_VS>
1.7144802809

> <CNNaffinity_variance>
0.0928686932

$$$$
[H]c1nc(N([H])c2c([H])c(N([H])C(=O)c3c([H])c([H])c(C([H])([H])N4C([H])([H])C([H])([H])N(C([H])([H])[H])C([H])([H])C4([H])[H])c(Br)c3[H])c([H])c([H])c2C([H])([H])[H])nc(-c2c([H])nc([H])c([H])c2[H])c1[H]


 40 44  0  0  0  0  0  0  0  0999 V2000
  -16.9700   13.8313  -22.2504 C   0  0  0  0  0  0  0  0  0  0  0  0
  -16.1382   13.2465  -23.1611 C   0  0  0  0  0  0  0  0  0  0  0  0
  -15.6191   13.9631  -24.2462 C   0  0  0  0  0  0  0  0  0  0  0  0
  -15.9415   15.2791  -24.4144 C   0  0  0  0  0  0  0  0  0  0  0  0
  -15.3974   16.0345  -25.5525 C   0  0  0  0  0  0  0  0  0  0  0  0
  -16.7956   15.9282  -23.5034 C   0  0  0  0  0  0  0  0  0  0  0  0
  -17.2857   15.1907  -22.4494 C   0  0  0  0  0  0  0  0  0  0  0  0
  -17.2330   11.9259  -20.6152 C   0  0  0  0  0  0  0  0  0  0  0  0
  -16.3934   11.1794  -21.1514 O   0  0  0  0  0  0  0  0  0  0  0  0
  -17.5297   13.1936  -21.1109 N   0  0  0  0  0  0  0  0  0  0  0  0
  -18.2731   13.7457  -20.5759 H   0  0  0  0  0  0  0  0  0  0  0  0
  -19.2363   10.4743  -17.1057 C   0  0  0  0  0  0  0  0  0  0  0  0
  -18.2976    9.7200  -17.7603 C   0  0  0  0  0  0  0  0  0  0  0  0
  -17.6346   10.1569  -18.8973 C   0  0  0  0  0  0  0  0  0  0  0  0
  -17.9057   11.3974  -19.4183 C   0  0  0  0  0  0  0  0  0  0  0  0
  -18.8571   12.1800  -18.7663 C   0  0  0  0  0  0  0  0  0  0  0  0
  -19.4903   11.7388  -17.6646 C   0  0  0  0  0  0  0  0  0  0  0  0
  -20.7971   12.8191  -16.7731 Br  0  0  0  0  0  0  0  0  0  0  0  0
  -19.9407   10.0615  -15.8776 C   0  0  0  0  0  0  0  0  0  0  0  0
  -20.7499    4.9965  -13.9579 C   0  0  0  0  0  0  0  0  0  0  0  0
  -20.1474    6.0878  -14.7179 N   0  0  0  0  0  0  0  0  0  0  0  0
  -19.7319    7.0818  -13.7506 C   0  0  0  0  0  0  0  0  0  0  0  0
  -19.2634    8.3691  -14.3389 C   0  0  0  0  0  0  0  0  0  0  0  0
  -19.8900    8.6387  -15.6524 N   0  0  0  0  0  0  0  0  0  0  0  0
  -21.2467    8.0827  -15.5372 C   0  0  0  0  0  0  0  0  0  0  0  0
  -21.1702    6.5965  -15.6125 C   0  0  0  0  0  0  0  0  0  0  0  0
  -17.0701   17.2771  -23.7639 N   0  0  0  0  0  0  0  0  0  0  0  0
  -16.4912   17.7589  -24.5229 H   0  0  0  0  0  0  0  0  0  0  0  0
  -18.0325   18.1208  -23.1513 C   0  0  0  0  0  0  0  0  0  0  0  0
  -17.8867   18.7935  -22.0136 N   0  0  0  0  0  0  0  0  0  0  0  0
  -18.7894   19.5847  -21.4386 C   0  0  0  0  0  0  0  0  0  0  0  0
  -20.0196   19.7275  -22.0927 C   0  0  0  0  0  0  0  0  0  0  0  0
  -20.2270   19.0565  -23.2713 C   0  0  0  0  0  0  0  0  0  0  0  0
  -19.2507   18.2901  -23.7561 N   0  0  0  0  0  0  0  0  0  0  0  0
  -21.5071   19.1825  -23.9817 C   0  0  0  0  0  0  0  0  0  0  0  0
  -21.8775   20.2838  -24.6949 C   0  0  0  0  0  0  0  0  0  0  0  0
  -23.1181   20.3404  -25.3491 C   0  0  0  0  0  0  0  0  0  0  0  0
  -23.9802   19.2746  -25.2761 C   0  0  0  0  0  0  0  0  0  0  0  0
  -23.5982   18.1982  -24.5692 N   0  0  0  0  0  0  0  0  0  0  0  0
  -22.4047   18.1279  -23.9322 C   0  0  0  0  0  0  0  0  0  0  0  0
 20 21  1  0  0  0
 21 22  1  0  0  0
 22 23  1  0  0  0
 23 24  1  0  0  0
 24 19  1  0  0  0
 19 12  1  0  0  0
 12 13  2  0  0  0
 13 14  1  0  0  0
 14 15  2  0  0  0
 15 16  1  0  0  0
 16 17  2  0  0  0
 17 18  1  0  0  0
 15  8  1  0  0  0
  8  9  2  0  0  0
  8 10  1  0  0  0
 10  1  1  0  0  0
  1  2  2  0  0  0
  2  3  1  0  0  0
  3  4  2  0  0  0
  4  5  1  0  0  0
  4  6  1  0  0  0
  6 27  1  0  0  0
 27 29  1  0  0  0
 29 30  2  0  0  0
 30 31  1  0  0  0
 31 32  2  0  0  0
 32 33  1  0  0  0
 33 34  2  0  0  0
 33 35  1  0  0  0
 35 36  2  0  0  0
 36 37  1  0  0  0
 37 38  2  0  0  0
 38 39  1  0  0  0
 39 40  2  0  0  0
  6  7  2  0  0  0
 24 25  1  0  0  0
 25 26  1  0  0  0
 26 21  1  0  0  0
 17 12  1  0  0  0
  7  1  1  0  0  0
 34 29  1  0  0  0
 40 35  1  0  0  0
 10 11  1  0  0  0
 27 28  1  0  0  0
M  END
> <minimizedAffinity>
-9.60930

> <CNNscore>
0.2311841249

> <CNNaffinity>
7.0972099304

> <CNN_VS>
1.6407622099

> <CNNaffinity_variance>
0.1593573987

$$$$
[H]c1nc(N([H])c2c([H])c(N([H])C(=O)c3c([H])c([H])c(C([H])([H])N4C([H])([H])C([H])([H])N(C([H])([H])[H])C([H])([H])C4([H])[H])c(Br)c3[H])c([H])c([H])c2C([H])([H])[H])nc(-c2c([H])nc([H])c([H])c2[H])c1[H]


 40 44  0  0  0  0  0  0  0  0999 V2000
  -17.7567   12.9749  -21.4985 C   0  0  0  0  0  0  0  0  0  0  0  0
  -16.9988   12.4127  -22.4849 C   0  0  0  0  0  0  0  0  0  0  0  0
  -16.5001   13.1728  -23.5497 C   0  0  0  0  0  0  0  0  0  0  0  0
  -16.7682   14.5097  -23.6207 C   0  0  0  0  0  0  0  0  0  0  0  0
  -16.2454   15.3108  -24.7374 C   0  0  0  0  0  0  0  0  0  0  0  0
  -17.5453   15.1370  -22.6290 C   0  0  0  0  0  0  0  0  0  0  0  0
  -18.0174   14.3566  -21.5979 C   0  0  0  0  0  0  0  0  0  0  0  0
  -17.6054   11.4830  -19.4674 C   0  0  0  0  0  0  0  0  0  0  0  0
  -16.3828   11.2668  -19.5574 O   0  0  0  0  0  0  0  0  0  0  0  0
  -18.2894   12.2918  -20.3724 N   0  0  0  0  0  0  0  0  0  0  0  0
  -19.3397   12.4019  -20.2043 H   0  0  0  0  0  0  0  0  0  0  0  0
  -19.6780    9.6782  -16.1683 C   0  0  0  0  0  0  0  0  0  0  0  0
  -18.7285    8.9932  -16.8810 C   0  0  0  0  0  0  0  0  0  0  0  0
  -18.0432    9.5447  -17.9531 C   0  0  0  0  0  0  0  0  0  0  0  0
  -18.3019   10.8341  -18.3456 C   0  0  0  0  0  0  0  0  0  0  0  0
  -19.2640   11.5476  -17.6328 C   0  0  0  0  0  0  0  0  0  0  0  0
  -19.9189   10.9954  -16.5956 C   0  0  0  0  0  0  0  0  0  0  0  0
  -21.2403   11.9810  -15.6201 Br  0  0  0  0  0  0  0  0  0  0  0  0
  -20.4065    9.1412  -15.0040 C   0  0  0  0  0  0  0  0  0  0  0  0
  -18.3548    7.8373  -10.0963 C   0  0  0  0  0  0  0  0  0  0  0  0
  -18.3857    8.1845  -11.5141 N   0  0  0  0  0  0  0  0  0  0  0  0
  -19.0576    9.4635  -11.6094 C   0  0  0  0  0  0  0  0  0  0  0  0
  -19.3640    9.9067  -12.9995 C   0  0  0  0  0  0  0  0  0  0  0  0
  -19.5335    8.7614  -13.9216 N   0  0  0  0  0  0  0  0  0  0  0  0
  -20.1531    7.7115  -13.0989 C   0  0  0  0  0  0  0  0  0  0  0  0
  -19.1218    7.1337  -12.1918 C   0  0  0  0  0  0  0  0  0  0  0  0
  -17.7684   16.5103  -22.7925 N   0  0  0  0  0  0  0  0  0  0  0  0
  -16.9939   17.0823  -23.2575 H   0  0  0  0  0  0  0  0  0  0  0  0
  -18.9051   17.2745  -22.4220 C   0  0  0  0  0  0  0  0  0  0  0  0
  -19.1576   17.7881  -21.2217 N   0  0  0  0  0  0  0  0  0  0  0  0
  -20.2239   18.5047  -20.8738 C   0  0  0  0  0  0  0  0  0  0  0  0
  -21.1808   18.7459  -21.8677 C   0  0  0  0  0  0  0  0  0  0  0  0
  -20.9734   18.2401  -23.1260 C   0  0  0  0  0  0  0  0  0  0  0  0
  -19.8675   17.5353  -23.3623 N   0  0  0  0  0  0  0  0  0  0  0  0
  -21.9587   18.4726  -24.1911 C   0  0  0  0  0  0  0  0  0  0  0  0
  -22.6653   17.4813  -24.8049 C   0  0  0  0  0  0  0  0  0  0  0  0
  -23.5913   17.7721  -25.8190 C   0  0  0  0  0  0  0  0  0  0  0  0
  -23.7966   19.0729  -26.2065 C   0  0  0  0  0  0  0  0  0  0  0  0
  -23.0917   20.0362  -25.5905 N   0  0  0  0  0  0  0  0  0  0  0  0
  -22.1944   19.7722  -24.6105 C   0  0  0  0  0  0  0  0  0  0  0  0
 20 21  1  0  0  0
 21 22  1  0  0  0
 22 23  1  0  0  0
 23 24  1  0  0  0
 24 19  1  0  0  0
 19 12  1  0  0  0
 12 13  2  0  0  0
 13 14  1  0  0  0
 14 15  2  0  0  0
 15 16  1  0  0  0
 16 17  2  0  0  0
 17 18  1  0  0  0
 15  8  1  0  0  0
  8  9  2  0  0  0
  8 10  1  0  0  0
 10  1  1  0  0  0
  1  2  2  0  0  0
  2  3  1  0  0  0
  3  4  2  0  0  0
  4  5  1  0  0  0
  4  6  1  0  0  0
  6 27  1  0  0  0
 27 29  1  0  0  0
 29 30  2  0  0  0
 30 31  1  0  0  0
 31 32  2  0  0  0
 32 33  1  0  0  0
 33 34  2  0  0  0
 33 35  1  0  0  0
 35 36  2  0  0  0
 36 37  1  0  0  0
 37 38  2  0  0  0
 38 39  1  0  0  0
 39 40  2  0  0  0
  6  7  2  0  0  0
 24 25  1  0  0  0
 25 26  1  0  0  0
 26 21  1  0  0  0
 17 12  1  0  0  0
  7  1  1  0  0  0
 34 29  1  0  0  0
 40 35  1  0  0  0
 10 11  1  0  0  0
 27 28  1  0  0  0
M  END
> <minimizedAffinity>
-9.51082

> <CNNscore>
0.2309729755

> <CNNaffinity>
6.8537969589

> <CNN_VS>
1.5830419064

> <CNNaffinity_variance>
0.0681040660

$$$$
[H]c1nc(N([H])c2c([H])c(N([H])C(=O)c3c([H])c([H])c(C([H])([H])N4C([H])([H])C([H])([H])N(C([H])([H])[H])C([H])([H])C4([H])[H])c(Br)c3[H])c([H])c([H])c2C([H])([H])[H])nc(-c2c([H])nc([H])c([H])c2[H])c1[H]


 40 44  0  0  0  0  0  0  0  0999 V2000
  -17.4979   10.8326  -19.3470 C   0  0  0  0  0  0  0  0  0  0  0  0
  -16.5465   10.1382  -20.0370 C   0  0  0  0  0  0  0  0  0  0  0  0
  -16.0167   10.6187  -21.2407 C   0  0  0  0  0  0  0  0  0  0  0  0
  -16.4499   11.8080  -21.7526 C   0  0  0  0  0  0  0  0  0  0  0  0
  -15.8951   12.3155  -23.0162 C   0  0  0  0  0  0  0  0  0  0  0  0
  -17.4296   12.5618  -21.0798 C   0  0  0  0  0  0  0  0  0  0  0  0
  -17.9261   12.0568  -19.8993 C   0  0  0  0  0  0  0  0  0  0  0  0
  -19.1802   11.0022  -17.4722 C   0  0  0  0  0  0  0  0  0  0  0  0
  -19.8055   11.9680  -17.9474 O   0  0  0  0  0  0  0  0  0  0  0  0
  -18.0796   10.4370  -18.1127 N   0  0  0  0  0  0  0  0  0  0  0  0
  -17.6134    9.6162  -17.6103 H   0  0  0  0  0  0  0  0  0  0  0  0
  -20.5984    9.3884  -13.7545 C   0  0  0  0  0  0  0  0  0  0  0  0
  -20.5148   10.7401  -13.9651 C   0  0  0  0  0  0  0  0  0  0  0  0
  -20.0586   11.2943  -15.1516 C   0  0  0  0  0  0  0  0  0  0  0  0
  -19.6651   10.4809  -16.1847 C   0  0  0  0  0  0  0  0  0  0  0  0
  -19.7432    9.1029  -15.9901 C   0  0  0  0  0  0  0  0  0  0  0  0
  -20.1881    8.5838  -14.8316 C   0  0  0  0  0  0  0  0  0  0  0  0
  -20.2930    6.6891  -14.5702 Br  0  0  0  0  0  0  0  0  0  0  0  0
  -21.1066    8.7583  -12.5218 C   0  0  0  0  0  0  0  0  0  0  0  0
  -16.7072    9.6363   -9.3803 C   0  0  0  0  0  0  0  0  0  0  0  0
  -18.0548    9.2183   -9.7553 N   0  0  0  0  0  0  0  0  0  0  0  0
  -17.9028    8.2426  -10.8141 C   0  0  0  0  0  0  0  0  0  0  0  0
  -19.1755    7.8307  -11.4723 C   0  0  0  0  0  0  0  0  0  0  0  0
  -20.2024    8.8947  -11.4075 N   0  0  0  0  0  0  0  0  0  0  0  0
  -19.4426   10.1500  -11.5061 C   0  0  0  0  0  0  0  0  0  0  0  0
  -18.7560   10.4051  -10.2085 C   0  0  0  0  0  0  0  0  0  0  0  0
  -17.8112   13.7653  -21.6868 N   0  0  0  0  0  0  0  0  0  0  0  0
  -18.4185   13.7023  -22.5647 H   0  0  0  0  0  0  0  0  0  0  0  0
  -17.5021   15.0935  -21.2948 C   0  0  0  0  0  0  0  0  0  0  0  0
  -16.6718   15.9289  -21.9121 N   0  0  0  0  0  0  0  0  0  0  0  0
  -16.3813   17.1747  -21.5444 C   0  0  0  0  0  0  0  0  0  0  0  0
  -17.0105   17.6613  -20.3915 C   0  0  0  0  0  0  0  0  0  0  0  0
  -17.8780   16.8434  -19.7129 C   0  0  0  0  0  0  0  0  0  0  0  0
  -18.0944   15.6115  -20.1727 N   0  0  0  0  0  0  0  0  0  0  0  0
  -18.5527   17.3219  -18.4983 C   0  0  0  0  0  0  0  0  0  0  0  0
  -19.0877   18.5687  -18.3650 C   0  0  0  0  0  0  0  0  0  0  0  0
  -19.7176   18.9639  -17.1745 C   0  0  0  0  0  0  0  0  0  0  0  0
  -19.8020   18.0880  -16.1209 C   0  0  0  0  0  0  0  0  0  0  0  0
  -19.2695   16.8639  -16.2705 N   0  0  0  0  0  0  0  0  0  0  0  0
  -18.6583   16.4673  -17.4126 C   0  0  0  0  0  0  0  0  0  0  0  0
 20 21  1  0  0  0
 21 22  1  0  0  0
 22 23  1  0  0  0
 23 24  1  0  0  0
 24 19  1  0  0  0
 19 12  1  0  0  0
 12 13  2  0  0  0
 13 14  1  0  0  0
 14 15  2  0  0  0
 15 16  1  0  0  0
 16 17  2  0  0  0
 17 18  1  0  0  0
 15  8  1  0  0  0
  8  9  2  0  0  0
  8 10  1  0  0  0
 10  1  1  0  0  0
  1  2  2  0  0  0
  2  3  1  0  0  0
  3  4  2  0  0  0
  4  5  1  0  0  0
  4  6  1  0  0  0
  6 27  1  0  0  0
 27 29  1  0  0  0
 29 30  2  0  0  0
 30 31  1  0  0  0
 31 32  2  0  0  0
 32 33  1  0  0  0
 33 34  2  0  0  0
 33 35  1  0  0  0
 35 36  2  0  0  0
 36 37  1  0  0  0
 37 38  2  0  0  0
 38 39  1  0  0  0
 39 40  2  0  0  0
  6  7  2  0  0  0
 24 25  1  0  0  0
 25 26  1  0  0  0
 26 21  1  0  0  0
 17 12  1  0  0  0
  7  1  1  0  0  0
 34 29  1  0  0  0
 40 35  1  0  0  0
 10 11  1  0  0  0
 27 28  1  0  0  0
M  END
> <minimizedAffinity>
-9.09386

> <CNNscore>
0.1219553202

> <CNNaffinity>
6.6327180862

> <CNN_VS>
0.8088952303

> <CNNaffinity_variance>
0.3442599773

$$$$
[H]c1nc(N([H])c2c([H])c(N([H])C(=O)c3c([H])c([H])c(C([H])([H])N4C([H])([H])C([H])([H])N(C([H])([H])[H])C([H])([H])C4([H])[H])c(Br)c3[H])c([H])c([H])c2C([H])([H])[H])nc(-c2c([H])nc([H])c([H])c2[H])c1[H]


 40 44  0  0  0  0  0  0  0  0999 V2000
  -16.9358   13.0896  -21.8505 C   0  0  0  0  0  0  0  0  0  0  0  0
  -16.2812   12.3820  -22.8170 C   0  0  0  0  0  0  0  0  0  0  0  0
  -15.6142   13.0212  -23.8690 C   0  0  0  0  0  0  0  0  0  0  0  0
  -15.6076   14.3843  -23.9472 C   0  0  0  0  0  0  0  0  0  0  0  0
  -14.9074   15.0587  -25.0504 C   0  0  0  0  0  0  0  0  0  0  0  0
  -16.2681   15.1596  -22.9759 C   0  0  0  0  0  0  0  0  0  0  0  0
  -16.9123   14.4950  -21.9569 C   0  0  0  0  0  0  0  0  0  0  0  0
  -17.1660   11.5491  -19.8637 C   0  0  0  0  0  0  0  0  0  0  0  0
  -16.0404   11.0289  -19.9730 O   0  0  0  0  0  0  0  0  0  0  0  0
  -17.6223   12.5329  -20.7382 N   0  0  0  0  0  0  0  0  0  0  0  0
  -18.6084   12.9040  -20.5555 H   0  0  0  0  0  0  0  0  0  0  0  0
  -19.6361   10.2384  -16.6051 C   0  0  0  0  0  0  0  0  0  0  0  0
  -18.7361    9.3980  -17.2070 C   0  0  0  0  0  0  0  0  0  0  0  0
  -17.9260    9.7878  -18.2629 C   0  0  0  0  0  0  0  0  0  0  0  0
  -18.0020   11.0676  -18.7528 C   0  0  0  0  0  0  0  0  0  0  0  0
  -18.9111   11.9378  -18.1536 C   0  0  0  0  0  0  0  0  0  0  0  0
  -19.6891   11.5412  -17.1303 C   0  0  0  0  0  0  0  0  0  0  0  0
  -20.9368   12.7417  -16.3110 Br  0  0  0  0  0  0  0  0  0  0  0  0
  -20.4928    9.8746  -15.4612 C   0  0  0  0  0  0  0  0  0  0  0  0
  -19.0185    8.8927  -10.2789 C   0  0  0  0  0  0  0  0  0  0  0  0
  -18.9443    9.3989  -11.6463 N   0  0  0  0  0  0  0  0  0  0  0  0
  -20.1028   10.2466  -11.8342 C   0  0  0  0  0  0  0  0  0  0  0  0
  -20.3169   10.7117  -13.2343 C   0  0  0  0  0  0  0  0  0  0  0  0
  -19.7607    9.7626  -14.2246 N   0  0  0  0  0  0  0  0  0  0  0  0
  -19.9615    8.4366  -13.6208 C   0  0  0  0  0  0  0  0  0  0  0  0
  -18.9678    8.2459  -12.5269 C   0  0  0  0  0  0  0  0  0  0  0  0
  -16.2079   16.5489  -23.1455 N   0  0  0  0  0  0  0  0  0  0  0  0
  -15.3098   16.9552  -23.5599 H   0  0  0  0  0  0  0  0  0  0  0  0
  -17.1933   17.5232  -22.8405 C   0  0  0  0  0  0  0  0  0  0  0  0
  -17.8225   18.3120  -23.7066 N   0  0  0  0  0  0  0  0  0  0  0  0
  -18.7466   19.2262  -23.4207 C   0  0  0  0  0  0  0  0  0  0  0  0
  -19.0964   19.3780  -22.0730 C   0  0  0  0  0  0  0  0  0  0  0  0
  -18.4795   18.5907  -21.1340 C   0  0  0  0  0  0  0  0  0  0  0  0
  -17.5668   17.7063  -21.5345 N   0  0  0  0  0  0  0  0  0  0  0  0
  -18.8214   18.7263  -19.7112 C   0  0  0  0  0  0  0  0  0  0  0  0
  -19.1592   19.9063  -19.1180 C   0  0  0  0  0  0  0  0  0  0  0  0
  -19.4729   19.9671  -17.7512 C   0  0  0  0  0  0  0  0  0  0  0  0
  -19.4423   18.8250  -16.9901 C   0  0  0  0  0  0  0  0  0  0  0  0
  -19.1075   17.6716  -17.5917 N   0  0  0  0  0  0  0  0  0  0  0  0
  -18.8020   17.5963  -18.9093 C   0  0  0  0  0  0  0  0  0  0  0  0
 20 21  1  0  0  0
 21 22  1  0  0  0
 22 23  1  0  0  0
 23 24  1  0  0  0
 24 19  1  0  0  0
 19 12  1  0  0  0
 12 13  2  0  0  0
 13 14  1  0  0  0
 14 15  2  0  0  0
 15 16  1  0  0  0
 16 17  2  0  0  0
 17 18  1  0  0  0
 15  8  1  0  0  0
  8  9  2  0  0  0
  8 10  1  0  0  0
 10  1  1  0  0  0
  1  2  2  0  0  0
  2  3  1  0  0  0
  3  4  2  0  0  0
  4  5  1  0  0  0
  4  6  1  0  0  0
  6 27  1  0  0  0
 27 29  1  0  0  0
 29 30  2  0  0  0
 30 31  1  0  0  0
 31 32  2  0  0  0
 32 33  1  0  0  0
 33 34  2  0  0  0
 33 35  1  0  0  0
 35 36  2  0  0  0
 36 37  1  0  0  0
 37 38  2  0  0  0
 38 39  1  0  0  0
 39 40  2  0  0  0
  6  7  2  0  0  0
 24 25  1  0  0  0
 25 26  1  0  0  0
 26 21  1  0  0  0
 17 12  1  0  0  0
  7  1  1  0  0  0
 34 29  1  0  0  0
 40 35  1  0  0  0
 10 11  1  0  0  0
 27 28  1  0  0  0
M  END
> <minimizedAffinity>
-9.26643

> <CNNscore>
0.1204976290

> <CNNaffinity>
7.1685075760

> <CNN_VS>
0.8637881875

> <CNNaffinity_variance>
0.0723234415

$$$$
[H]c1c([H])c(C([H])([H])[H])c(-n2c(=O)c3c([H])nc(N([H])c4c([H])c([H])c(N5C([H])([H])C([H])([H])N(C([H])([H])[H])C([H])([H])C5([H])[H])c([H])c4[H])nc3n3c4c([H])c([H])c([H])c([H])c4nc23)c(C([H])([H])[H])c1[H]


 41 47  0  0  0  0  0  0  0  0999 V2000
  -17.1596   10.4450  -19.2875 C   0  0  0  0  0  0  0  0  0  0  0  0
  -16.1691   10.0358  -20.1447 N   0  0  0  0  0  0  0  0  0  0  0  0
  -15.8264   10.6487  -21.2624 C   0  0  0  0  0  0  0  0  0  0  0  0
  -16.4899   11.7819  -21.6243 C   0  0  0  0  0  0  0  0  0  0  0  0
  -17.4974   12.2186  -20.7771 C   0  0  0  0  0  0  0  0  0  0  0  0
  -17.8075   11.5583  -19.6490 N   0  0  0  0  0  0  0  0  0  0  0  0
  -18.1247   13.3590  -21.1941 N   0  0  0  0  0  0  0  0  0  0  0  0
  -17.7831   13.9920  -22.3238 C   0  0  0  0  0  0  0  0  0  0  0  0
  -18.6072   15.0955  -22.4555 N   0  0  0  0  0  0  0  0  0  0  0  0
  -19.4529   15.1579  -21.4304 C   0  0  0  0  0  0  0  0  0  0  0  0
  -20.4688   16.0178  -21.0628 C   0  0  0  0  0  0  0  0  0  0  0  0
  -21.1684   15.7702  -19.9050 C   0  0  0  0  0  0  0  0  0  0  0  0
  -20.8710   14.6799  -19.1096 C   0  0  0  0  0  0  0  0  0  0  0  0
  -19.8430   13.8094  -19.4805 C   0  0  0  0  0  0  0  0  0  0  0  0
  -19.1474   14.0605  -20.6352 C   0  0  0  0  0  0  0  0  0  0  0  0
  -16.8004   13.5408  -23.1198 N   0  0  0  0  0  0  0  0  0  0  0  0
  -16.1473   12.4408  -22.7848 C   0  0  0  0  0  0  0  0  0  0  0  0
  -15.1884   11.9420  -23.5001 O   0  0  0  0  0  0  0  0  0  0  0  0
  -16.4755   14.2375  -24.2954 C   0  0  0  0  0  0  0  0  0  0  0  0
  -16.9997   13.7668  -25.4835 C   0  0  0  0  0  0  0  0  0  0  0  0
  -17.8778   12.5766  -25.5711 C   0  0  0  0  0  0  0  0  0  0  0  0
  -16.6597   14.4756  -26.6206 C   0  0  0  0  0  0  0  0  0  0  0  0
  -15.8464   15.5876  -26.5841 C   0  0  0  0  0  0  0  0  0  0  0  0
  -15.3599   15.9990  -25.3628 C   0  0  0  0  0  0  0  0  0  0  0  0
  -15.6555   15.3426  -24.1823 C   0  0  0  0  0  0  0  0  0  0  0  0
  -15.1053   15.8280  -22.8981 C   0  0  0  0  0  0  0  0  0  0  0  0
  -17.4165    9.6525  -18.1443 N   0  0  0  0  0  0  0  0  0  0  0  0
  -16.6160    8.9807  -17.8699 H   0  0  0  0  0  0  0  0  0  0  0  0
  -20.9031    9.6414  -15.7509 C   0  0  0  0  0  0  0  0  0  0  0  0
  -20.5298   10.7444  -16.4905 C   0  0  0  0  0  0  0  0  0  0  0  0
  -19.3858   10.7286  -17.2510 C   0  0  0  0  0  0  0  0  0  0  0  0
  -18.5371    9.6087  -17.3241 C   0  0  0  0  0  0  0  0  0  0  0  0
  -18.9534    8.5371  -16.5705 C   0  0  0  0  0  0  0  0  0  0  0  0
  -20.0981    8.5407  -15.8035 C   0  0  0  0  0  0  0  0  0  0  0  0
  -25.2548    9.5209  -15.0475 C   0  0  0  0  0  0  0  0  0  0  0  0
  -24.5624    9.5971  -13.7994 N   0  0  0  0  0  0  0  0  0  0  0  0
  -23.7886   10.7831  -13.6023 C   0  0  0  0  0  0  0  0  0  0  0  0
  -22.6014   10.9000  -14.4952 C   0  0  0  0  0  0  0  0  0  0  0  0
  -22.0827    9.6396  -14.9602 N   0  0  0  0  0  0  0  0  0  0  0  0
  -22.7065    8.3560  -14.6603 C   0  0  0  0  0  0  0  0  0  0  0  0
  -23.7352    8.4536  -13.5769 C   0  0  0  0  0  0  0  0  0  0  0  0
 35 36  1  0  0  0
 36 37  1  0  0  0
 37 38  1  0  0  0
 38 39  1  0  0  0
 39 40  1  0  0  0
 40 41  1  0  0  0
 39 29  1  0  0  0
 29 30  2  0  0  0
 30 31  1  0  0  0
 31 32  2  0  0  0
 32 27  1  0  0  0
 27  1  1  0  0  0
  1  2  2  0  0  0
  2  3  1  0  0  0
  3  4  2  0  0  0
  4  5  1  0  0  0
  5  6  2  0  0  0
  5  7  1  0  0  0
  7  8  1  0  0  0
  8  9  2  0  0  0
  9 10  1  0  0  0
 10 11  2  0  0  0
 11 12  1  0  0  0
 12 13  2  0  0  0
 13 14  1  0  0  0
 14 15  2  0  0  0
  8 16  1  0  0  0
 16 19  1  0  0  0
 19 20  2  0  0  0
 20 21  1  0  0  0
 20 22  1  0  0  0
 22 23  2  0  0  0
 23 24  1  0  0  0
 24 25  2  0  0  0
 25 26  1  0  0  0
 16 17  1  0  0  0
 17 18  2  0  0  0
 32 33  1  0  0  0
 33 34  2  0  0  0
 41 36  1  0  0  0
 34 29  1  0  0  0
  6  1  1  0  0  0
 15  7  1  0  0  0
 25 19  1  0  0  0
 17  4  1  0  0  0
 15 10  1  0  0  0
 27 28  1  0  0  0
M  END
> <minimizedAffinity>
-11.89881

> <CNNscore>
0.9035422206

> <CNNaffinity>
8.1754293442

> <CNN_VS>
7.3868455887

> <CNNaffinity_variance>
0.0711219609

$$$$
[H]c1c([H])c(C([H])([H])[H])c(-n2c(=O)c3c([H])nc(N([H])c4c([H])c([H])c(N5C([H])([H])C([H])([H])N(C([H])([H])[H])C([H])([H])C5([H])[H])c([H])c4[H])nc3n3c4c([H])c([H])c([H])c([H])c4nc23)c(C([H])([H])[H])c1[H]


 41 47  0  0  0  0  0  0  0  0999 V2000
  -17.1436   10.4716  -19.2985 C   0  0  0  0  0  0  0  0  0  0  0  0
  -16.1490   10.0606  -20.1500 N   0  0  0  0  0  0  0  0  0  0  0  0
  -15.8066   10.6663  -21.2717 C   0  0  0  0  0  0  0  0  0  0  0  0
  -16.4749   11.7933  -21.6442 C   0  0  0  0  0  0  0  0  0  0  0  0
  -17.4867   12.2316  -20.8030 C   0  0  0  0  0  0  0  0  0  0  0  0
  -17.7963   11.5787  -19.6704 N   0  0  0  0  0  0  0  0  0  0  0  0
  -18.1186   13.3655  -21.2305 N   0  0  0  0  0  0  0  0  0  0  0  0
  -17.7774   13.9913  -22.3644 C   0  0  0  0  0  0  0  0  0  0  0  0
  -18.6067   15.0895  -22.5069 N   0  0  0  0  0  0  0  0  0  0  0  0
  -19.4553   15.1558  -21.4844 C   0  0  0  0  0  0  0  0  0  0  0  0
  -20.4764   16.0134  -21.1261 C   0  0  0  0  0  0  0  0  0  0  0  0
  -21.1775   15.7715  -19.9682 C   0  0  0  0  0  0  0  0  0  0  0  0
  -20.8767   14.6890  -19.1634 C   0  0  0  0  0  0  0  0  0  0  0  0
  -19.8435   13.8209  -19.5248 C   0  0  0  0  0  0  0  0  0  0  0  0
  -19.1462   14.0662  -20.6797 C   0  0  0  0  0  0  0  0  0  0  0  0
  -16.7904   13.5387  -23.1543 N   0  0  0  0  0  0  0  0  0  0  0  0
  -16.1327   12.4447  -22.8090 C   0  0  0  0  0  0  0  0  0  0  0  0
  -15.1695   11.9451  -23.5181 O   0  0  0  0  0  0  0  0  0  0  0  0
  -16.4661   14.2277  -24.3347 C   0  0  0  0  0  0  0  0  0  0  0  0
  -15.6417   15.3306  -24.2256 C   0  0  0  0  0  0  0  0  0  0  0  0
  -15.0917   15.8116  -22.9367 C   0  0  0  0  0  0  0  0  0  0  0  0
  -15.3432   15.9850  -25.4061 C   0  0  0  0  0  0  0  0  0  0  0  0
  -15.8331   15.5714  -26.6260 C   0  0  0  0  0  0  0  0  0  0  0  0
  -16.6501   14.4627  -26.6580 C   0  0  0  0  0  0  0  0  0  0  0  0
  -16.9934   13.7558  -25.5204 C   0  0  0  0  0  0  0  0  0  0  0  0
  -17.8750   12.5719  -25.6126 C   0  0  0  0  0  0  0  0  0  0  0  0
  -17.3994    9.6869  -18.1497 N   0  0  0  0  0  0  0  0  0  0  0  0
  -16.5977    9.0187  -17.8701 H   0  0  0  0  0  0  0  0  0  0  0  0
  -20.8863    9.6874  -15.7568 C   0  0  0  0  0  0  0  0  0  0  0  0
  -20.5102   10.7886  -16.4975 C   0  0  0  0  0  0  0  0  0  0  0  0
  -19.3662   10.7690  -17.2579 C   0  0  0  0  0  0  0  0  0  0  0  0
  -18.5203    9.6469  -17.3295 C   0  0  0  0  0  0  0  0  0  0  0  0
  -18.9393    8.5772  -16.5748 C   0  0  0  0  0  0  0  0  0  0  0  0
  -20.0841    8.5845  -15.8080 C   0  0  0  0  0  0  0  0  0  0  0  0
  -25.2399    9.6374  -15.0560 C   0  0  0  0  0  0  0  0  0  0  0  0
  -24.5465    9.6679  -13.8065 N   0  0  0  0  0  0  0  0  0  0  0  0
  -23.7489   10.8326  -13.5794 C   0  0  0  0  0  0  0  0  0  0  0  0
  -22.5592   10.9479  -14.4692 C   0  0  0  0  0  0  0  0  0  0  0  0
  -22.0661    9.6894  -14.9661 N   0  0  0  0  0  0  0  0  0  0  0  0
  -22.7159    8.4116  -14.6988 C   0  0  0  0  0  0  0  0  0  0  0  0
  -23.7428    8.5025  -13.6132 C   0  0  0  0  0  0  0  0  0  0  0  0
 35 36  1  0  0  0
 36 37  1  0  0  0
 37 38  1  0  0  0
 38 39  1  0  0  0
 39 40  1  0  0  0
 40 41  1  0  0  0
 39 29  1  0  0  0
 29 30  2  0  0  0
 30 31  1  0  0  0
 31 32  2  0  0  0
 32 27  1  0  0  0
 27  1  1  0  0  0
  1  2  2  0  0  0
  2  3  1  0  0  0
  3  4  2  0  0  0
  4  5  1  0  0  0
  5  6  2  0  0  0
  5  7  1  0  0  0
  7  8  1  0  0  0
  8  9  2  0  0  0
  9 10  1  0  0  0
 10 11  2  0  0  0
 11 12  1  0  0  0
 12 13  2  0  0  0
 13 14  1  0  0  0
 14 15  2  0  0  0
  8 16  1  0  0  0
 16 19  1  0  0  0
 19 20  2  0  0  0
 20 21  1  0  0  0
 20 22  1  0  0  0
 22 23  2  0  0  0
 23 24  1  0  0  0
 24 25  2  0  0  0
 25 26  1  0  0  0
 16 17  1  0  0  0
 17 18  2  0  0  0
 32 33  1  0  0  0
 33 34  2  0  0  0
 41 36  1  0  0  0
 34 29  1  0  0  0
  6  1  1  0  0  0
 15  7  1  0  0  0
 25 19  1  0  0  0
 17  4  1  0  0  0
 15 10  1  0  0  0
 27 28  1  0  0  0
M  END
> <minimizedAffinity>
-11.89984

> <CNNscore>
0.8990521431

> <CNNaffinity>
8.1742687225

> <CNN_VS>
7.3490939140

> <CNNaffinity_variance>
0.0723680705

$$$$
[H]c1c([H])c(C([H])([H])[H])c(-n2c(=O)c3c([H])nc(N([H])c4c([H])c([H])c(N5C([H])([H])C([H])([H])N(C([H])([H])[H])C([H])([H])C5([H])[H])c([H])c4[H])nc3n3c4c([H])c([H])c([H])c([H])c4nc23)c(C([H])([H])[H])c1[H]


 41 47  0  0  0  0  0  0  0  0999 V2000
  -17.6751   11.1599  -19.3105 C   0  0  0  0  0  0  0  0  0  0  0  0
  -16.7347   10.5539  -20.1054 N   0  0  0  0  0  0  0  0  0  0  0  0
  -16.3122   11.0098  -21.2699 C   0  0  0  0  0  0  0  0  0  0  0  0
  -16.8315   12.1734  -21.7513 C   0  0  0  0  0  0  0  0  0  0  0  0
  -17.7854   12.8076  -20.9693 C   0  0  0  0  0  0  0  0  0  0  0  0
  -18.1814   12.3020  -19.7894 N   0  0  0  0  0  0  0  0  0  0  0  0
  -18.2673   13.9686  -21.5056 N   0  0  0  0  0  0  0  0  0  0  0  0
  -17.8433   14.4433  -22.6839 C   0  0  0  0  0  0  0  0  0  0  0  0
  -18.5274   15.6192  -22.9365 N   0  0  0  0  0  0  0  0  0  0  0  0
  -19.3671   15.8815  -21.9385 C   0  0  0  0  0  0  0  0  0  0  0  0
  -20.2747   16.8881  -21.6745 C   0  0  0  0  0  0  0  0  0  0  0  0
  -21.0077   16.8396  -20.5121 C   0  0  0  0  0  0  0  0  0  0  0  0
  -20.8500   15.8043  -19.6103 C   0  0  0  0  0  0  0  0  0  0  0  0
  -19.9318   14.7855  -19.8764 C   0  0  0  0  0  0  0  0  0  0  0  0
  -19.2022   14.8381  -21.0362 C   0  0  0  0  0  0  0  0  0  0  0  0
  -16.9162   13.8027  -23.4140 N   0  0  0  0  0  0  0  0  0  0  0  0
  -16.4031   12.6706  -22.9627 C   0  0  0  0  0  0  0  0  0  0  0  0
  -15.5059   11.9937  -23.6085 O   0  0  0  0  0  0  0  0  0  0  0  0
  -16.5008   14.3379  -24.6445 C   0  0  0  0  0  0  0  0  0  0  0  0
  -17.0550   13.8068  -25.7928 C   0  0  0  0  0  0  0  0  0  0  0  0
  -18.0547   12.7134  -25.7839 C   0  0  0  0  0  0  0  0  0  0  0  0
  -16.6237   14.3563  -26.9857 C   0  0  0  0  0  0  0  0  0  0  0  0
  -15.6961   15.3740  -27.0394 C   0  0  0  0  0  0  0  0  0  0  0  0
  -15.1863   15.8539  -25.8531 C   0  0  0  0  0  0  0  0  0  0  0  0
  -15.5683   15.3559  -24.6210 C   0  0  0  0  0  0  0  0  0  0  0  0
  -14.9881   15.9087  -23.3779 C   0  0  0  0  0  0  0  0  0  0  0  0
  -18.0344   10.5188  -18.1019 N   0  0  0  0  0  0  0  0  0  0  0  0
  -17.3458    9.7538  -17.7731 H   0  0  0  0  0  0  0  0  0  0  0  0
  -21.4123   11.2941  -15.6784 C   0  0  0  0  0  0  0  0  0  0  0  0
  -20.7082   12.3081  -16.2939 C   0  0  0  0  0  0  0  0  0  0  0  0
  -19.6063   12.0325  -17.0667 C   0  0  0  0  0  0  0  0  0  0  0  0
  -19.1333   10.7242  -17.2768 C   0  0  0  0  0  0  0  0  0  0  0  0
  -19.8692    9.7512  -16.6433 C   0  0  0  0  0  0  0  0  0  0  0  0
  -20.9757   10.0147  -15.8655 C   0  0  0  0  0  0  0  0  0  0  0  0
  -23.6045   11.8862  -11.8981 C   0  0  0  0  0  0  0  0  0  0  0  0
  -24.4938   12.0442  -13.0058 N   0  0  0  0  0  0  0  0  0  0  0  0
  -24.6701   10.8806  -13.8177 C   0  0  0  0  0  0  0  0  0  0  0  0
  -23.4608   10.4789  -14.5900 C   0  0  0  0  0  0  0  0  0  0  0  0
  -22.5542   11.5604  -14.8771 N   0  0  0  0  0  0  0  0  0  0  0  0
  -22.7476   12.9204  -14.3876 C   0  0  0  0  0  0  0  0  0  0  0  0
  -24.1215   13.1453  -13.8368 C   0  0  0  0  0  0  0  0  0  0  0  0
 35 36  1  0  0  0
 36 37  1  0  0  0
 37 38  1  0  0  0
 38 39  1  0  0  0
 39 40  1  0  0  0
 40 41  1  0  0  0
 39 29  1  0  0  0
 29 30  2  0  0  0
 30 31  1  0  0  0
 31 32  2  0  0  0
 32 27  1  0  0  0
 27  1  1  0  0  0
  1  2  2  0  0  0
  2  3  1  0  0  0
  3  4  2  0  0  0
  4  5  1  0  0  0
  5  6  2  0  0  0
  5  7  1  0  0  0
  7  8  1  0  0  0
  8  9  2  0  0  0
  9 10  1  0  0  0
 10 11  2  0  0  0
 11 12  1  0  0  0
 12 13  2  0  0  0
 13 14  1  0  0  0
 14 15  2  0  0  0
  8 16  1  0  0  0
 16 19  1  0  0  0
 19 20  2  0  0  0
 20 21  1  0  0  0
 20 22  1  0  0  0
 22 23  2  0  0  0
 23 24  1  0  0  0
 24 25  2  0  0  0
 25 26  1  0  0  0
 16 17  1  0  0  0
 17 18  2  0  0  0
 32 33  1  0  0  0
 33 34  2  0  0  0
 41 36  1  0  0  0
 34 29  1  0  0  0
  6  1  1  0  0  0
 15  7  1  0  0  0
 25 19  1  0  0  0
 17  4  1  0  0  0
 15 10  1  0  0  0
 27 28  1  0  0  0
M  END
> <minimizedAffinity>
-10.94550

> <CNNscore>
0.6446517706

> <CNNaffinity>
7.8525481224

> <CNN_VS>
5.0621590614

> <CNNaffinity_variance>
0.1424352229

$$$$
[H]c1c([H])c(C([H])([H])[H])c(-n2c(=O)c3c([H])nc(N([H])c4c([H])c([H])c(N5C([H])([H])C([H])([H])N(C([H])([H])[H])C([H])([H])C5([H])[H])c([H])c4[H])nc3n3c4c([H])c([H])c([H])c([H])c4nc23)c(C([H])([H])[H])c1[H]


 41 47  0  0  0  0  0  0  0  0999 V2000
  -18.3592   11.7030  -19.3125 C   0  0  0  0  0  0  0  0  0  0  0  0
  -17.4023   11.0103  -20.0111 N   0  0  0  0  0  0  0  0  0  0  0  0
  -16.8619   11.3962  -21.1519 C   0  0  0  0  0  0  0  0  0  0  0  0
  -17.2645   12.5722  -21.7088 C   0  0  0  0  0  0  0  0  0  0  0  0
  -18.2319   13.2934  -21.0251 C   0  0  0  0  0  0  0  0  0  0  0  0
  -18.7503   12.8568  -19.8652 N   0  0  0  0  0  0  0  0  0  0  0  0
  -18.5933   14.4626  -21.6336 N   0  0  0  0  0  0  0  0  0  0  0  0
  -18.0491   14.8667  -22.7887 C   0  0  0  0  0  0  0  0  0  0  0  0
  -18.6325   16.0737  -23.1311 N   0  0  0  0  0  0  0  0  0  0  0  0
  -19.5276   16.4246  -22.2115 C   0  0  0  0  0  0  0  0  0  0  0  0
  -20.3843   17.4955  -22.0517 C   0  0  0  0  0  0  0  0  0  0  0  0
  -21.2065   17.5356  -20.9502 C   0  0  0  0  0  0  0  0  0  0  0  0
  -21.1877   16.5256  -20.0071 C   0  0  0  0  0  0  0  0  0  0  0  0
  -20.3209   15.4416  -20.1677 C   0  0  0  0  0  0  0  0  0  0  0  0
  -19.5021   15.4060  -21.2670 C   0  0  0  0  0  0  0  0  0  0  0  0
  -17.1128   14.1426  -23.4227 N   0  0  0  0  0  0  0  0  0  0  0  0
  -16.7120   12.9972  -22.8973 C   0  0  0  0  0  0  0  0  0  0  0  0
  -15.8143   12.2419  -23.4485 O   0  0  0  0  0  0  0  0  0  0  0  0
  -16.5692   14.6057  -24.6323 C   0  0  0  0  0  0  0  0  0  0  0  0
  -15.6039   15.5914  -24.5640 C   0  0  0  0  0  0  0  0  0  0  0  0
  -15.1231   16.1731  -23.2890 C   0  0  0  0  0  0  0  0  0  0  0  0
  -15.0909   16.0239  -25.7726 C   0  0  0  0  0  0  0  0  0  0  0  0
  -15.5095   15.5101  -26.9808 C   0  0  0  0  0  0  0  0  0  0  0  0
  -16.4762   14.5288  -26.9716 C   0  0  0  0  0  0  0  0  0  0  0  0
  -17.0368   14.0447  -25.8041 C   0  0  0  0  0  0  0  0  0  0  0  0
  -18.0722   12.9896  -25.8525 C   0  0  0  0  0  0  0  0  0  0  0  0
  -18.8522   11.1300  -18.1169 N   0  0  0  0  0  0  0  0  0  0  0  0
  -18.4936   10.1315  -17.9118 H   0  0  0  0  0  0  0  0  0  0  0  0
  -21.5724   12.8311  -15.3617 C   0  0  0  0  0  0  0  0  0  0  0  0
  -21.1565   13.5089  -16.4888 C   0  0  0  0  0  0  0  0  0  0  0  0
  -20.2623   12.9404  -17.3632 C   0  0  0  0  0  0  0  0  0  0  0  0
  -19.7230   11.6552  -17.1702 C   0  0  0  0  0  0  0  0  0  0  0  0
  -20.1693   11.0224  -16.0344 C   0  0  0  0  0  0  0  0  0  0  0  0
  -21.0654   11.5820  -15.1497 C   0  0  0  0  0  0  0  0  0  0  0  0
  -25.5357   14.2143  -14.0104 C   0  0  0  0  0  0  0  0  0  0  0  0
  -24.5686   14.4284  -12.9799 N   0  0  0  0  0  0  0  0  0  0  0  0
  -23.5143   15.3355  -13.3114 C   0  0  0  0  0  0  0  0  0  0  0  0
  -22.5800   14.8378  -14.3601 C   0  0  0  0  0  0  0  0  0  0  0  0
  -22.4970   13.4028  -14.4478 N   0  0  0  0  0  0  0  0  0  0  0  0
  -23.3146   12.5016  -13.6440 C   0  0  0  0  0  0  0  0  0  0  0  0
  -24.0040   13.2013  -12.5141 C   0  0  0  0  0  0  0  0  0  0  0  0
 35 36  1  0  0  0
 36 37  1  0  0  0
 37 38  1  0  0  0
 38 39  1  0  0  0
 39 40  1  0  0  0
 40 41  1  0  0  0
 39 29  1  0  0  0
 29 30  2  0  0  0
 30 31  1  0  0  0
 31 32  2  0  0  0
 32 27  1  0  0  0
 27  1  1  0  0  0
  1  2  2  0  0  0
  2  3  1  0  0  0
  3  4  2  0  0  0
  4  5  1  0  0  0
  5  6  2  0  0  0
  5  7  1  0  0  0
  7  8  1  0  0  0
  8  9  2  0  0  0
  9 10  1  0  0  0
 10 11  2  0  0  0
 11 12  1  0  0  0
 12 13  2  0  0  0
 13 14  1  0  0  0
 14 15  2  0  0  0
  8 16  1  0  0  0
 16 19  1  0  0  0
 19 20  2  0  0  0
 20 21  1  0  0  0
 20 22  1  0  0  0
 22 23  2  0  0  0
 23 24  1  0  0  0
 24 25  2  0  0  0
 25 26  1  0  0  0
 16 17  1  0  0  0
 17 18  2  0  0  0
 32 33  1  0  0  0
 33 34  2  0  0  0
 41 36  1  0  0  0
 34 29  1  0  0  0
  6  1  1  0  0  0
 15  7  1  0  0  0
 25 19  1  0  0  0
 17  4  1  0  0  0
 15 10  1  0  0  0
 27 28  1  0  0  0
M  END
> <minimizedAffinity>
-10.29557

> <CNNscore>
0.4299875498

> <CNNaffinity>
7.6171851158

> <CNN_VS>
3.2752947807

> <CNNaffinity_variance>
0.3141401112

$$$$
[H]c1c([H])c(C([H])([H])[H])c(-n2c(=O)c3c([H])nc(N([H])c4c([H])c([H])c(N5C([H])([H])C([H])([H])N(C([H])([H])[H])C([H])([H])C5([H])[H])c([H])c4[H])nc3n3c4c([H])c([H])c([H])c([H])c4nc23)c(C([H])([H])[H])c1[H]


 41 47  0  0  0  0  0  0  0  0999 V2000
  -18.6736   13.1180  -18.4761 C   0  0  0  0  0  0  0  0  0  0  0  0
  -18.0343   13.8841  -19.4182 N   0  0  0  0  0  0  0  0  0  0  0  0
  -18.3581   15.1221  -19.7422 C   0  0  0  0  0  0  0  0  0  0  0  0
  -19.4074   15.7172  -19.1097 C   0  0  0  0  0  0  0  0  0  0  0  0
  -20.0735   14.9658  -18.1530 C   0  0  0  0  0  0  0  0  0  0  0  0
  -19.7035   13.7083  -17.8590 N   0  0  0  0  0  0  0  0  0  0  0  0
  -21.1152   15.6174  -17.5546 N   0  0  0  0  0  0  0  0  0  0  0  0
  -21.4506   16.8746  -17.8718 C   0  0  0  0  0  0  0  0  0  0  0  0
  -22.5395   17.2300  -17.0958 N   0  0  0  0  0  0  0  0  0  0  0  0
  -22.8857   16.2176  -16.3050 C   0  0  0  0  0  0  0  0  0  0  0  0
  -23.8723   16.0196  -15.3596 C   0  0  0  0  0  0  0  0  0  0  0  0
  -23.9488   14.8063  -14.7169 C   0  0  0  0  0  0  0  0  0  0  0  0
  -23.0581   13.7889  -15.0023 C   0  0  0  0  0  0  0  0  0  0  0  0
  -22.0592   13.9884  -15.9586 C   0  0  0  0  0  0  0  0  0  0  0  0
  -21.9858   15.2000  -16.5964 C   0  0  0  0  0  0  0  0  0  0  0  0
  -20.7816   17.5731  -18.8031 N   0  0  0  0  0  0  0  0  0  0  0  0
  -19.7617   17.0099  -19.4287 C   0  0  0  0  0  0  0  0  0  0  0  0
  -19.0675   17.6176  -20.3391 O   0  0  0  0  0  0  0  0  0  0  0  0
  -21.1682   18.8898  -19.1034 C   0  0  0  0  0  0  0  0  0  0  0  0
  -20.2489   19.8947  -18.8731 C   0  0  0  0  0  0  0  0  0  0  0  0
  -18.8920   19.6483  -18.3316 C   0  0  0  0  0  0  0  0  0  0  0  0
  -20.6622   21.1778  -19.1791 C   0  0  0  0  0  0  0  0  0  0  0  0
  -21.9148   21.4513  -19.6845 C   0  0  0  0  0  0  0  0  0  0  0  0
  -22.7792   20.3983  -19.8882 C   0  0  0  0  0  0  0  0  0  0  0  0
  -22.4385   19.0881  -19.6067 C   0  0  0  0  0  0  0  0  0  0  0  0
  -23.4066   17.9955  -19.8448 C   0  0  0  0  0  0  0  0  0  0  0  0
  -18.2131   11.7961  -18.2726 N   0  0  0  0  0  0  0  0  0  0  0  0
  -17.2739   11.5646  -18.7541 H   0  0  0  0  0  0  0  0  0  0  0  0
  -19.8099    8.6364  -15.9593 C   0  0  0  0  0  0  0  0  0  0  0  0
  -18.4559    8.8968  -16.0021 C   0  0  0  0  0  0  0  0  0  0  0  0
  -17.9593    9.9213  -16.7709 C   0  0  0  0  0  0  0  0  0  0  0  0
  -18.7828   10.7555  -17.5492 C   0  0  0  0  0  0  0  0  0  0  0  0
  -20.1219   10.4554  -17.4714 C   0  0  0  0  0  0  0  0  0  0  0  0
  -20.6322    9.4305  -16.7046 C   0  0  0  0  0  0  0  0  0  0  0  0
  -22.6076    6.7993  -13.0879 C   0  0  0  0  0  0  0  0  0  0  0  0
  -21.6552    5.8285  -13.5279 N   0  0  0  0  0  0  0  0  0  0  0  0
  -20.2945    6.1135  -13.1940 C   0  0  0  0  0  0  0  0  0  0  0  0
  -19.7195    7.2911  -13.9032 C   0  0  0  0  0  0  0  0  0  0  0  0
  -20.3408    7.5824  -15.1693 N   0  0  0  0  0  0  0  0  0  0  0  0
  -21.4904    6.8489  -15.6861 C   0  0  0  0  0  0  0  0  0  0  0  0
  -21.7532    5.5825  -14.9320 C   0  0  0  0  0  0  0  0  0  0  0  0
 35 36  1  0  0  0
 36 37  1  0  0  0
 37 38  1  0  0  0
 38 39  1  0  0  0
 39 40  1  0  0  0
 40 41  1  0  0  0
 39 29  1  0  0  0
 29 30  2  0  0  0
 30 31  1  0  0  0
 31 32  2  0  0  0
 32 27  1  0  0  0
 27  1  1  0  0  0
  1  2  2  0  0  0
  2  3  1  0  0  0
  3  4  2  0  0  0
  4  5  1  0  0  0
  5  6  2  0  0  0
  5  7  1  0  0  0
  7  8  1  0  0  0
  8  9  2  0  0  0
  9 10  1  0  0  0
 10 11  2  0  0  0
 11 12  1  0  0  0
 12 13  2  0  0  0
 13 14  1  0  0  0
 14 15  2  0  0  0
  8 16  1  0  0  0
 16 19  1  0  0  0
 19 20  2  0  0  0
 20 21  1  0  0  0
 20 22  1  0  0  0
 22 23  2  0  0  0
 23 24  1  0  0  0
 24 25  2  0  0  0
 25 26  1  0  0  0
 16 17  1  0  0  0
 17 18  2  0  0  0
 32 33  1  0  0  0
 33 34  2  0  0  0
 41 36  1  0  0  0
 34 29  1  0  0  0
  6  1  1  0  0  0
 15  7  1  0  0  0
 25 19  1  0  0  0
 17  4  1  0  0  0
 15 10  1  0  0  0
 27 28  1  0  0  0
M  END
> <minimizedAffinity>
-4.05755

> <CNNscore>
0.3036948442

> <CNNaffinity>
6.6646704674

> <CNN_VS>
2.0240261555

> <CNNaffinity_variance>
0.7248942256

$$$$
[H]c1c([H])c(C([H])([H])[H])c(-n2c(=O)c3c([H])nc(N([H])c4c([H])c([H])c(N5C([H])([H])C([H])([H])N(C([H])([H])[H])C([H])([H])C5([H])[H])c([H])c4[H])nc3n3c4c([H])c([H])c([H])c([H])c4nc23)c(C([H])([H])[H])c1[H]


 41 47  0  0  0  0  0  0  0  0999 V2000
  -18.1944   13.2285  -19.3246 C   0  0  0  0  0  0  0  0  0  0  0  0
  -17.2936   12.3482  -19.8695 N   0  0  0  0  0  0  0  0  0  0  0  0
  -16.8189   12.4065  -21.0999 C   0  0  0  0  0  0  0  0  0  0  0  0
  -17.2367   13.4090  -21.9220 C   0  0  0  0  0  0  0  0  0  0  0  0
  -18.1485   14.3133  -21.3982 C   0  0  0  0  0  0  0  0  0  0  0  0
  -18.6009   14.2103  -20.1374 N   0  0  0  0  0  0  0  0  0  0  0  0
  -18.5284   15.2944  -22.2705 N   0  0  0  0  0  0  0  0  0  0  0  0
  -18.0506   15.3665  -23.5196 C   0  0  0  0  0  0  0  0  0  0  0  0
  -18.6350   16.4603  -24.1330 N   0  0  0  0  0  0  0  0  0  0  0  0
  -19.4658   17.0665  -23.2890 C   0  0  0  0  0  0  0  0  0  0  0  0
  -20.2941   18.1684  -23.3678 C   0  0  0  0  0  0  0  0  0  0  0  0
  -21.0458   18.5197  -22.2712 C   0  0  0  0  0  0  0  0  0  0  0  0
  -20.9844   17.7900  -21.0992 C   0  0  0  0  0  0  0  0  0  0  0  0
  -20.1464   16.6751  -21.0183 C   0  0  0  0  0  0  0  0  0  0  0  0
  -19.3979   16.3288  -22.1138 C   0  0  0  0  0  0  0  0  0  0  0  0
  -17.1668   14.4733  -23.9929 N   0  0  0  0  0  0  0  0  0  0  0  0
  -16.7522   13.4923  -23.2091 C   0  0  0  0  0  0  0  0  0  0  0  0
  -15.9024   12.5918  -23.5924 O   0  0  0  0  0  0  0  0  0  0  0  0
  -16.6919   14.5881  -25.3099 C   0  0  0  0  0  0  0  0  0  0  0  0
  -15.7764   15.5879  -25.5749 C   0  0  0  0  0  0  0  0  0  0  0  0
  -15.2798   16.5308  -24.5456 C   0  0  0  0  0  0  0  0  0  0  0  0
  -15.3304   15.6727  -26.8807 C   0  0  0  0  0  0  0  0  0  0  0  0
  -15.7660   14.8163  -27.8687 C   0  0  0  0  0  0  0  0  0  0  0  0
  -16.6803   13.8431  -27.5306 C   0  0  0  0  0  0  0  0  0  0  0  0
  -17.1727   13.6953  -26.2471 C   0  0  0  0  0  0  0  0  0  0  0  0
  -18.1539   12.6322  -25.9397 C   0  0  0  0  0  0  0  0  0  0  0  0
  -18.6214   13.0024  -17.9952 N   0  0  0  0  0  0  0  0  0  0  0  0
  -18.5562   13.8637  -17.3460 H   0  0  0  0  0  0  0  0  0  0  0  0
  -20.2692    9.5609  -16.1716 C   0  0  0  0  0  0  0  0  0  0  0  0
  -20.7725   10.8233  -15.9350 C   0  0  0  0  0  0  0  0  0  0  0  0
  -20.2125   11.9279  -16.5295 C   0  0  0  0  0  0  0  0  0  0  0  0
  -19.1110   11.8457  -17.4012 C   0  0  0  0  0  0  0  0  0  0  0  0
  -18.6482   10.5674  -17.6041 C   0  0  0  0  0  0  0  0  0  0  0  0
  -19.2008    9.4517  -17.0136 C   0  0  0  0  0  0  0  0  0  0  0  0
  -22.1514    5.5731  -16.1309 C   0  0  0  0  0  0  0  0  0  0  0  0
  -21.9691    6.0384  -14.7918 N   0  0  0  0  0  0  0  0  0  0  0  0
  -22.6889    7.2272  -14.4555 C   0  0  0  0  0  0  0  0  0  0  0  0
  -22.2162    8.4534  -15.1578 C   0  0  0  0  0  0  0  0  0  0  0  0
  -20.8362    8.4078  -15.5667 N   0  0  0  0  0  0  0  0  0  0  0  0
  -19.9860    7.2360  -15.3913 C   0  0  0  0  0  0  0  0  0  0  0  0
  -20.5882    6.2188  -14.4725 C   0  0  0  0  0  0  0  0  0  0  0  0
 35 36  1  0  0  0
 36 37  1  0  0  0
 37 38  1  0  0  0
 38 39  1  0  0  0
 39 40  1  0  0  0
 40 41  1  0  0  0
 39 29  1  0  0  0
 29 30  2  0  0  0
 30 31  1  0  0  0
 31 32  2  0  0  0
 32 27  1  0  0  0
 27  1  1  0  0  0
  1  2  2  0  0  0
  2  3  1  0  0  0
  3  4  2  0  0  0
  4  5  1  0  0  0
  5  6  2  0  0  0
  5  7  1  0  0  0
  7  8  1  0  0  0
  8  9  2  0  0  0
  9 10  1  0  0  0
 10 11  2  0  0  0
 11 12  1  0  0  0
 12 13  2  0  0  0
 13 14  1  0  0  0
 14 15  2  0  0  0
  8 16  1  0  0  0
 16 19  1  0  0  0
 19 20  2  0  0  0
 20 21  1  0  0  0
 20 22  1  0  0  0
 22 23  2  0  0  0
 23 24  1  0  0  0
 24 25  2  0  0  0
 25 26  1  0  0  0
 16 17  1  0  0  0
 17 18  2  0  0  0
 32 33  1  0  0  0
 33 34  2  0  0  0
 41 36  1  0  0  0
 34 29  1  0  0  0
  6  1  1  0  0  0
 15  7  1  0  0  0
 25 19  1  0  0  0
 17  4  1  0  0  0
 15 10  1  0  0  0
 27 28  1  0  0  0
M  END
> <minimizedAffinity>
-11.00138

> <CNNscore>
0.3007032871

> <CNNaffinity>
7.5405769348

> <CNN_VS>
2.2674763203

> <CNNaffinity_variance>
0.3989620805

$$$$
[H]c1c([H])c(C([H])([H])[H])c(-n2c(=O)c3c([H])nc(N([H])c4c([H])c([H])c(N5C([H])([H])C([H])([H])N(C([H])([H])[H])C([H])([H])C5([H])[H])c([H])c4[H])nc3n3c4c([H])c([H])c([H])c([H])c4nc23)c(C([H])([H])[H])c1[H]


 41 47  0  0  0  0  0  0  0  0999 V2000
  -18.1344    9.9059  -18.0328 C   0  0  0  0  0  0  0  0  0  0  0  0
  -18.3781    8.7509  -17.3328 N   0  0  0  0  0  0  0  0  0  0  0  0
  -19.2639    8.6193  -16.3631 C   0  0  0  0  0  0  0  0  0  0  0  0
  -20.0134    9.6980  -16.0025 C   0  0  0  0  0  0  0  0  0  0  0  0
  -19.7877   10.8798  -16.6924 C   0  0  0  0  0  0  0  0  0  0  0  0
  -18.8735   10.9615  -17.6734 N   0  0  0  0  0  0  0  0  0  0  0  0
  -20.5696   11.9240  -16.2851 N   0  0  0  0  0  0  0  0  0  0  0  0
  -21.4746   11.8016  -15.3055 C   0  0  0  0  0  0  0  0  0  0  0  0
  -22.0849   13.0320  -15.1380 N   0  0  0  0  0  0  0  0  0  0  0  0
  -21.5753   13.9140  -15.9937 C   0  0  0  0  0  0  0  0  0  0  0  0
  -21.7985   15.2513  -16.2553 C   0  0  0  0  0  0  0  0  0  0  0  0
  -21.0619   15.8728  -17.2361 C   0  0  0  0  0  0  0  0  0  0  0  0
  -20.1073   15.1825  -17.9587 C   0  0  0  0  0  0  0  0  0  0  0  0
  -19.8809   13.8293  -17.6950 C   0  0  0  0  0  0  0  0  0  0  0  0
  -20.6182   13.2131  -16.7168 C   0  0  0  0  0  0  0  0  0  0  0  0
  -21.6674   10.6402  -14.6598 N   0  0  0  0  0  0  0  0  0  0  0  0
  -20.9468    9.5835  -14.9955 C   0  0  0  0  0  0  0  0  0  0  0  0
  -21.0733    8.4292  -14.4196 O   0  0  0  0  0  0  0  0  0  0  0  0
  -22.6284   10.5576  -13.6386 C   0  0  0  0  0  0  0  0  0  0  0  0
  -22.2326   10.8949  -12.3590 C   0  0  0  0  0  0  0  0  0  0  0  0
  -20.8586   11.3345  -12.0210 C   0  0  0  0  0  0  0  0  0  0  0  0
  -23.2028   10.8020  -11.3786 C   0  0  0  0  0  0  0  0  0  0  0  0
  -24.4922   10.3980  -11.6493 C   0  0  0  0  0  0  0  0  0  0  0  0
  -24.8149   10.0770  -12.9495 C   0  0  0  0  0  0  0  0  0  0  0  0
  -23.9000   10.1451  -13.9839 C   0  0  0  0  0  0  0  0  0  0  0  0
  -24.3009    9.7885  -15.3622 C   0  0  0  0  0  0  0  0  0  0  0  0
  -17.1265    9.8799  -19.0250 N   0  0  0  0  0  0  0  0  0  0  0  0
  -16.3901    9.0988  -18.9019 H   0  0  0  0  0  0  0  0  0  0  0  0
  -16.4782   12.2514  -22.4659 C   0  0  0  0  0  0  0  0  0  0  0  0
  -15.6309   11.2186  -22.1219 C   0  0  0  0  0  0  0  0  0  0  0  0
  -15.8552   10.4698  -20.9922 C   0  0  0  0  0  0  0  0  0  0  0  0
  -16.9421   10.7025  -20.1294 C   0  0  0  0  0  0  0  0  0  0  0  0
  -17.7556   11.7406  -20.5166 C   0  0  0  0  0  0  0  0  0  0  0  0
  -17.5412   12.4991  -21.6468 C   0  0  0  0  0  0  0  0  0  0  0  0
  -16.6088   15.9225  -24.9058 C   0  0  0  0  0  0  0  0  0  0  0  0
  -16.0075   14.8629  -25.6533 N   0  0  0  0  0  0  0  0  0  0  0  0
  -16.8557   13.7416  -25.9131 C   0  0  0  0  0  0  0  0  0  0  0  0
  -17.2187   12.9501  -24.7039 C   0  0  0  0  0  0  0  0  0  0  0  0
  -16.2624   13.0350  -23.6305 N   0  0  0  0  0  0  0  0  0  0  0  0
  -15.0788   13.8857  -23.6763 C   0  0  0  0  0  0  0  0  0  0  0  0
  -14.7951   14.4058  -25.0512 C   0  0  0  0  0  0  0  0  0  0  0  0
 35 36  1  0  0  0
 36 37  1  0  0  0
 37 38  1  0  0  0
 38 39  1  0  0  0
 39 40  1  0  0  0
 40 41  1  0  0  0
 39 29  1  0  0  0
 29 30  2  0  0  0
 30 31  1  0  0  0
 31 32  2  0  0  0
 32 27  1  0  0  0
 27  1  1  0  0  0
  1  2  2  0  0  0
  2  3  1  0  0  0
  3  4  2  0  0  0
  4  5  1  0  0  0
  5  6  2  0  0  0
  5  7  1  0  0  0
  7  8  1  0  0  0
  8  9  2  0  0  0
  9 10  1  0  0  0
 10 11  2  0  0  0
 11 12  1  0  0  0
 12 13  2  0  0  0
 13 14  1  0  0  0
 14 15  2  0  0  0
  8 16  1  0  0  0
 16 19  1  0  0  0
 19 20  2  0  0  0
 20 21  1  0  0  0
 20 22  1  0  0  0
 22 23  2  0  0  0
 23 24  1  0  0  0
 24 25  2  0  0  0
 25 26  1  0  0  0
 16 17  1  0  0  0
 17 18  2  0  0  0
 32 33  1  0  0  0
 33 34  2  0  0  0
 41 36  1  0  0  0
 34 29  1  0  0  0
  6  1  1  0  0  0
 15  7  1  0  0  0
 25 19  1  0  0  0
 17  4  1  0  0  0
 15 10  1  0  0  0
 27 28  1  0  0  0
M  END
> <minimizedAffinity>
-10.22568

> <CNNscore>
0.1914933771

> <CNNaffinity>
6.9701905251

> <CNN_VS>
1.3347452879

> <CNNaffinity_variance>
0.1602080613

$$$$
[H]c1c([H])c(C([H])([H])[H])c(-n2c(=O)c3c([H])nc(N([H])c4c([H])c([H])c(N5C([H])([H])C([H])([H])N(C([H])([H])[H])C([H])([H])C5([H])[H])c([H])c4[H])nc3n3c4c([H])c([H])c([H])c([H])c4nc23)c(C([H])([H])[H])c1[H]


 41 47  0  0  0  0  0  0  0  0999 V2000
  -18.1589    9.8898  -17.9851 C   0  0  0  0  0  0  0  0  0  0  0  0
  -18.3969    8.7449  -17.2669 N   0  0  0  0  0  0  0  0  0  0  0  0
  -19.2773    8.6263  -16.2906 C   0  0  0  0  0  0  0  0  0  0  0  0
  -20.0267    9.7090  -15.9420 C   0  0  0  0  0  0  0  0  0  0  0  0
  -19.8066   10.8808  -16.6504 C   0  0  0  0  0  0  0  0  0  0  0  0
  -18.8979   10.9494  -17.6374 N   0  0  0  0  0  0  0  0  0  0  0  0
  -20.5881   11.9297  -16.2545 N   0  0  0  0  0  0  0  0  0  0  0  0
  -21.4877   11.8204  -15.2684 C   0  0  0  0  0  0  0  0  0  0  0  0
  -22.0991   13.0521  -15.1158 N   0  0  0  0  0  0  0  0  0  0  0  0
  -21.5955   13.9222  -15.9872 C   0  0  0  0  0  0  0  0  0  0  0  0
  -21.8224   15.2551  -16.2674 C   0  0  0  0  0  0  0  0  0  0  0  0
  -21.0921   15.8632  -17.2612 C   0  0  0  0  0  0  0  0  0  0  0  0
  -20.1402   15.1638  -17.9787 C   0  0  0  0  0  0  0  0  0  0  0  0
  -19.9101   13.8150  -17.6961 C   0  0  0  0  0  0  0  0  0  0  0  0
  -20.6412   13.2122  -16.7050 C   0  0  0  0  0  0  0  0  0  0  0  0
  -21.6751   10.6684  -14.6045 N   0  0  0  0  0  0  0  0  0  0  0  0
  -20.9545    9.6080  -14.9284 C   0  0  0  0  0  0  0  0  0  0  0  0
  -21.0760    8.4621  -14.3348 O   0  0  0  0  0  0  0  0  0  0  0  0
  -22.6305   10.5994  -13.5771 C   0  0  0  0  0  0  0  0  0  0  0  0
  -23.9025   10.1790  -13.9135 C   0  0  0  0  0  0  0  0  0  0  0  0
  -24.2978    9.8024  -15.2908 C   0  0  0  0  0  0  0  0  0  0  0  0
  -24.8174   10.1231  -12.8787 C   0  0  0  0  0  0  0  0  0  0  0  0
  -24.4919   10.4642  -11.5837 C   0  0  0  0  0  0  0  0  0  0  0  0
  -23.2032   10.8748  -11.3225 C   0  0  0  0  0  0  0  0  0  0  0  0
  -22.2327   10.9564  -12.3039 C   0  0  0  0  0  0  0  0  0  0  0  0
  -20.8639   11.4042  -11.9674 C   0  0  0  0  0  0  0  0  0  0  0  0
  -17.1562    9.8507  -18.9822 N   0  0  0  0  0  0  0  0  0  0  0  0
  -16.4342    9.0551  -18.8673 H   0  0  0  0  0  0  0  0  0  0  0  0
  -16.4742   12.2320  -22.4098 C   0  0  0  0  0  0  0  0  0  0  0  0
  -15.6254   11.2040  -22.0555 C   0  0  0  0  0  0  0  0  0  0  0  0
  -15.8609   10.4519  -20.9303 C   0  0  0  0  0  0  0  0  0  0  0  0
  -16.9613   10.6763  -20.0826 C   0  0  0  0  0  0  0  0  0  0  0  0
  -17.7758   11.7100  -20.4796 C   0  0  0  0  0  0  0  0  0  0  0  0
  -17.5502   12.4718  -21.6054 C   0  0  0  0  0  0  0  0  0  0  0  0
  -16.5365   15.9222  -24.8236 C   0  0  0  0  0  0  0  0  0  0  0  0
  -15.9617   14.8551  -25.5813 N   0  0  0  0  0  0  0  0  0  0  0  0
  -16.8352   13.7542  -25.8448 C   0  0  0  0  0  0  0  0  0  0  0  0
  -17.2096   12.9624  -24.6394 C   0  0  0  0  0  0  0  0  0  0  0  0
  -16.2469   13.0190  -23.5700 N   0  0  0  0  0  0  0  0  0  0  0  0
  -15.0453   13.8442  -23.6155 C   0  0  0  0  0  0  0  0  0  0  0  0
  -14.7567   14.3677  -24.9881 C   0  0  0  0  0  0  0  0  0  0  0  0
 35 36  1  0  0  0
 36 37  1  0  0  0
 37 38  1  0  0  0
 38 39  1  0  0  0
 39 40  1  0  0  0
 40 41  1  0  0  0
 39 29  1  0  0  0
 29 30  2  0  0  0
 30 31  1  0  0  0
 31 32  2  0  0  0
 32 27  1  0  0  0
 27  1  1  0  0  0
  1  2  2  0  0  0
  2  3  1  0  0  0
  3  4  2  0  0  0
  4  5  1  0  0  0
  5  6  2  0  0  0
  5  7  1  0  0  0
  7  8  1  0  0  0
  8  9  2  0  0  0
  9 10  1  0  0  0
 10 11  2  0  0  0
 11 12  1  0  0  0
 12 13  2  0  0  0
 13 14  1  0  0  0
 14 15  2  0  0  0
  8 16  1  0  0  0
 16 19  1  0  0  0
 19 20  2  0  0  0
 20 21  1  0  0  0
 20 22  1  0  0  0
 22 23  2  0  0  0
 23 24  1  0  0  0
 24 25  2  0  0  0
 25 26  1  0  0  0
 16 17  1  0  0  0
 17 18  2  0  0  0
 32 33  1  0  0  0
 33 34  2  0  0  0
 41 36  1  0  0  0
 34 29  1  0  0  0
  6  1  1  0  0  0
 15  7  1  0  0  0
 25 19  1  0  0  0
 17  4  1  0  0  0
 15 10  1  0  0  0
 27 28  1  0  0  0
M  END
> <minimizedAffinity>
-10.22438

> <CNNscore>
0.1905359179

> <CNNaffinity>
6.9427208900

> <CNN_VS>
1.3228377104

> <CNNaffinity_variance>
0.1775397807

$$$$
[H]c1c([H])c(C([H])([H])[H])c(-n2c(=O)c3c([H])nc(N([H])c4c([H])c([H])c(N5C([H])([H])C([H])([H])N(C([H])([H])[H])C([H])([H])C5([H])[H])c([H])c4[H])nc3n3c4c([H])c([H])c([H])c([H])c4nc23)c(C([H])([H])[H])c1[H]


 41 47  0  0  0  0  0  0  0  0999 V2000
  -18.1863   13.1857  -19.2635 C   0  0  0  0  0  0  0  0  0  0  0  0
  -17.2946   12.3068  -19.8255 N   0  0  0  0  0  0  0  0  0  0  0  0
  -16.8312   12.3752  -21.0596 C   0  0  0  0  0  0  0  0  0  0  0  0
  -17.2522   13.3875  -21.8679 C   0  0  0  0  0  0  0  0  0  0  0  0
  -18.1550   14.2906  -21.3267 C   0  0  0  0  0  0  0  0  0  0  0  0
  -18.5960   14.1772  -20.0628 N   0  0  0  0  0  0  0  0  0  0  0  0
  -18.5387   15.2818  -22.1858 N   0  0  0  0  0  0  0  0  0  0  0  0
  -18.0723   15.3641  -23.4385 C   0  0  0  0  0  0  0  0  0  0  0  0
  -18.6575   16.4665  -24.0357 N   0  0  0  0  0  0  0  0  0  0  0  0
  -19.4777   17.0679  -23.1780 C   0  0  0  0  0  0  0  0  0  0  0  0
  -20.3018   18.1742  -23.2382 C   0  0  0  0  0  0  0  0  0  0  0  0
  -21.0416   18.5179  -22.1312 C   0  0  0  0  0  0  0  0  0  0  0  0
  -20.9725   17.7765  -20.9670 C   0  0  0  0  0  0  0  0  0  0  0  0
  -20.1388   16.6571  -20.9050 C   0  0  0  0  0  0  0  0  0  0  0  0
  -19.4021   16.3184  -22.0107 C   0  0  0  0  0  0  0  0  0  0  0  0
  -17.1969   14.4719  -23.9289 N   0  0  0  0  0  0  0  0  0  0  0  0
  -16.7794   13.4814  -23.1586 C   0  0  0  0  0  0  0  0  0  0  0  0
  -15.9372   12.5810  -23.5587 O   0  0  0  0  0  0  0  0  0  0  0  0
  -16.7338   14.5975  -25.2491 C   0  0  0  0  0  0  0  0  0  0  0  0
  -17.2115   13.6987  -26.1828 C   0  0  0  0  0  0  0  0  0  0  0  0
  -18.1777   12.6236  -25.8578 C   0  0  0  0  0  0  0  0  0  0  0  0
  -16.7350   13.8507  -27.4715 C   0  0  0  0  0  0  0  0  0  0  0  0
  -15.8362   14.8367  -27.8169 C   0  0  0  0  0  0  0  0  0  0  0  0
  -15.4033   15.6974  -26.8324 C   0  0  0  0  0  0  0  0  0  0  0  0
  -15.8342   15.6089  -25.5215 C   0  0  0  0  0  0  0  0  0  0  0  0
  -15.3361   16.5601  -24.5043 C   0  0  0  0  0  0  0  0  0  0  0  0
  -18.6019   12.9483  -17.9324 N   0  0  0  0  0  0  0  0  0  0  0  0
  -18.0635   12.1618  -17.4234 H   0  0  0  0  0  0  0  0  0  0  0  0
  -21.5877   14.9945  -15.7455 C   0  0  0  0  0  0  0  0  0  0  0  0
  -20.5289   15.6576  -16.3303 C   0  0  0  0  0  0  0  0  0  0  0  0
  -19.5641   14.9697  -17.0256 C   0  0  0  0  0  0  0  0  0  0  0  0
  -19.5924   13.5718  -17.1836 C   0  0  0  0  0  0  0  0  0  0  0  0
  -20.6668   12.9593  -16.5836 C   0  0  0  0  0  0  0  0  0  0  0  0
  -21.6405   13.6378  -15.8834 C   0  0  0  0  0  0  0  0  0  0  0  0
  -23.8562   16.1626  -12.1488 C   0  0  0  0  0  0  0  0  0  0  0  0
  -24.3751   16.8435  -13.2934 N   0  0  0  0  0  0  0  0  0  0  0  0
  -24.9290   15.9998  -14.3062 C   0  0  0  0  0  0  0  0  0  0  0  0
  -23.9304   15.1515  -15.0158 C   0  0  0  0  0  0  0  0  0  0  0  0
  -22.5946   15.6894  -15.0242 N   0  0  0  0  0  0  0  0  0  0  0  0
  -22.2193   16.9154  -14.3293 C   0  0  0  0  0  0  0  0  0  0  0  0
  -23.4059   17.7119  -13.8831 C   0  0  0  0  0  0  0  0  0  0  0  0
 35 36  1  0  0  0
 36 37  1  0  0  0
 37 38  1  0  0  0
 38 39  1  0  0  0
 39 40  1  0  0  0
 40 41  1  0  0  0
 39 29  1  0  0  0
 29 30  2  0  0  0
 30 31  1  0  0  0
 31 32  2  0  0  0
 32 27  1  0  0  0
 27  1  1  0  0  0
  1  2  2  0  0  0
  2  3  1  0  0  0
  3  4  2  0  0  0
  4  5  1  0  0  0
  5  6  2  0  0  0
  5  7  1  0  0  0
  7  8  1  0  0  0
  8  9  2  0  0  0
  9 10  1  0  0  0
 10 11  2  0  0  0
 11 12  1  0  0  0
 12 13  2  0  0  0
 13 14  1  0  0  0
 14 15  2  0  0  0
  8 16  1  0  0  0
 16 19  1  0  0  0
 19 20  2  0  0  0
 20 21  1  0  0  0
 20 22  1  0  0  0
 22 23  2  0  0  0
 23 24  1  0  0  0
 24 25  2  0  0  0
 25 26  1  0  0  0
 16 17  1  0  0  0
 17 18  2  0  0  0
 32 33  1  0  0  0
 33 34  2  0  0  0
 41 36  1  0  0  0
 34 29  1  0  0  0
  6  1  1  0  0  0
 15  7  1  0  0  0
 25 19  1  0  0  0
 17  4  1  0  0  0
 15 10  1  0  0  0
 27 28  1  0  0  0
M  END
> <minimizedAffinity>
-9.81404

> <CNNscore>
0.1709973216

> <CNNaffinity>
7.2204065323

> <CNN_VS>
1.2346701622

> <CNNaffinity_variance>
0.4347713590

$$$$
[H]c1nc(N([H])c2c([H])c([H])c([H])c(OC([H])([H])C(=O)N([H])C([H])([H])[H])c2[H])nc(N([H])c2c([H])c([H])c3c(c2[H])N([H])C(=O)C(F)(F)O3)c1F


 38 41  0  0  0  0  0  0  0  0999 V2000
  -16.9394   10.2504  -19.5431 C   0  0  0  0  0  0  0  0  0  0  0  0
  -15.9188    9.8532  -20.3016 N   0  0  0  0  0  0  0  0  0  0  0  0
  -15.5290   10.4624  -21.4389 C   0  0  0  0  0  0  0  0  0  0  0  0
  -16.2196   11.5721  -21.8624 C   0  0  0  0  0  0  0  0  0  0  0  0
  -15.8738   12.2159  -22.9866 F   0  0  0  0  0  0  0  0  0  0  0  0
  -17.3079   12.0420  -21.1049 C   0  0  0  0  0  0  0  0  0  0  0  0
  -17.6001   11.3574  -19.9988 N   0  0  0  0  0  0  0  0  0  0  0  0
  -17.3748    9.6343  -18.3448 N   0  0  0  0  0  0  0  0  0  0  0  0
  -16.8367    8.8207  -17.9329 H   0  0  0  0  0  0  0  0  0  0  0  0
  -20.4555    9.7513  -16.1926 C   0  0  0  0  0  0  0  0  0  0  0  0
  -20.7953   11.0499  -16.3321 C   0  0  0  0  0  0  0  0  0  0  0  0
  -20.0215   11.8982  -17.1191 C   0  0  0  0  0  0  0  0  0  0  0  0
  -18.9198   11.3885  -17.7399 C   0  0  0  0  0  0  0  0  0  0  0  0
  -18.5170   10.0459  -17.6306 C   0  0  0  0  0  0  0  0  0  0  0  0
  -19.3179    9.2635  -16.8452 C   0  0  0  0  0  0  0  0  0  0  0  0
  -21.1651    8.8606  -15.4405 O   0  0  0  0  0  0  0  0  0  0  0  0
  -20.7009    7.6067  -15.0871 C   0  0  0  0  0  0  0  0  0  0  0  0
  -21.9522    4.2517  -16.5471 C   0  0  0  0  0  0  0  0  0  0  0  0
  -21.0489    5.2984  -16.0336 N   0  0  0  0  0  0  0  0  0  0  0  0
  -21.5421    6.5311  -15.6012 C   0  0  0  0  0  0  0  0  0  0  0  0
  -22.8065    6.7223  -15.6565 O   0  0  0  0  0  0  0  0  0  0  0  0
  -20.0486    5.0581  -16.0012 H   0  0  0  0  0  0  0  0  0  0  0  0
  -17.9999   13.1907  -21.5371 N   0  0  0  0  0  0  0  0  0  0  0  0
  -17.9427   13.3961  -22.5897 H   0  0  0  0  0  0  0  0  0  0  0  0
  -18.7583   14.1069  -20.8049 C   0  0  0  0  0  0  0  0  0  0  0  0
  -20.0066   13.8314  -20.3081 C   0  0  0  0  0  0  0  0  0  0  0  0
  -20.6889   14.7972  -19.5619 C   0  0  0  0  0  0  0  0  0  0  0  0
  -20.1607   16.0345  -19.2964 C   0  0  0  0  0  0  0  0  0  0  0  0
  -20.8891   16.9498  -18.5490 O   0  0  0  0  0  0  0  0  0  0  0  0
  -20.4052   18.1829  -18.1134 C   0  0  0  0  0  0  0  0  0  0  0  0
  -20.2871   18.1390  -16.7204 F   0  0  0  0  0  0  0  0  0  0  0  0
  -21.3336   19.1697  -18.4518 F   0  0  0  0  0  0  0  0  0  0  0  0
  -19.1269   18.5696  -18.7274 C   0  0  0  0  0  0  0  0  0  0  0  0
  -18.6583   19.7067  -18.6028 O   0  0  0  0  0  0  0  0  0  0  0  0
  -18.3772   17.6131  -19.5034 N   0  0  0  0  0  0  0  0  0  0  0  0
  -18.9103   16.3283  -19.7873 C   0  0  0  0  0  0  0  0  0  0  0  0
  -18.2413   15.3873  -20.5160 C   0  0  0  0  0  0  0  0  0  0  0  0
  -17.4315   17.8599  -19.8642 H   0  0  0  0  0  0  0  0  0  0  0  0
 18 19  1  0  0  0
 19 20  1  0  0  0
 20 21  2  0  0  0
 20 17  1  0  0  0
 17 16  1  0  0  0
 16 10  1  0  0  0
 10 11  2  0  0  0
 11 12  1  0  0  0
 12 13  2  0  0  0
 13 14  1  0  0  0
 14  8  1  0  0  0
  8  1  1  0  0  0
  1  2  2  0  0  0
  2  3  1  0  0  0
  3  4  2  0  0  0
  4  5  1  0  0  0
  4  6  1  0  0  0
  6 23  1  0  0  0
 23 25  1  0  0  0
 25 26  2  0  0  0
 26 27  1  0  0  0
 27 28  2  0  0  0
 28 29  1  0  0  0
 29 30  1  0  0  0
 30 31  1  0  0  0
 30 32  1  0  0  0
 30 33  1  0  0  0
 33 34  2  0  0  0
 33 35  1  0  0  0
 35 36  1  0  0  0
 36 37  2  0  0  0
  6  7  2  0  0  0
 14 15  2  0  0  0
 15 10  1  0  0  0
  7  1  1  0  0  0
 37 25  1  0  0  0
 36 28  1  0  0  0
 19 22  1  0  0  0
  8  9  1  0  0  0
 23 24  1  0  0  0
 35 38  1  0  0  0
M  END
> <minimizedAffinity>
-8.59982

> <CNNscore>
0.8564649224

> <CNNaffinity>
7.3229913712

> <CNN_VS>
6.2718853951

> <CNNaffinity_variance>
0.0338446349

$$$$
[H]c1nc(N([H])c2c([H])c([H])c([H])c(OC([H])([H])C(=O)N([H])C([H])([H])[H])c2[H])nc(N([H])c2c([H])c([H])c3c(c2[H])N([H])C(=O)C(F)(F)O3)c1F


 38 41  0  0  0  0  0  0  0  0999 V2000
  -16.5336   10.4112  -20.1580 C   0  0  0  0  0  0  0  0  0  0  0  0
  -15.3662   10.1922  -20.7615 N   0  0  0  0  0  0  0  0  0  0  0  0
  -14.9507   10.8266  -21.8756 C   0  0  0  0  0  0  0  0  0  0  0  0
  -15.7741   11.7682  -22.4440 C   0  0  0  0  0  0  0  0  0  0  0  0
  -15.4095   12.4285  -23.5527 F   0  0  0  0  0  0  0  0  0  0  0  0
  -17.0207   12.0455  -21.8541 C   0  0  0  0  0  0  0  0  0  0  0  0
  -17.3231   11.3549  -20.7545 N   0  0  0  0  0  0  0  0  0  0  0  0
  -17.0003    9.7634  -18.9885 N   0  0  0  0  0  0  0  0  0  0  0  0
  -16.5675    8.8506  -18.6712 H   0  0  0  0  0  0  0  0  0  0  0  0
  -19.8632   10.1386  -16.5804 C   0  0  0  0  0  0  0  0  0  0  0  0
  -20.1063   11.4604  -16.7022 C   0  0  0  0  0  0  0  0  0  0  0  0
  -19.3366   12.2404  -17.5607 C   0  0  0  0  0  0  0  0  0  0  0  0
  -18.3382   11.6403  -18.2693 C   0  0  0  0  0  0  0  0  0  0  0  0
  -18.0388   10.2693  -18.1826 C   0  0  0  0  0  0  0  0  0  0  0  0
  -18.8302    9.5572  -17.3240 C   0  0  0  0  0  0  0  0  0  0  0  0
  -20.5757    9.3109  -15.7619 O   0  0  0  0  0  0  0  0  0  0  0  0
  -20.3047    7.9645  -15.6006 C   0  0  0  0  0  0  0  0  0  0  0  0
  -18.6705    8.2198  -12.1052 C   0  0  0  0  0  0  0  0  0  0  0  0
  -19.1928    8.5992  -13.4313 N   0  0  0  0  0  0  0  0  0  0  0  0
  -19.7737    7.6529  -14.2778 C   0  0  0  0  0  0  0  0  0  0  0  0
  -19.8469    6.4441  -13.8631 O   0  0  0  0  0  0  0  0  0  0  0  0
  -19.1159    9.5948  -13.6809 H   0  0  0  0  0  0  0  0  0  0  0  0
  -17.8515   13.0249  -22.4335 N   0  0  0  0  0  0  0  0  0  0  0  0
  -18.3520   12.7308  -23.3372 H   0  0  0  0  0  0  0  0  0  0  0  0
  -18.1315   14.3257  -22.0092 C   0  0  0  0  0  0  0  0  0  0  0  0
  -18.2281   14.6880  -20.6899 C   0  0  0  0  0  0  0  0  0  0  0  0
  -18.4862   16.0194  -20.3495 C   0  0  0  0  0  0  0  0  0  0  0  0
  -18.6519   17.0034  -21.2900 C   0  0  0  0  0  0  0  0  0  0  0  0
  -18.9061   18.3073  -20.8871 O   0  0  0  0  0  0  0  0  0  0  0  0
  -18.9670   19.4053  -21.7444 C   0  0  0  0  0  0  0  0  0  0  0  0
  -17.8750   20.2352  -21.4703 F   0  0  0  0  0  0  0  0  0  0  0  0
  -20.1421   20.1118  -21.4795 F   0  0  0  0  0  0  0  0  0  0  0  0
  -18.9964   19.0453  -23.1692 C   0  0  0  0  0  0  0  0  0  0  0  0
  -19.2435   19.8770  -24.0496 O   0  0  0  0  0  0  0  0  0  0  0  0
  -18.7325   17.6882  -23.5791 N   0  0  0  0  0  0  0  0  0  0  0  0
  -18.5590   16.6581  -22.6178 C   0  0  0  0  0  0  0  0  0  0  0  0
  -18.3068   15.3590  -22.9535 C   0  0  0  0  0  0  0  0  0  0  0  0
  -18.6667   17.4521  -24.5918 H   0  0  0  0  0  0  0  0  0  0  0  0
 18 19  1  0  0  0
 19 20  1  0  0  0
 20 21  2  0  0  0
 20 17  1  0  0  0
 17 16  1  0  0  0
 16 10  1  0  0  0
 10 11  2  0  0  0
 11 12  1  0  0  0
 12 13  2  0  0  0
 13 14  1  0  0  0
 14  8  1  0  0  0
  8  1  1  0  0  0
  1  2  2  0  0  0
  2  3  1  0  0  0
  3  4  2  0  0  0
  4  5  1  0  0  0
  4  6  1  0  0  0
  6 23  1  0  0  0
 23 25  1  0  0  0
 25 26  2  0  0  0
 26 27  1  0  0  0
 27 28  2  0  0  0
 28 29  1  0  0  0
 29 30  1  0  0  0
 30 31  1  0  0  0
 30 32  1  0  0  0
 30 33  1  0  0  0
 33 34  2  0  0  0
 33 35  1  0  0  0
 35 36  1  0  0  0
 36 37  2  0  0  0
  6  7  2  0  0  0
 14 15  2  0  0  0
 15 10  1  0  0  0
  7  1  1  0  0  0
 37 25  1  0  0  0
 36 28  1  0  0  0
 19 22  1  0  0  0
  8  9  1  0  0  0
 23 24  1  0  0  0
 35 38  1  0  0  0
M  END
> <minimizedAffinity>
-8.53004

> <CNNscore>
0.8560938239

> <CNNaffinity>
7.4347867966

> <CNN_VS>
6.3648748398

> <CNNaffinity_variance>
0.0866409019

$$$$
[H]c1nc(N([H])c2c([H])c([H])c([H])c(OC([H])([H])C(=O)N([H])C([H])([H])[H])c2[H])nc(N([H])c2c([H])c([H])c3c(c2[H])N([H])C(=O)C(F)(F)O3)c1F


 38 41  0  0  0  0  0  0  0  0999 V2000
  -16.4562   10.5168  -20.3221 C   0  0  0  0  0  0  0  0  0  0  0  0
  -15.3982   10.2420  -21.0835 N   0  0  0  0  0  0  0  0  0  0  0  0
  -15.0564   10.9264  -22.1931 C   0  0  0  0  0  0  0  0  0  0  0  0
  -15.8411   11.9847  -22.5828 C   0  0  0  0  0  0  0  0  0  0  0  0
  -15.5462   12.6991  -23.6786 F   0  0  0  0  0  0  0  0  0  0  0  0
  -16.9731   12.3258  -21.8205 C   0  0  0  0  0  0  0  0  0  0  0  0
  -17.2107   11.5764  -20.7437 N   0  0  0  0  0  0  0  0  0  0  0  0
  -16.8434    9.8192  -19.1522 N   0  0  0  0  0  0  0  0  0  0  0  0
  -16.3375    8.9354  -18.8618 H   0  0  0  0  0  0  0  0  0  0  0  0
  -19.6778    9.9449  -16.6852 C   0  0  0  0  0  0  0  0  0  0  0  0
  -19.9967   11.2544  -16.7540 C   0  0  0  0  0  0  0  0  0  0  0  0
  -19.2878   12.1070  -17.5956 C   0  0  0  0  0  0  0  0  0  0  0  0
  -18.2707   11.5903  -18.3422 C   0  0  0  0  0  0  0  0  0  0  0  0
  -17.8935   10.2362  -18.3112 C   0  0  0  0  0  0  0  0  0  0  0  0
  -18.6278    9.4500  -17.4666 C   0  0  0  0  0  0  0  0  0  0  0  0
  -20.3276    9.0494  -15.8862 O   0  0  0  0  0  0  0  0  0  0  0  0
  -19.7378    7.9144  -15.3603 C   0  0  0  0  0  0  0  0  0  0  0  0
  -22.2880    5.5150  -13.7193 C   0  0  0  0  0  0  0  0  0  0  0  0
  -21.3286    6.6210  -13.8969 N   0  0  0  0  0  0  0  0  0  0  0  0
  -20.6976    6.8415  -15.1227 C   0  0  0  0  0  0  0  0  0  0  0  0
  -20.9844    6.0572  -16.0929 O   0  0  0  0  0  0  0  0  0  0  0  0
  -21.1693    7.2193  -13.0746 H   0  0  0  0  0  0  0  0  0  0  0  0
  -17.7626   13.4232  -22.2174 N   0  0  0  0  0  0  0  0  0  0  0  0
  -18.5276   13.2053  -22.9391 H   0  0  0  0  0  0  0  0  0  0  0  0
  -17.7080   14.7583  -21.8111 C   0  0  0  0  0  0  0  0  0  0  0  0
  -16.5684   15.3623  -21.3447 C   0  0  0  0  0  0  0  0  0  0  0  0
  -16.5931   16.7126  -20.9826 C   0  0  0  0  0  0  0  0  0  0  0  0
  -17.7256   17.4806  -21.0717 C   0  0  0  0  0  0  0  0  0  0  0  0
  -17.6848   18.8164  -20.6962 O   0  0  0  0  0  0  0  0  0  0  0  0
  -18.7342   19.7197  -20.8611 C   0  0  0  0  0  0  0  0  0  0  0  0
  -18.3528   20.6628  -21.8210 F   0  0  0  0  0  0  0  0  0  0  0  0
  -18.9488   20.3784  -19.6486 F   0  0  0  0  0  0  0  0  0  0  0  0
  -20.0076   19.0884  -21.2360 C   0  0  0  0  0  0  0  0  0  0  0  0
  -21.0742   19.7133  -21.2324 O   0  0  0  0  0  0  0  0  0  0  0  0
  -20.0414   17.6999  -21.6236 N   0  0  0  0  0  0  0  0  0  0  0  0
  -18.8777   16.8914  -21.5367 C   0  0  0  0  0  0  0  0  0  0  0  0
  -18.8569   15.5732  -21.8915 C   0  0  0  0  0  0  0  0  0  0  0  0
  -20.9271   17.2767  -21.9729 H   0  0  0  0  0  0  0  0  0  0  0  0
 18 19  1  0  0  0
 19 20  1  0  0  0
 20 21  2  0  0  0
 20 17  1  0  0  0
 17 16  1  0  0  0
 16 10  1  0  0  0
 10 11  2  0  0  0
 11 12  1  0  0  0
 12 13  2  0  0  0
 13 14  1  0  0  0
 14  8  1  0  0  0
  8  1  1  0  0  0
  1  2  2  0  0  0
  2  3  1  0  0  0
  3  4  2  0  0  0
  4  5  1  0  0  0
  4  6  1  0  0  0
  6 23  1  0  0  0
 23 25  1  0  0  0
 25 26  2  0  0  0
 26 27  1  0  0  0
 27 28  2  0  0  0
 28 29  1  0  0  0
 29 30  1  0  0  0
 30 31  1  0  0  0
 30 32  1  0  0  0
 30 33  1  0  0  0
 33 34  2  0  0  0
 33 35  1  0  0  0
 35 36  1  0  0  0
 36 37  2  0  0  0
  6  7  2  0  0  0
 14 15  2  0  0  0
 15 10  1  0  0  0
  7  1  1  0  0  0
 37 25  1  0  0  0
 36 28  1  0  0  0
 19 22  1  0  0  0
  8  9  1  0  0  0
 23 24  1  0  0  0
 35 38  1  0  0  0
M  END
> <minimizedAffinity>
-8.56900

> <CNNscore>
0.7844310999

> <CNNaffinity>
7.3184380531

> <CNN_VS>
5.7408103943

> <CNNaffinity_variance>
0.1303272247

$$$$
[H]c1nc(N([H])c2c([H])c([H])c([H])c(OC([H])([H])C(=O)N([H])C([H])([H])[H])c2[H])nc(N([H])c2c([H])c([H])c3c(c2[H])N([H])C(=O)C(F)(F)O3)c1F


 38 41  0  0  0  0  0  0  0  0999 V2000
  -16.8998   10.4334  -19.7573 C   0  0  0  0  0  0  0  0  0  0  0  0
  -15.8709    9.8951  -20.4104 N   0  0  0  0  0  0  0  0  0  0  0  0
  -15.3508   10.3841  -21.5536 C   0  0  0  0  0  0  0  0  0  0  0  0
  -15.9064   11.5159  -22.0994 C   0  0  0  0  0  0  0  0  0  0  0  0
  -15.4276   12.0440  -23.2352 F   0  0  0  0  0  0  0  0  0  0  0  0
  -16.9957   12.1323  -21.4572 C   0  0  0  0  0  0  0  0  0  0  0  0
  -17.4237   11.5577  -20.3329 N   0  0  0  0  0  0  0  0  0  0  0  0
  -17.4700    9.9461  -18.5563 N   0  0  0  0  0  0  0  0  0  0  0  0
  -17.0839    9.0757  -18.0930 H   0  0  0  0  0  0  0  0  0  0  0  0
  -20.0827   12.3837  -17.3868 C   0  0  0  0  0  0  0  0  0  0  0  0
  -20.7102   11.6336  -16.4569 C   0  0  0  0  0  0  0  0  0  0  0  0
  -20.2947   10.3282  -16.2095 C   0  0  0  0  0  0  0  0  0  0  0  0
  -19.2464    9.8302  -16.9251 C   0  0  0  0  0  0  0  0  0  0  0  0
  -18.5558   10.5638  -17.9056 C   0  0  0  0  0  0  0  0  0  0  0  0
  -19.0102   11.8389  -18.1016 C   0  0  0  0  0  0  0  0  0  0  0  0
  -20.4318   13.6695  -17.6826 O   0  0  0  0  0  0  0  0  0  0  0  0
  -21.0241   14.5352  -16.7815 C   0  0  0  0  0  0  0  0  0  0  0  0
  -19.6214   17.8080  -15.2732 C   0  0  0  0  0  0  0  0  0  0  0  0
  -20.5528   16.7156  -15.6114 N   0  0  0  0  0  0  0  0  0  0  0  0
  -20.1503   15.6428  -16.4092 C   0  0  0  0  0  0  0  0  0  0  0  0
  -18.9423   15.6321  -16.8325 O   0  0  0  0  0  0  0  0  0  0  0  0
  -21.4995   16.7876  -15.2139 H   0  0  0  0  0  0  0  0  0  0  0  0
  -17.5485   13.3024  -22.0144 N   0  0  0  0  0  0  0  0  0  0  0  0
  -18.0393   13.1762  -22.9614 H   0  0  0  0  0  0  0  0  0  0  0  0
  -17.5620   14.6087  -21.5205 C   0  0  0  0  0  0  0  0  0  0  0  0
  -16.5349   15.4988  -21.7043 C   0  0  0  0  0  0  0  0  0  0  0  0
  -16.6395   16.7982  -21.1985 C   0  0  0  0  0  0  0  0  0  0  0  0
  -17.7422   17.2370  -20.5117 C   0  0  0  0  0  0  0  0  0  0  0  0
  -17.7848   18.5399  -20.0347 O   0  0  0  0  0  0  0  0  0  0  0  0
  -18.8974   19.1302  -19.4365 C   0  0  0  0  0  0  0  0  0  0  0  0
  -19.3745   20.1296  -20.2908 F   0  0  0  0  0  0  0  0  0  0  0  0
  -18.4960   19.7223  -18.2372 F   0  0  0  0  0  0  0  0  0  0  0  0
  -19.9686   18.1793  -19.1065 C   0  0  0  0  0  0  0  0  0  0  0  0
  -20.9339   18.4987  -18.4034 O   0  0  0  0  0  0  0  0  0  0  0  0
  -19.9161   16.8273  -19.6051 N   0  0  0  0  0  0  0  0  0  0  0  0
  -18.7815   16.3577  -20.3175 C   0  0  0  0  0  0  0  0  0  0  0  0
  -18.6827   15.0884  -20.8103 C   0  0  0  0  0  0  0  0  0  0  0  0
  -20.7168   16.1802  -19.4448 H   0  0  0  0  0  0  0  0  0  0  0  0
 18 19  1  0  0  0
 19 20  1  0  0  0
 20 21  2  0  0  0
 20 17  1  0  0  0
 17 16  1  0  0  0
 16 10  1  0  0  0
 10 11  2  0  0  0
 11 12  1  0  0  0
 12 13  2  0  0  0
 13 14  1  0  0  0
 14  8  1  0  0  0
  8  1  1  0  0  0
  1  2  2  0  0  0
  2  3  1  0  0  0
  3  4  2  0  0  0
  4  5  1  0  0  0
  4  6  1  0  0  0
  6 23  1  0  0  0
 23 25  1  0  0  0
 25 26  2  0  0  0
 26 27  1  0  0  0
 27 28  2  0  0  0
 28 29  1  0  0  0
 29 30  1  0  0  0
 30 31  1  0  0  0
 30 32  1  0  0  0
 30 33  1  0  0  0
 33 34  2  0  0  0
 33 35  1  0  0  0
 35 36  1  0  0  0
 36 37  2  0  0  0
  6  7  2  0  0  0
 14 15  2  0  0  0
 15 10  1  0  0  0
  7  1  1  0  0  0
 37 25  1  0  0  0
 36 28  1  0  0  0
 19 22  1  0  0  0
  8  9  1  0  0  0
 23 24  1  0  0  0
 35 38  1  0  0  0
M  END
> <minimizedAffinity>
-8.63973

> <CNNscore>
0.7259486318

> <CNNaffinity>
7.2871551514

> <CNN_VS>
5.2901000977

> <CNNaffinity_variance>
0.0671350062

$$$$
[H]c1nc(N([H])c2c([H])c([H])c([H])c(OC([H])([H])C(=O)N([H])C([H])([H])[H])c2[H])nc(N([H])c2c([H])c([H])c3c(c2[H])N([H])C(=O)C(F)(F)O3)c1F


 38 41  0  0  0  0  0  0  0  0999 V2000
  -16.7985   10.5097  -19.9401 C   0  0  0  0  0  0  0  0  0  0  0  0
  -15.6145   10.1426  -20.4281 N   0  0  0  0  0  0  0  0  0  0  0  0
  -15.0719   10.6268  -21.5628 C   0  0  0  0  0  0  0  0  0  0  0  0
  -15.7731   11.5653  -22.2806 C   0  0  0  0  0  0  0  0  0  0  0  0
  -15.2794   12.0797  -23.4162 F   0  0  0  0  0  0  0  0  0  0  0  0
  -17.0301   11.9949  -21.8177 C   0  0  0  0  0  0  0  0  0  0  0  0
  -17.4639   11.4448  -20.6833 N   0  0  0  0  0  0  0  0  0  0  0  0
  -17.3970   10.0217  -18.7531 N   0  0  0  0  0  0  0  0  0  0  0  0
  -17.1066    9.0863  -18.3506 H   0  0  0  0  0  0  0  0  0  0  0  0
  -19.5801   12.6921  -17.2569 C   0  0  0  0  0  0  0  0  0  0  0  0
  -20.3951   11.9346  -16.4934 C   0  0  0  0  0  0  0  0  0  0  0  0
  -20.2468   10.5507  -16.4659 C   0  0  0  0  0  0  0  0  0  0  0  0
  -19.2656    9.9842  -17.2244 C   0  0  0  0  0  0  0  0  0  0  0  0
  -18.3885   10.7220  -18.0387 C   0  0  0  0  0  0  0  0  0  0  0  0
  -18.5839   12.0756  -18.0221 C   0  0  0  0  0  0  0  0  0  0  0  0
  -19.6638   14.0522  -17.3334 O   0  0  0  0  0  0  0  0  0  0  0  0
  -18.6244   14.9083  -17.0186 C   0  0  0  0  0  0  0  0  0  0  0  0
  -20.0723   17.9590  -15.1343 C   0  0  0  0  0  0  0  0  0  0  0  0
  -19.6192   16.5857  -15.4243 N   0  0  0  0  0  0  0  0  0  0  0  0
  -19.0860   16.2477  -16.6697 C   0  0  0  0  0  0  0  0  0  0  0  0
  -18.9945   17.1707  -17.5518 O   0  0  0  0  0  0  0  0  0  0  0  0
  -19.7064   15.9076  -14.6549 H   0  0  0  0  0  0  0  0  0  0  0  0
  -17.7348   12.9703  -22.5506 N   0  0  0  0  0  0  0  0  0  0  0  0
  -17.9362   12.7221  -23.5760 H   0  0  0  0  0  0  0  0  0  0  0  0
  -18.2202   14.2159  -22.1464 C   0  0  0  0  0  0  0  0  0  0  0  0
  -18.7806   14.4478  -20.9163 C   0  0  0  0  0  0  0  0  0  0  0  0
  -19.2188   15.7325  -20.5807 C   0  0  0  0  0  0  0  0  0  0  0  0
  -19.1146   16.7963  -21.4395 C   0  0  0  0  0  0  0  0  0  0  0  0
  -19.5686   18.0478  -21.0463 O   0  0  0  0  0  0  0  0  0  0  0  0
  -19.4011   19.2202  -21.7823 C   0  0  0  0  0  0  0  0  0  0  0  0
  -18.5192   20.0521  -21.0848 F   0  0  0  0  0  0  0  0  0  0  0  0
  -20.6367   19.8632  -21.8820 F   0  0  0  0  0  0  0  0  0  0  0  0
  -18.9232   18.9969  -23.1543 C   0  0  0  0  0  0  0  0  0  0  0  0
  -18.9066   19.9011  -23.9970 O   0  0  0  0  0  0  0  0  0  0  0  0
  -18.4544   17.6935  -23.5550 N   0  0  0  0  0  0  0  0  0  0  0  0
  -18.5557   16.5820  -22.6776 C   0  0  0  0  0  0  0  0  0  0  0  0
  -18.1266   15.3289  -23.0083 C   0  0  0  0  0  0  0  0  0  0  0  0
  -18.0346   17.5570  -24.4987 H   0  0  0  0  0  0  0  0  0  0  0  0
 18 19  1  0  0  0
 19 20  1  0  0  0
 20 21  2  0  0  0
 20 17  1  0  0  0
 17 16  1  0  0  0
 16 10  1  0  0  0
 10 11  2  0  0  0
 11 12  1  0  0  0
 12 13  2  0  0  0
 13 14  1  0  0  0
 14  8  1  0  0  0
  8  1  1  0  0  0
  1  2  2  0  0  0
  2  3  1  0  0  0
  3  4  2  0  0  0
  4  5  1  0  0  0
  4  6  1  0  0  0
  6 23  1  0  0  0
 23 25  1  0  0  0
 25 26  2  0  0  0
 26 27  1  0  0  0
 27 28  2  0  0  0
 28 29  1  0  0  0
 29 30  1  0  0  0
 30 31  1  0  0  0
 30 32  1  0  0  0
 30 33  1  0  0  0
 33 34  2  0  0  0
 33 35  1  0  0  0
 35 36  1  0  0  0
 36 37  2  0  0  0
  6  7  2  0  0  0
 14 15  2  0  0  0
 15 10  1  0  0  0
  7  1  1  0  0  0
 37 25  1  0  0  0
 36 28  1  0  0  0
 19 22  1  0  0  0
  8  9  1  0  0  0
 23 24  1  0  0  0
 35 38  1  0  0  0
M  END
> <minimizedAffinity>
-8.74710

> <CNNscore>
0.7251569033

> <CNNaffinity>
7.4358887672

> <CNN_VS>
5.3921861649

> <CNNaffinity_variance>
0.1296140254

$$$$
[H]c1nc(N([H])c2c([H])c([H])c([H])c(OC([H])([H])C(=O)N([H])C([H])([H])[H])c2[H])nc(N([H])c2c([H])c([H])c3c(c2[H])N([H])C(=O)C(F)(F)O3)c1F


 38 41  0  0  0  0  0  0  0  0999 V2000
  -16.9700   10.3407  -19.6953 C   0  0  0  0  0  0  0  0  0  0  0  0
  -15.9023    9.8578  -20.3290 N   0  0  0  0  0  0  0  0  0  0  0  0
  -15.3741   10.3878  -21.4500 C   0  0  0  0  0  0  0  0  0  0  0  0
  -15.9634   11.5040  -21.9926 C   0  0  0  0  0  0  0  0  0  0  0  0
  -15.4783   12.0711  -23.1067 F   0  0  0  0  0  0  0  0  0  0  0  0
  -17.0946   12.0624  -21.3702 C   0  0  0  0  0  0  0  0  0  0  0  0
  -17.5266   11.4512  -20.2669 N   0  0  0  0  0  0  0  0  0  0  0  0
  -17.5499    9.8093  -18.5178 N   0  0  0  0  0  0  0  0  0  0  0  0
  -17.2058    8.8917  -18.1167 H   0  0  0  0  0  0  0  0  0  0  0  0
  -20.5098   10.5512  -16.3213 C   0  0  0  0  0  0  0  0  0  0  0  0
  -20.6437   11.8761  -16.5402 C   0  0  0  0  0  0  0  0  0  0  0  0
  -19.7684   12.5391  -17.3958 C   0  0  0  0  0  0  0  0  0  0  0  0
  -18.7796   11.8221  -18.0019 C   0  0  0  0  0  0  0  0  0  0  0  0
  -18.5914   10.4419  -17.8115 C   0  0  0  0  0  0  0  0  0  0  0  0
  -19.4831    9.8480  -16.9612 C   0  0  0  0  0  0  0  0  0  0  0  0
  -21.3294    9.8340  -15.4989 O   0  0  0  0  0  0  0  0  0  0  0  0
  -22.7050    9.7851  -15.6317 C   0  0  0  0  0  0  0  0  0  0  0  0
  -25.4242   11.2821  -13.3255 C   0  0  0  0  0  0  0  0  0  0  0  0
  -24.7816   10.6215  -14.4770 N   0  0  0  0  0  0  0  0  0  0  0  0
  -23.3996   10.4275  -14.5209 C   0  0  0  0  0  0  0  0  0  0  0  0
  -22.7063   10.8341  -13.5247 O   0  0  0  0  0  0  0  0  0  0  0  0
  -25.4112   10.3044  -15.2269 H   0  0  0  0  0  0  0  0  0  0  0  0
  -17.6824   13.2172  -21.9234 N   0  0  0  0  0  0  0  0  0  0  0  0
  -18.2551   13.0609  -22.8186 H   0  0  0  0  0  0  0  0  0  0  0  0
  -17.6404   14.5417  -21.4825 C   0  0  0  0  0  0  0  0  0  0  0  0
  -16.5395   15.3491  -21.6134 C   0  0  0  0  0  0  0  0  0  0  0  0
  -16.5893   16.6736  -21.1680 C   0  0  0  0  0  0  0  0  0  0  0  0
  -17.7088   17.2180  -20.5932 C   0  0  0  0  0  0  0  0  0  0  0  0
  -17.6945   18.5404  -20.1714 O   0  0  0  0  0  0  0  0  0  0  0  0
  -18.8057   19.2326  -19.6914 C   0  0  0  0  0  0  0  0  0  0  0  0
  -19.1379   20.2243  -20.6202 F   0  0  0  0  0  0  0  0  0  0  0  0
  -18.4603   19.8475  -18.4861 F   0  0  0  0  0  0  0  0  0  0  0  0
  -19.9667   18.3741  -19.4163 C   0  0  0  0  0  0  0  0  0  0  0  0
  -20.9597   18.7906  -18.8092 O   0  0  0  0  0  0  0  0  0  0  0  0
  -19.9730   17.0011  -19.8569 N   0  0  0  0  0  0  0  0  0  0  0  0
  -18.8219   16.4227  -20.4533 C   0  0  0  0  0  0  0  0  0  0  0  0
  -18.7767   15.1291  -20.8875 C   0  0  0  0  0  0  0  0  0  0  0  0
  -20.8292   16.4191  -19.7397 H   0  0  0  0  0  0  0  0  0  0  0  0
 18 19  1  0  0  0
 19 20  1  0  0  0
 20 21  2  0  0  0
 20 17  1  0  0  0
 17 16  1  0  0  0
 16 10  1  0  0  0
 10 11  2  0  0  0
 11 12  1  0  0  0
 12 13  2  0  0  0
 13 14  1  0  0  0
 14  8  1  0  0  0
  8  1  1  0  0  0
  1  2  2  0  0  0
  2  3  1  0  0  0
  3  4  2  0  0  0
  4  5  1  0  0  0
  4  6  1  0  0  0
  6 23  1  0  0  0
 23 25  1  0  0  0
 25 26  2  0  0  0
 26 27  1  0  0  0
 27 28  2  0  0  0
 28 29  1  0  0  0
 29 30  1  0  0  0
 30 31  1  0  0  0
 30 32  1  0  0  0
 30 33  1  0  0  0
 33 34  2  0  0  0
 33 35  1  0  0  0
 35 36  1  0  0  0
 36 37  2  0  0  0
  6  7  2  0  0  0
 14 15  2  0  0  0
 15 10  1  0  0  0
  7  1  1  0  0  0
 37 25  1  0  0  0
 36 28  1  0  0  0
 19 22  1  0  0  0
  8  9  1  0  0  0
 23 24  1  0  0  0
 35 38  1  0  0  0
M  END
> <minimizedAffinity>
-8.25580

> <CNNscore>
0.6242515445

> <CNNaffinity>
7.0439515114

> <CNN_VS>
4.3971977234

> <CNNaffinity_variance>
0.1010306701

$$$$
[H]c1nc(N([H])c2c([H])c([H])c([H])c(OC([H])([H])C(=O)N([H])C([H])([H])[H])c2[H])nc(N([H])c2c([H])c([H])c3c(c2[H])N([H])C(=O)C(F)(F)O3)c1F


 38 41  0  0  0  0  0  0  0  0999 V2000
  -17.4359   10.2113  -18.9314 C   0  0  0  0  0  0  0  0  0  0  0  0
  -16.4926    9.5722  -19.6216 N   0  0  0  0  0  0  0  0  0  0  0  0
  -15.8995   10.0533  -20.7321 C   0  0  0  0  0  0  0  0  0  0  0  0
  -16.2805   11.2872  -21.2011 C   0  0  0  0  0  0  0  0  0  0  0  0
  -15.7228   11.8125  -22.3015 F   0  0  0  0  0  0  0  0  0  0  0  0
  -17.2723   12.0129  -20.5165 C   0  0  0  0  0  0  0  0  0  0  0  0
  -17.7865   11.4351  -19.4306 N   0  0  0  0  0  0  0  0  0  0  0  0
  -18.0787    9.7354  -17.7629 N   0  0  0  0  0  0  0  0  0  0  0  0
  -17.7141    8.8771  -17.2612 H   0  0  0  0  0  0  0  0  0  0  0  0
  -20.7296   12.1887  -16.7190 C   0  0  0  0  0  0  0  0  0  0  0  0
  -21.4843   11.4014  -15.9242 C   0  0  0  0  0  0  0  0  0  0  0  0
  -21.1422   10.0663  -15.7287 C   0  0  0  0  0  0  0  0  0  0  0  0
  -20.0347    9.5775  -16.3561 C   0  0  0  0  0  0  0  0  0  0  0  0
  -19.2121   10.3495  -17.1952 C   0  0  0  0  0  0  0  0  0  0  0  0
  -19.5997   11.6524  -17.3464 C   0  0  0  0  0  0  0  0  0  0  0  0
  -21.0007   13.5051  -16.9564 O   0  0  0  0  0  0  0  0  0  0  0  0
  -20.9961   14.0793  -18.2145 C   0  0  0  0  0  0  0  0  0  0  0  0
  -19.2376   17.5233  -18.1948 C   0  0  0  0  0  0  0  0  0  0  0  0
  -20.2763   16.4872  -18.0435 N   0  0  0  0  0  0  0  0  0  0  0  0
  -20.0114   15.1488  -18.3400 C   0  0  0  0  0  0  0  0  0  0  0  0
  -18.8338   14.8463  -18.7403 O   0  0  0  0  0  0  0  0  0  0  0  0
  -21.1901   16.8088  -17.6957 H   0  0  0  0  0  0  0  0  0  0  0  0
  -17.6449   13.2849  -20.9942 N   0  0  0  0  0  0  0  0  0  0  0  0
  -18.3766   13.8044  -20.4040 H   0  0  0  0  0  0  0  0  0  0  0  0
  -17.2034   13.9822  -22.1209 C   0  0  0  0  0  0  0  0  0  0  0  0
  -16.5739   15.1993  -22.0601 C   0  0  0  0  0  0  0  0  0  0  0  0
  -16.1394   15.8191  -23.2358 C   0  0  0  0  0  0  0  0  0  0  0  0
  -16.3156   15.2587  -24.4748 C   0  0  0  0  0  0  0  0  0  0  0  0
  -15.8611   15.9251  -25.6045 O   0  0  0  0  0  0  0  0  0  0  0  0
  -15.8727   15.3979  -26.8954 C   0  0  0  0  0  0  0  0  0  0  0  0
  -14.5484   15.1904  -27.2949 F   0  0  0  0  0  0  0  0  0  0  0  0
  -16.4562   16.3333  -27.7526 F   0  0  0  0  0  0  0  0  0  0  0  0
  -16.6504   14.1572  -27.0231 C   0  0  0  0  0  0  0  0  0  0  0  0
  -16.9242   13.6667  -28.1242 O   0  0  0  0  0  0  0  0  0  0  0  0
  -17.1199   13.4719  -25.8445 N   0  0  0  0  0  0  0  0  0  0  0  0
  -16.9455   14.0389  -24.5547 C   0  0  0  0  0  0  0  0  0  0  0  0
  -17.3706   13.4309  -23.4087 C   0  0  0  0  0  0  0  0  0  0  0  0
  -17.5942   12.5483  -25.9316 H   0  0  0  0  0  0  0  0  0  0  0  0
 18 19  1  0  0  0
 19 20  1  0  0  0
 20 21  2  0  0  0
 20 17  1  0  0  0
 17 16  1  0  0  0
 16 10  1  0  0  0
 10 11  2  0  0  0
 11 12  1  0  0  0
 12 13  2  0  0  0
 13 14  1  0  0  0
 14  8  1  0  0  0
  8  1  1  0  0  0
  1  2  2  0  0  0
  2  3  1  0  0  0
  3  4  2  0  0  0
  4  5  1  0  0  0
  4  6  1  0  0  0
  6 23  1  0  0  0
 23 25  1  0  0  0
 25 26  2  0  0  0
 26 27  1  0  0  0
 27 28  2  0  0  0
 28 29  1  0  0  0
 29 30  1  0  0  0
 30 31  1  0  0  0
 30 32  1  0  0  0
 30 33  1  0  0  0
 33 34  2  0  0  0
 33 35  1  0  0  0
 35 36  1  0  0  0
 36 37  2  0  0  0
  6  7  2  0  0  0
 14 15  2  0  0  0
 15 10  1  0  0  0
  7  1  1  0  0  0
 37 25  1  0  0  0
 36 28  1  0  0  0
 19 22  1  0  0  0
  8  9  1  0  0  0
 23 24  1  0  0  0
 35 38  1  0  0  0
M  END
> <minimizedAffinity>
-8.84286

> <CNNscore>
0.6223757267

> <CNNaffinity>
7.4827628136

> <CNN_VS>
4.6570897102

> <CNNaffinity_variance>
0.0777564794

$$$$
[H]c1nc(N([H])c2c([H])c([H])c([H])c(OC([H])([H])C(=O)N([H])C([H])([H])[H])c2[H])nc(N([H])c2c([H])c([H])c3c(c2[H])N([H])C(=O)C(F)(F)O3)c1F


 38 41  0  0  0  0  0  0  0  0999 V2000
  -17.5862   13.3688  -20.8673 C   0  0  0  0  0  0  0  0  0  0  0  0
  -17.0425   12.8167  -21.9510 N   0  0  0  0  0  0  0  0  0  0  0  0
  -16.5324   11.5702  -21.9998 C   0  0  0  0  0  0  0  0  0  0  0  0
  -16.5659   10.7992  -20.8631 C   0  0  0  0  0  0  0  0  0  0  0  0
  -16.0721    9.5526  -20.8568 F   0  0  0  0  0  0  0  0  0  0  0  0
  -17.1274   11.3250  -19.6853 C   0  0  0  0  0  0  0  0  0  0  0  0
  -17.6002   12.5694  -19.7580 N   0  0  0  0  0  0  0  0  0  0  0  0
  -18.1302   14.6734  -20.7818 N   0  0  0  0  0  0  0  0  0  0  0  0
  -17.7986   15.4374  -21.4356 H   0  0  0  0  0  0  0  0  0  0  0  0
  -20.0991   16.3585  -18.0578 C   0  0  0  0  0  0  0  0  0  0  0  0
  -21.1965   15.5734  -18.0355 C   0  0  0  0  0  0  0  0  0  0  0  0
  -21.3083   14.4967  -18.9107 C   0  0  0  0  0  0  0  0  0  0  0  0
  -20.2896   14.2575  -19.7848 C   0  0  0  0  0  0  0  0  0  0  0  0
  -19.1242   15.0409  -19.8540 C   0  0  0  0  0  0  0  0  0  0  0  0
  -19.0734   16.0822  -18.9687 C   0  0  0  0  0  0  0  0  0  0  0  0
  -19.9179   17.4287  -17.2306 O   0  0  0  0  0  0  0  0  0  0  0  0
  -19.2987   17.3541  -15.9963 C   0  0  0  0  0  0  0  0  0  0  0  0
  -20.5722   18.6071  -12.5668 C   0  0  0  0  0  0  0  0  0  0  0  0
  -19.7554   17.9201  -13.5846 N   0  0  0  0  0  0  0  0  0  0  0  0
  -20.0645   18.0122  -14.9431 C   0  0  0  0  0  0  0  0  0  0  0  0
  -21.0766   18.7200  -15.2798 O   0  0  0  0  0  0  0  0  0  0  0  0
  -18.9462   17.3895  -13.2339 H   0  0  0  0  0  0  0  0  0  0  0  0
  -17.1734   10.5216  -18.5288 N   0  0  0  0  0  0  0  0  0  0  0  0
  -16.2415   10.0718  -18.2409 H   0  0  0  0  0  0  0  0  0  0  0  0
  -18.2489   10.2216  -17.6898 C   0  0  0  0  0  0  0  0  0  0  0  0
  -19.2819   11.0894  -17.4426 C   0  0  0  0  0  0  0  0  0  0  0  0
  -20.3350   10.7004  -16.6090 C   0  0  0  0  0  0  0  0  0  0  0  0
  -20.3877    9.4670  -16.0121 C   0  0  0  0  0  0  0  0  0  0  0  0
  -21.4613    9.1412  -15.1947 O   0  0  0  0  0  0  0  0  0  0  0  0
  -21.6826    7.8814  -14.6396 C   0  0  0  0  0  0  0  0  0  0  0  0
  -22.8235    7.3349  -15.2365 F   0  0  0  0  0  0  0  0  0  0  0  0
  -21.9236    8.0337  -13.2726 F   0  0  0  0  0  0  0  0  0  0  0  0
  -20.5413    6.9648  -14.7733 C   0  0  0  0  0  0  0  0  0  0  0  0
  -20.4951    5.8851  -14.1731 O   0  0  0  0  0  0  0  0  0  0  0  0
  -19.4295    7.3114  -15.6235 N   0  0  0  0  0  0  0  0  0  0  0  0
  -19.3601    8.5843  -16.2483 C   0  0  0  0  0  0  0  0  0  0  0  0
  -18.3305    8.9609  -17.0620 C   0  0  0  0  0  0  0  0  0  0  0  0
  -18.6631    6.6248  -15.7868 H   0  0  0  0  0  0  0  0  0  0  0  0
 18 19  1  0  0  0
 19 20  1  0  0  0
 20 21  2  0  0  0
 20 17  1  0  0  0
 17 16  1  0  0  0
 16 10  1  0  0  0
 10 11  2  0  0  0
 11 12  1  0  0  0
 12 13  2  0  0  0
 13 14  1  0  0  0
 14  8  1  0  0  0
  8  1  1  0  0  0
  1  2  2  0  0  0
  2  3  1  0  0  0
  3  4  2  0  0  0
  4  5  1  0  0  0
  4  6  1  0  0  0
  6 23  1  0  0  0
 23 25  1  0  0  0
 25 26  2  0  0  0
 26 27  1  0  0  0
 27 28  2  0  0  0
 28 29  1  0  0  0
 29 30  1  0  0  0
 30 31  1  0  0  0
 30 32  1  0  0  0
 30 33  1  0  0  0
 33 34  2  0  0  0
 33 35  1  0  0  0
 35 36  1  0  0  0
 36 37  2  0  0  0
  6  7  2  0  0  0
 14 15  2  0  0  0
 15 10  1  0  0  0
  7  1  1  0  0  0
 37 25  1  0  0  0
 36 28  1  0  0  0
 19 22  1  0  0  0
  8  9  1  0  0  0
 23 24  1  0  0  0
 35 38  1  0  0  0
M  END
> <minimizedAffinity>
-8.21250

> <CNNscore>
0.4474014640

> <CNNaffinity>
6.8019599915

> <CNN_VS>
3.0432069302

> <CNNaffinity_variance>
0.0540535562

$$$$
[H]c1nc(N([H])c2c([H])c([H])c([H])c(OC([H])([H])C(=O)N([H])C([H])([H])[H])c2[H])nc(N([H])c2c([H])c([H])c3c(c2[H])N([H])C(=O)C(F)(F)O3)c1F


 38 41  0  0  0  0  0  0  0  0999 V2000
  -19.5632   12.4421  -17.1805 C   0  0  0  0  0  0  0  0  0  0  0  0
  -20.1211   11.5376  -16.3770 N   0  0  0  0  0  0  0  0  0  0  0  0
  -19.8285   10.2221  -16.3873 C   0  0  0  0  0  0  0  0  0  0  0  0
  -18.8924    9.7618  -17.2815 C   0  0  0  0  0  0  0  0  0  0  0  0
  -18.5643    8.4628  -17.3337 F   0  0  0  0  0  0  0  0  0  0  0  0
  -18.2667   10.6674  -18.1575 C   0  0  0  0  0  0  0  0  0  0  0  0
  -18.6374   11.9440  -18.0548 N   0  0  0  0  0  0  0  0  0  0  0  0
  -19.8471   13.8293  -17.1959 N   0  0  0  0  0  0  0  0  0  0  0  0
  -20.0095   14.3543  -16.2908 H   0  0  0  0  0  0  0  0  0  0  0  0
  -19.0638   15.9361  -20.2099 C   0  0  0  0  0  0  0  0  0  0  0  0
  -20.3082   16.1338  -20.6933 C   0  0  0  0  0  0  0  0  0  0  0  0
  -21.4092   15.5771  -20.0486 C   0  0  0  0  0  0  0  0  0  0  0  0
  -21.2006   14.8323  -18.9258 C   0  0  0  0  0  0  0  0  0  0  0  0
  -19.9285   14.5921  -18.3772 C   0  0  0  0  0  0  0  0  0  0  0  0
  -18.8882   15.1661  -19.0548 C   0  0  0  0  0  0  0  0  0  0  0  0
  -17.9384   16.4506  -20.7855 O   0  0  0  0  0  0  0  0  0  0  0  0
  -17.3959   17.6794  -20.4565 C   0  0  0  0  0  0  0  0  0  0  0  0
  -18.8277   21.0786  -21.6179 C   0  0  0  0  0  0  0  0  0  0  0  0
  -18.2788   20.0203  -20.7496 N   0  0  0  0  0  0  0  0  0  0  0  0
  -17.9390   18.7671  -21.2632 C   0  0  0  0  0  0  0  0  0  0  0  0
  -18.1111   18.5671  -22.5157 O   0  0  0  0  0  0  0  0  0  0  0  0
  -18.1504   20.2679  -19.7589 H   0  0  0  0  0  0  0  0  0  0  0  0
  -17.2953   10.1900  -19.0594 N   0  0  0  0  0  0  0  0  0  0  0  0
  -16.8738    9.2315  -18.8202 H   0  0  0  0  0  0  0  0  0  0  0  0
  -16.7960   10.7710  -20.2272 C   0  0  0  0  0  0  0  0  0  0  0  0
  -15.7222   10.2746  -20.9212 C   0  0  0  0  0  0  0  0  0  0  0  0
  -15.3016   10.9026  -22.0975 C   0  0  0  0  0  0  0  0  0  0  0  0
  -15.9226   12.0156  -22.6034 C   0  0  0  0  0  0  0  0  0  0  0  0
  -15.4563   12.5927  -23.7767 O   0  0  0  0  0  0  0  0  0  0  0  0
  -16.0810   13.6437  -24.4470 C   0  0  0  0  0  0  0  0  0  0  0  0
  -16.5732   13.1564  -25.6622 F   0  0  0  0  0  0  0  0  0  0  0  0
  -15.1286   14.6294  -24.7143 F   0  0  0  0  0  0  0  0  0  0  0  0
  -17.1553   14.2850  -23.6755 C   0  0  0  0  0  0  0  0  0  0  0  0
  -17.6773   15.3457  -24.0368 O   0  0  0  0  0  0  0  0  0  0  0  0
  -17.6329   13.6796  -22.4571 N   0  0  0  0  0  0  0  0  0  0  0  0
  -17.0007   12.5274  -21.9203 C   0  0  0  0  0  0  0  0  0  0  0  0
  -17.4141   11.9165  -20.7715 C   0  0  0  0  0  0  0  0  0  0  0  0
  -18.4520   14.0865  -21.9580 H   0  0  0  0  0  0  0  0  0  0  0  0
 18 19  1  0  0  0
 19 20  1  0  0  0
 20 21  2  0  0  0
 20 17  1  0  0  0
 17 16  1  0  0  0
 16 10  1  0  0  0
 10 11  2  0  0  0
 11 12  1  0  0  0
 12 13  2  0  0  0
 13 14  1  0  0  0
 14  8  1  0  0  0
  8  1  1  0  0  0
  1  2  2  0  0  0
  2  3  1  0  0  0
  3  4  2  0  0  0
  4  5  1  0  0  0
  4  6  1  0  0  0
  6 23  1  0  0  0
 23 25  1  0  0  0
 25 26  2  0  0  0
 26 27  1  0  0  0
 27 28  2  0  0  0
 28 29  1  0  0  0
 29 30  1  0  0  0
 30 31  1  0  0  0
 30 32  1  0  0  0
 30 33  1  0  0  0
 33 34  2  0  0  0
 33 35  1  0  0  0
 35 36  1  0  0  0
 36 37  2  0  0  0
  6  7  2  0  0  0
 14 15  2  0  0  0
 15 10  1  0  0  0
  7  1  1  0  0  0
 37 25  1  0  0  0
 36 28  1  0  0  0
 19 22  1  0  0  0
  8  9  1  0  0  0
 23 24  1  0  0  0
 35 38  1  0  0  0
M  END
> <minimizedAffinity>
-8.91040

> <CNNscore>
0.4399574399

> <CNNaffinity>
7.2138872147

> <CNN_VS>
3.1738033295

> <CNNaffinity_variance>
0.0064329104

$$$$
[H]c1nc(N([H])c2c([H])c(N([H])C(=O)c3c([H])c([H])c(C([H])([H])N4C([H])([H])C([H])([H])N(C([H])([H])[H])C([H])([H])C4([H])[H])c(F)c3[H])c([H])c([H])c2C([H])([H])[H])nc(-c2c([H])nc([H])c([H])c2[H])c1[H]


 40 44  0  0  0  0  0  0  0  0999 V2000
  -17.8497   16.4306  -22.6418 C   0  0  0  0  0  0  0  0  0  0  0  0
  -16.8091   17.1372  -23.1840 C   0  0  0  0  0  0  0  0  0  0  0  0
  -15.6889   16.5189  -23.7146 C   0  0  0  0  0  0  0  0  0  0  0  0
  -15.5996   15.1532  -23.7058 C   0  0  0  0  0  0  0  0  0  0  0  0
  -14.4056   14.4953  -24.2720 C   0  0  0  0  0  0  0  0  0  0  0  0
  -16.6366   14.3673  -23.1618 C   0  0  0  0  0  0  0  0  0  0  0  0
  -17.7243   15.0278  -22.6492 C   0  0  0  0  0  0  0  0  0  0  0  0
  -20.0805   17.6271  -22.7593 C   0  0  0  0  0  0  0  0  0  0  0  0
  -20.0841   17.7642  -24.0010 O   0  0  0  0  0  0  0  0  0  0  0  0
  -19.0328   16.9975  -22.0986 N   0  0  0  0  0  0  0  0  0  0  0  0
  -19.1179   16.9368  -21.0370 H   0  0  0  0  0  0  0  0  0  0  0  0
  -23.4865   19.2574  -20.7287 C   0  0  0  0  0  0  0  0  0  0  0  0
  -22.6396   18.3690  -20.1238 C   0  0  0  0  0  0  0  0  0  0  0  0
  -21.5337   17.8221  -20.7502 C   0  0  0  0  0  0  0  0  0  0  0  0
  -21.2417   18.1684  -22.0463 C   0  0  0  0  0  0  0  0  0  0  0  0
  -22.0815   19.0708  -22.6935 C   0  0  0  0  0  0  0  0  0  0  0  0
  -23.1665   19.5966  -22.0550 C   0  0  0  0  0  0  0  0  0  0  0  0
  -23.9968   20.4785  -22.6714 F   0  0  0  0  0  0  0  0  0  0  0  0
  -24.6617   19.8965  -20.0887 C   0  0  0  0  0  0  0  0  0  0  0  0
  -24.9979   21.4284  -14.8460 C   0  0  0  0  0  0  0  0  0  0  0  0
  -24.4710   20.8516  -16.0758 N   0  0  0  0  0  0  0  0  0  0  0  0
  -24.4019   21.9321  -17.0412 C   0  0  0  0  0  0  0  0  0  0  0  0
  -24.0558   21.4973  -18.4275 C   0  0  0  0  0  0  0  0  0  0  0  0
  -24.4534   20.0825  -18.6686 N   0  0  0  0  0  0  0  0  0  0  0  0
  -25.7326   19.9160  -17.9486 C   0  0  0  0  0  0  0  0  0  0  0  0
  -25.4148   19.8259  -16.4961 C   0  0  0  0  0  0  0  0  0  0  0  0
  -16.4373   12.9839  -23.2005 N   0  0  0  0  0  0  0  0  0  0  0  0
  -16.2513   12.5352  -24.1502 H   0  0  0  0  0  0  0  0  0  0  0  0
  -16.4500   12.0800  -22.1105 C   0  0  0  0  0  0  0  0  0  0  0  0
  -15.6647   11.0246  -21.9352 N   0  0  0  0  0  0  0  0  0  0  0  0
  -15.6797   10.1782  -20.9114 C   0  0  0  0  0  0  0  0  0  0  0  0
  -16.6227   10.4182  -19.9041 C   0  0  0  0  0  0  0  0  0  0  0  0
  -17.4685   11.4950  -20.0219 C   0  0  0  0  0  0  0  0  0  0  0  0
  -17.3612   12.2801  -21.0994 N   0  0  0  0  0  0  0  0  0  0  0  0
  -18.4719   11.7776  -18.9890 C   0  0  0  0  0  0  0  0  0  0  0  0
  -19.2249   12.9134  -18.9385 C   0  0  0  0  0  0  0  0  0  0  0  0
  -20.1634   13.1057  -17.9095 C   0  0  0  0  0  0  0  0  0  0  0  0
  -20.3320   12.1472  -16.9400 C   0  0  0  0  0  0  0  0  0  0  0  0
  -19.5796   11.0376  -17.0104 N   0  0  0  0  0  0  0  0  0  0  0  0
  -18.6779   10.8372  -17.9870 C   0  0  0  0  0  0  0  0  0  0  0  0
 20 21  1  0  0  0
 21 22  1  0  0  0
 22 23  1  0  0  0
 23 24  1  0  0  0
 24 19  1  0  0  0
 19 12  1  0  0  0
 12 13  2  0  0  0
 13 14  1  0  0  0
 14 15  2  0  0  0
 15 16  1  0  0  0
 16 17  2  0  0  0
 17 18  1  0  0  0
 15  8  1  0  0  0
  8  9  2  0  0  0
  8 10  1  0  0  0
 10  1  1  0  0  0
  1  2  2  0  0  0
  2  3  1  0  0  0
  3  4  2  0  0  0
  4  5  1  0  0  0
  4  6  1  0  0  0
  6 27  1  0  0  0
 27 29  1  0  0  0
 29 30  2  0  0  0
 30 31  1  0  0  0
 31 32  2  0  0  0
 32 33  1  0  0  0
 33 34  2  0  0  0
 33 35  1  0  0  0
 35 36  2  0  0  0
 36 37  1  0  0  0
 37 38  2  0  0  0
 38 39  1  0  0  0
 39 40  2  0  0  0
  6  7  2  0  0  0
 24 25  1  0  0  0
 25 26  1  0  0  0
 26 21  1  0  0  0
 17 12  1  0  0  0
  7  1  1  0  0  0
 34 29  1  0  0  0
 40 35  1  0  0  0
 10 11  1  0  0  0
 27 28  1  0  0  0
M  END
> <minimizedAffinity>
-7.92825

> <CNNscore>
0.3852889836

> <CNNaffinity>
7.1494455338

> <CNN_VS>
2.7546026707

> <CNNaffinity_variance>
0.0367552713

$$$$
[H]c1nc(N([H])c2c([H])c(N([H])C(=O)c3c([H])c([H])c(C([H])([H])N4C([H])([H])C([H])([H])N(C([H])([H])[H])C([H])([H])C4([H])[H])c(F)c3[H])c([H])c([H])c2C([H])([H])[H])nc(-c2c([H])nc([H])c([H])c2[H])c1[H]


 40 44  0  0  0  0  0  0  0  0999 V2000
  -17.3442   16.7851  -19.9332 C   0  0  0  0  0  0  0  0  0  0  0  0
  -16.5007   17.4331  -20.7964 C   0  0  0  0  0  0  0  0  0  0  0  0
  -16.0195   16.8375  -21.9506 C   0  0  0  0  0  0  0  0  0  0  0  0
  -16.3883   15.5557  -22.2573 C   0  0  0  0  0  0  0  0  0  0  0  0
  -15.8753   14.9223  -23.4880 C   0  0  0  0  0  0  0  0  0  0  0  0
  -17.2539   14.8332  -21.4100 C   0  0  0  0  0  0  0  0  0  0  0  0
  -17.7027   15.4680  -20.2796 C   0  0  0  0  0  0  0  0  0  0  0  0
  -19.1611   17.8532  -18.5260 C   0  0  0  0  0  0  0  0  0  0  0  0
  -20.0234   17.8748  -19.4297 O   0  0  0  0  0  0  0  0  0  0  0  0
  -17.8885   17.3402  -18.7450 N   0  0  0  0  0  0  0  0  0  0  0  0
  -17.2209   17.3735  -17.9137 H   0  0  0  0  0  0  0  0  0  0  0  0
  -20.3893   19.5084  -14.7665 C   0  0  0  0  0  0  0  0  0  0  0  0
  -19.5614   18.4216  -14.8434 C   0  0  0  0  0  0  0  0  0  0  0  0
  -19.1477   17.8610  -16.0388 C   0  0  0  0  0  0  0  0  0  0  0  0
  -19.5713   18.3995  -17.2287 C   0  0  0  0  0  0  0  0  0  0  0  0
  -20.4144   19.5068  -17.1890 C   0  0  0  0  0  0  0  0  0  0  0  0
  -20.8090   20.0419  -15.9977 C   0  0  0  0  0  0  0  0  0  0  0  0
  -21.6316   21.1222  -15.9403 F   0  0  0  0  0  0  0  0  0  0  0  0
  -20.8309   20.1653  -13.5125 C   0  0  0  0  0  0  0  0  0  0  0  0
  -24.8685   18.4664  -10.2327 C   0  0  0  0  0  0  0  0  0  0  0  0
  -23.8952   18.4798  -11.3169 N   0  0  0  0  0  0  0  0  0  0  0  0
  -22.5888   18.5914  -10.6964 C   0  0  0  0  0  0  0  0  0  0  0  0
  -21.4669   18.8060  -11.6587 C   0  0  0  0  0  0  0  0  0  0  0  0
  -21.9415   19.4598  -12.9098 N   0  0  0  0  0  0  0  0  0  0  0  0
  -22.9698   20.4256  -12.4709 C   0  0  0  0  0  0  0  0  0  0  0  0
  -24.1941   19.6467  -12.1345 C   0  0  0  0  0  0  0  0  0  0  0  0
  -17.5593   13.5311  -21.8178 N   0  0  0  0  0  0  0  0  0  0  0  0
  -18.0918   13.4096  -22.7341 H   0  0  0  0  0  0  0  0  0  0  0  0
  -17.2418   12.3223  -21.1523 C   0  0  0  0  0  0  0  0  0  0  0  0
  -16.3233   11.4310  -21.5037 N   0  0  0  0  0  0  0  0  0  0  0  0
  -16.0284   10.2973  -20.8771 C   0  0  0  0  0  0  0  0  0  0  0  0
  -16.7608   10.0034  -19.7201 C   0  0  0  0  0  0  0  0  0  0  0  0
  -17.7283   10.8837  -19.2987 C   0  0  0  0  0  0  0  0  0  0  0  0
  -17.9380   11.9960  -20.0115 N   0  0  0  0  0  0  0  0  0  0  0  0
  -18.5189   10.6093  -18.0931 C   0  0  0  0  0  0  0  0  0  0  0  0
  -19.3502   11.5110  -17.4968 C   0  0  0  0  0  0  0  0  0  0  0  0
  -20.0697   11.1657  -16.3393 C   0  0  0  0  0  0  0  0  0  0  0  0
  -19.9418    9.9111  -15.7947 C   0  0  0  0  0  0  0  0  0  0  0  0
  -19.1177    9.0405  -16.3991 N   0  0  0  0  0  0  0  0  0  0  0  0
  -18.4224    9.3536  -17.5062 C   0  0  0  0  0  0  0  0  0  0  0  0
 20 21  1  0  0  0
 21 22  1  0  0  0
 22 23  1  0  0  0
 23 24  1  0  0  0
 24 19  1  0  0  0
 19 12  1  0  0  0
 12 13  2  0  0  0
 13 14  1  0  0  0
 14 15  2  0  0  0
 15 16  1  0  0  0
 16 17  2  0  0  0
 17 18  1  0  0  0
 15  8  1  0  0  0
  8  9  2  0  0  0
  8 10  1  0  0  0
 10  1  1  0  0  0
  1  2  2  0  0  0
  2  3  1  0  0  0
  3  4  2  0  0  0
  4  5  1  0  0  0
  4  6  1  0  0  0
  6 27  1  0  0  0
 27 29  1  0  0  0
 29 30  2  0  0  0
 30 31  1  0  0  0
 31 32  2  0  0  0
 32 33  1  0  0  0
 33 34  2  0  0  0
 33 35  1  0  0  0
 35 36  2  0  0  0
 36 37  1  0  0  0
 37 38  2  0  0  0
 38 39  1  0  0  0
 39 40  2  0  0  0
  6  7  2  0  0  0
 24 25  1  0  0  0
 25 26  1  0  0  0
 26 21  1  0  0  0
 17 12  1  0  0  0
  7  1  1  0  0  0
 34 29  1  0  0  0
 40 35  1  0  0  0
 10 11  1  0  0  0
 27 28  1  0  0  0
M  END
> <minimizedAffinity>
-8.53109

> <CNNscore>
0.3419098556

> <CNNaffinity>
6.8194594383

> <CNN_VS>
2.3316404819

> <CNNaffinity_variance>
0.0576639771

$$$$
[H]c1nc(N([H])c2c([H])c(N([H])C(=O)c3c([H])c([H])c(C([H])([H])N4C([H])([H])C([H])([H])N(C([H])([H])[H])C([H])([H])C4([H])[H])c(F)c3[H])c([H])c([H])c2C([H])([H])[H])nc(-c2c([H])nc([H])c([H])c2[H])c1[H]


 40 44  0  0  0  0  0  0  0  0999 V2000
  -17.6335   13.5391  -22.1875 C   0  0  0  0  0  0  0  0  0  0  0  0
  -17.1251   12.8447  -23.2531 C   0  0  0  0  0  0  0  0  0  0  0  0
  -16.6483   13.4753  -24.3904 C   0  0  0  0  0  0  0  0  0  0  0  0
  -16.6778   14.8412  -24.4718 C   0  0  0  0  0  0  0  0  0  0  0  0
  -16.1688   15.5122  -25.6841 C   0  0  0  0  0  0  0  0  0  0  0  0
  -17.1891   15.6149  -23.4092 C   0  0  0  0  0  0  0  0  0  0  0  0
  -17.6488   14.9425  -22.3053 C   0  0  0  0  0  0  0  0  0  0  0  0
  -17.5982   11.9000  -20.2551 C   0  0  0  0  0  0  0  0  0  0  0  0
  -16.5587   11.3066  -20.6128 O   0  0  0  0  0  0  0  0  0  0  0  0
  -18.1211   12.9594  -20.9865 N   0  0  0  0  0  0  0  0  0  0  0  0
  -19.0164   13.3954  -20.6042 H   0  0  0  0  0  0  0  0  0  0  0  0
  -19.4159   10.4085  -16.6700 C   0  0  0  0  0  0  0  0  0  0  0  0
  -19.7044   11.6509  -17.1653 C   0  0  0  0  0  0  0  0  0  0  0  0
  -19.1347   12.1639  -18.3172 C   0  0  0  0  0  0  0  0  0  0  0  0
  -18.2292   11.4126  -19.0247 C   0  0  0  0  0  0  0  0  0  0  0  0
  -17.9119   10.1426  -18.5506 C   0  0  0  0  0  0  0  0  0  0  0  0
  -18.4866    9.6584  -17.4118 C   0  0  0  0  0  0  0  0  0  0  0  0
  -18.1884    8.4213  -16.9347 F   0  0  0  0  0  0  0  0  0  0  0  0
  -20.0256    9.8021  -15.4618 C   0  0  0  0  0  0  0  0  0  0  0  0
  -25.3922    9.3340  -14.4997 C   0  0  0  0  0  0  0  0  0  0  0  0
  -24.1313    9.4313  -15.2233 N   0  0  0  0  0  0  0  0  0  0  0  0
  -23.3159    8.3156  -14.7823 C   0  0  0  0  0  0  0  0  0  0  0  0
  -21.9077    8.3486  -15.2789 C   0  0  0  0  0  0  0  0  0  0  0  0
  -21.4673    9.7406  -15.5722 N   0  0  0  0  0  0  0  0  0  0  0  0
  -22.0864   10.5687  -14.5170 C   0  0  0  0  0  0  0  0  0  0  0  0
  -23.5315   10.7047  -14.8515 C   0  0  0  0  0  0  0  0  0  0  0  0
  -17.1759   16.9997  -23.6023 N   0  0  0  0  0  0  0  0  0  0  0  0
  -16.4013   17.4090  -24.2110 H   0  0  0  0  0  0  0  0  0  0  0  0
  -18.0846   17.9519  -23.0801 C   0  0  0  0  0  0  0  0  0  0  0  0
  -17.9035   18.7395  -22.0273 N   0  0  0  0  0  0  0  0  0  0  0  0
  -18.7585   19.6315  -21.5396 C   0  0  0  0  0  0  0  0  0  0  0  0
  -19.9857   19.7614  -22.2020 C   0  0  0  0  0  0  0  0  0  0  0  0
  -20.2396   18.9760  -23.3008 C   0  0  0  0  0  0  0  0  0  0  0  0
  -19.3016   18.1108  -23.7015 N   0  0  0  0  0  0  0  0  0  0  0  0
  -21.5149   19.0807  -24.0195 C   0  0  0  0  0  0  0  0  0  0  0  0
  -22.3954   18.0515  -24.1775 C   0  0  0  0  0  0  0  0  0  0  0  0
  -23.5958   18.2379  -24.8854 C   0  0  0  0  0  0  0  0  0  0  0  0
  -23.8950   19.4640  -25.4276 C   0  0  0  0  0  0  0  0  0  0  0  0
  -23.0131   20.4620  -25.2592 N   0  0  0  0  0  0  0  0  0  0  0  0
  -21.8610   20.3016  -24.5854 C   0  0  0  0  0  0  0  0  0  0  0  0
 20 21  1  0  0  0
 21 22  1  0  0  0
 22 23  1  0  0  0
 23 24  1  0  0  0
 24 19  1  0  0  0
 19 12  1  0  0  0
 12 13  2  0  0  0
 13 14  1  0  0  0
 14 15  2  0  0  0
 15 16  1  0  0  0
 16 17  2  0  0  0
 17 18  1  0  0  0
 15  8  1  0  0  0
  8  9  2  0  0  0
  8 10  1  0  0  0
 10  1  1  0  0  0
  1  2  2  0  0  0
  2  3  1  0  0  0
  3  4  2  0  0  0
  4  5  1  0  0  0
  4  6  1  0  0  0
  6 27  1  0  0  0
 27 29  1  0  0  0
 29 30  2  0  0  0
 30 31  1  0  0  0
 31 32  2  0  0  0
 32 33  1  0  0  0
 33 34  2  0  0  0
 33 35  1  0  0  0
 35 36  2  0  0  0
 36 37  1  0  0  0
 37 38  2  0  0  0
 38 39  1  0  0  0
 39 40  2  0  0  0
  6  7  2  0  0  0
 24 25  1  0  0  0
 25 26  1  0  0  0
 26 21  1  0  0  0
 17 12  1  0  0  0
  7  1  1  0  0  0
 34 29  1  0  0  0
 40 35  1  0  0  0
 10 11  1  0  0  0
 27 28  1  0  0  0
M  END
> <minimizedAffinity>
-9.16202

> <CNNscore>
0.3369727731

> <CNNaffinity>
7.0502052307

> <CNN_VS>
2.3757271767

> <CNNaffinity_variance>
0.1510351002

$$$$
[H]c1nc(N([H])c2c([H])c(N([H])C(=O)c3c([H])c([H])c(C([H])([H])N4C([H])([H])C([H])([H])N(C([H])([H])[H])C([H])([H])C4([H])[H])c(F)c3[H])c([H])c([H])c2C([H])([H])[H])nc(-c2c([H])nc([H])c([H])c2[H])c1[H]


 40 44  0  0  0  0  0  0  0  0999 V2000
  -17.8553   16.5374  -21.5784 C   0  0  0  0  0  0  0  0  0  0  0  0
  -17.0608   17.2551  -22.4329 C   0  0  0  0  0  0  0  0  0  0  0  0
  -16.2866   16.6511  -23.4099 C   0  0  0  0  0  0  0  0  0  0  0  0
  -16.3022   15.2889  -23.5422 C   0  0  0  0  0  0  0  0  0  0  0  0
  -15.4773   14.6465  -24.5842 C   0  0  0  0  0  0  0  0  0  0  0  0
  -17.0986   14.4922  -22.6936 C   0  0  0  0  0  0  0  0  0  0  0  0
  -17.8469   15.1387  -21.7427 C   0  0  0  0  0  0  0  0  0  0  0  0
  -19.9855   17.5713  -20.6756 C   0  0  0  0  0  0  0  0  0  0  0  0
  -20.6018   17.5581  -21.7622 O   0  0  0  0  0  0  0  0  0  0  0  0
  -18.6859   17.0914  -20.5689 N   0  0  0  0  0  0  0  0  0  0  0  0
  -18.2421   17.1532  -19.6008 H   0  0  0  0  0  0  0  0  0  0  0  0
  -22.1656   19.1330  -17.3304 C   0  0  0  0  0  0  0  0  0  0  0  0
  -21.0421   19.7471  -17.8130 C   0  0  0  0  0  0  0  0  0  0  0  0
  -20.3139   19.2694  -18.8881 C   0  0  0  0  0  0  0  0  0  0  0  0
  -20.7126   18.1216  -19.5274 C   0  0  0  0  0  0  0  0  0  0  0  0
  -21.8522   17.4699  -19.0640 C   0  0  0  0  0  0  0  0  0  0  0  0
  -22.5539   17.9602  -18.0015 C   0  0  0  0  0  0  0  0  0  0  0  0
  -23.6682   17.3370  -17.5359 F   0  0  0  0  0  0  0  0  0  0  0  0
  -22.9980   19.6246  -16.2059 C   0  0  0  0  0  0  0  0  0  0  0  0
  -21.1430   18.9206  -11.1061 C   0  0  0  0  0  0  0  0  0  0  0  0
  -21.2962   19.4702  -12.4467 N   0  0  0  0  0  0  0  0  0  0  0  0
  -22.6746   19.9084  -12.5573 C   0  0  0  0  0  0  0  0  0  0  0  0
  -23.0759   20.3363  -13.9308 C   0  0  0  0  0  0  0  0  0  0  0  0
  -22.2435   19.6723  -14.9719 N   0  0  0  0  0  0  0  0  0  0  0  0
  -22.0208   18.3016  -14.4676 C   0  0  0  0  0  0  0  0  0  0  0  0
  -21.0082   18.3894  -13.3787 C   0  0  0  0  0  0  0  0  0  0  0  0
  -17.0332   13.1131  -22.9143 N   0  0  0  0  0  0  0  0  0  0  0  0
  -17.2521   12.7560  -23.8955 H   0  0  0  0  0  0  0  0  0  0  0  0
  -16.7034   12.1044  -21.9768 C   0  0  0  0  0  0  0  0  0  0  0  0
  -15.7080   11.2303  -22.0567 N   0  0  0  0  0  0  0  0  0  0  0  0
  -15.4017   10.2847  -21.1753 C   0  0  0  0  0  0  0  0  0  0  0  0
  -16.2113   10.1936  -20.0360 C   0  0  0  0  0  0  0  0  0  0  0  0
  -17.2607   11.0686  -19.8891 C   0  0  0  0  0  0  0  0  0  0  0  0
  -17.4737   11.9811  -20.8436 N   0  0  0  0  0  0  0  0  0  0  0  0
  -18.1334   11.0027  -18.7111 C   0  0  0  0  0  0  0  0  0  0  0  0
  -18.4164    9.8578  -18.0266 C   0  0  0  0  0  0  0  0  0  0  0  0
  -19.2676    9.8836  -16.9079 C   0  0  0  0  0  0  0  0  0  0  0  0
  -19.8255   11.0677  -16.4913 C   0  0  0  0  0  0  0  0  0  0  0  0
  -19.5325   12.1817  -17.1808 N   0  0  0  0  0  0  0  0  0  0  0  0
  -18.7208   12.1754  -18.2523 C   0  0  0  0  0  0  0  0  0  0  0  0
 20 21  1  0  0  0
 21 22  1  0  0  0
 22 23  1  0  0  0
 23 24  1  0  0  0
 24 19  1  0  0  0
 19 12  1  0  0  0
 12 13  2  0  0  0
 13 14  1  0  0  0
 14 15  2  0  0  0
 15 16  1  0  0  0
 16 17  2  0  0  0
 17 18  1  0  0  0
 15  8  1  0  0  0
  8  9  2  0  0  0
  8 10  1  0  0  0
 10  1  1  0  0  0
  1  2  2  0  0  0
  2  3  1  0  0  0
  3  4  2  0  0  0
  4  5  1  0  0  0
  4  6  1  0  0  0
  6 27  1  0  0  0
 27 29  1  0  0  0
 29 30  2  0  0  0
 30 31  1  0  0  0
 31 32  2  0  0  0
 32 33  1  0  0  0
 33 34  2  0  0  0
 33 35  1  0  0  0
 35 36  2  0  0  0
 36 37  1  0  0  0
 37 38  2  0  0  0
 38 39  1  0  0  0
 39 40  2  0  0  0
  6  7  2  0  0  0
 24 25  1  0  0  0
 25 26  1  0  0  0
 26 21  1  0  0  0
 17 12  1  0  0  0
  7  1  1  0  0  0
 34 29  1  0  0  0
 40 35  1  0  0  0
 10 11  1  0  0  0
 27 28  1  0  0  0
M  END
> <minimizedAffinity>
-7.81744

> <CNNscore>
0.2524988353

> <CNNaffinity>
7.1466341019

> <CNN_VS>
1.8045167923

> <CNNaffinity_variance>
0.0387643054

$$$$
[H]c1nc(N([H])c2c([H])c(N([H])C(=O)c3c([H])c([H])c(C([H])([H])N4C([H])([H])C([H])([H])N(C([H])([H])[H])C([H])([H])C4([H])[H])c(F)c3[H])c([H])c([H])c2C([H])([H])[H])nc(-c2c([H])nc([H])c([H])c2[H])c1[H]


 40 44  0  0  0  0  0  0  0  0999 V2000
  -17.9289   12.9743  -21.2793 C   0  0  0  0  0  0  0  0  0  0  0  0
  -17.1458   12.4653  -22.2813 C   0  0  0  0  0  0  0  0  0  0  0  0
  -16.6611   13.2494  -23.3152 C   0  0  0  0  0  0  0  0  0  0  0  0
  -16.9648   14.5834  -23.3549 C   0  0  0  0  0  0  0  0  0  0  0  0
  -16.4472   15.4181  -24.4568 C   0  0  0  0  0  0  0  0  0  0  0  0
  -17.7669   15.1694  -22.3537 C   0  0  0  0  0  0  0  0  0  0  0  0
  -18.2216   14.3500  -21.3517 C   0  0  0  0  0  0  0  0  0  0  0  0
  -17.7578   11.4532  -19.2596 C   0  0  0  0  0  0  0  0  0  0  0  0
  -16.5168   11.3184  -19.3088 O   0  0  0  0  0  0  0  0  0  0  0  0
  -18.4433   12.2338  -20.1824 N   0  0  0  0  0  0  0  0  0  0  0  0
  -19.5021   12.2799  -20.0617 H   0  0  0  0  0  0  0  0  0  0  0  0
  -19.7935    9.4330  -16.0726 C   0  0  0  0  0  0  0  0  0  0  0  0
  -18.7756    8.8426  -16.7709 C   0  0  0  0  0  0  0  0  0  0  0  0
  -18.0995    9.4643  -17.8057 C   0  0  0  0  0  0  0  0  0  0  0  0
  -18.4424   10.7412  -18.1760 C   0  0  0  0  0  0  0  0  0  0  0  0
  -19.4735   11.3738  -17.4869 C   0  0  0  0  0  0  0  0  0  0  0  0
  -20.1258   10.7401  -16.4699 C   0  0  0  0  0  0  0  0  0  0  0  0
  -21.1345   11.3424  -15.7867 F   0  0  0  0  0  0  0  0  0  0  0  0
  -20.5230    8.8220  -14.9353 C   0  0  0  0  0  0  0  0  0  0  0  0
  -18.3013    7.8747  -10.0249 C   0  0  0  0  0  0  0  0  0  0  0  0
  -18.4111    8.1226  -11.4565 N   0  0  0  0  0  0  0  0  0  0  0  0
  -19.0865    9.3979  -11.6032 C   0  0  0  0  0  0  0  0  0  0  0  0
  -19.4569    9.7398  -13.0091 C   0  0  0  0  0  0  0  0  0  0  0  0
  -19.6297    8.5152  -13.8388 N   0  0  0  0  0  0  0  0  0  0  0  0
  -20.2616    7.5287  -12.9387 C   0  0  0  0  0  0  0  0  0  0  0  0
  -19.2059    7.0360  -12.0106 C   0  0  0  0  0  0  0  0  0  0  0  0
  -18.0179   16.5374  -22.4970 N   0  0  0  0  0  0  0  0  0  0  0  0
  -17.2301   17.1502  -22.8738 H   0  0  0  0  0  0  0  0  0  0  0  0
  -19.2165   17.2301  -22.1992 C   0  0  0  0  0  0  0  0  0  0  0  0
  -19.6286   17.6432  -21.0073 N   0  0  0  0  0  0  0  0  0  0  0  0
  -20.7542   18.2925  -20.7313 C   0  0  0  0  0  0  0  0  0  0  0  0
  -21.6032   18.5757  -21.8087 C   0  0  0  0  0  0  0  0  0  0  0  0
  -21.2376   18.1763  -23.0718 C   0  0  0  0  0  0  0  0  0  0  0  0
  -20.0784   17.5280  -23.2293 N   0  0  0  0  0  0  0  0  0  0  0  0
  -22.1019   18.4518  -24.2255 C   0  0  0  0  0  0  0  0  0  0  0  0
  -22.8559   17.5116  -24.8635 C   0  0  0  0  0  0  0  0  0  0  0  0
  -23.6551   17.8616  -25.9660 C   0  0  0  0  0  0  0  0  0  0  0  0
  -23.6844   19.1599  -26.4138 C   0  0  0  0  0  0  0  0  0  0  0  0
  -22.9339   20.0678  -25.7700 N   0  0  0  0  0  0  0  0  0  0  0  0
  -22.1643   19.7509  -24.7143 C   0  0  0  0  0  0  0  0  0  0  0  0
 20 21  1  0  0  0
 21 22  1  0  0  0
 22 23  1  0  0  0
 23 24  1  0  0  0
 24 19  1  0  0  0
 19 12  1  0  0  0
 12 13  2  0  0  0
 13 14  1  0  0  0
 14 15  2  0  0  0
 15 16  1  0  0  0
 16 17  2  0  0  0
 17 18  1  0  0  0
 15  8  1  0  0  0
  8  9  2  0  0  0
  8 10  1  0  0  0
 10  1  1  0  0  0
  1  2  2  0  0  0
  2  3  1  0  0  0
  3  4  2  0  0  0
  4  5  1  0  0  0
  4  6  1  0  0  0
  6 27  1  0  0  0
 27 29  1  0  0  0
 29 30  2  0  0  0
 30 31  1  0  0  0
 31 32  2  0  0  0
 32 33  1  0  0  0
 33 34  2  0  0  0
 33 35  1  0  0  0
 35 36  2  0  0  0
 36 37  1  0  0  0
 37 38  2  0  0  0
 38 39  1  0  0  0
 39 40  2  0  0  0
  6  7  2  0  0  0
 24 25  1  0  0  0
 25 26  1  0  0  0
 26 21  1  0  0  0
 17 12  1  0  0  0
  7  1  1  0  0  0
 34 29  1  0  0  0
 40 35  1  0  0  0
 10 11  1  0  0  0
 27 28  1  0  0  0
M  END
> <minimizedAffinity>
-9.44352

> <CNNscore>
0.2170162052

> <CNNaffinity>
6.6961503029

> <CNN_VS>
1.4531731606

> <CNNaffinity_variance>
0.0564101823

$$$$
[H]c1nc(N([H])c2c([H])c(N([H])C(=O)c3c([H])c([H])c(C([H])([H])N4C([H])([H])C([H])([H])N(C([H])([H])[H])C([H])([H])C4([H])[H])c(F)c3[H])c([H])c([H])c2C([H])([H])[H])nc(-c2c([H])nc([H])c([H])c2[H])c1[H]


 40 44  0  0  0  0  0  0  0  0999 V2000
  -16.6601   16.6048  -22.8675 C   0  0  0  0  0  0  0  0  0  0  0  0
  -16.0129   17.1617  -23.9386 C   0  0  0  0  0  0  0  0  0  0  0  0
  -15.2794   16.4052  -24.8377 C   0  0  0  0  0  0  0  0  0  0  0  0
  -15.1856   15.0505  -24.6666 C   0  0  0  0  0  0  0  0  0  0  0  0
  -14.4041   14.2452  -25.6256 C   0  0  0  0  0  0  0  0  0  0  0  0
  -15.8281   14.4153  -23.5836 C   0  0  0  0  0  0  0  0  0  0  0  0
  -16.5421   15.2090  -22.7220 C   0  0  0  0  0  0  0  0  0  0  0  0
  -18.8232   17.4584  -21.8603 C   0  0  0  0  0  0  0  0  0  0  0  0
  -19.5737   16.9261  -22.7053 O   0  0  0  0  0  0  0  0  0  0  0  0
  -17.4423   17.3164  -21.9199 N   0  0  0  0  0  0  0  0  0  0  0  0
  -16.8871   17.8154  -21.1579 H   0  0  0  0  0  0  0  0  0  0  0  0
  -20.8215   19.7161  -18.8121 C   0  0  0  0  0  0  0  0  0  0  0  0
  -19.4770   19.8346  -19.0370 C   0  0  0  0  0  0  0  0  0  0  0  0
  -18.8005   19.1201  -20.0098 C   0  0  0  0  0  0  0  0  0  0  0  0
  -19.4845   18.2378  -20.8092 C   0  0  0  0  0  0  0  0  0  0  0  0
  -20.8545   18.0917  -20.6093 C   0  0  0  0  0  0  0  0  0  0  0  0
  -21.4997   18.8072  -19.6433 C   0  0  0  0  0  0  0  0  0  0  0  0
  -22.8362   18.6770  -19.4342 F   0  0  0  0  0  0  0  0  0  0  0  0
  -21.5959   20.4845  -17.8077 C   0  0  0  0  0  0  0  0  0  0  0  0
  -19.9737   18.5092  -12.9691 C   0  0  0  0  0  0  0  0  0  0  0  0
  -20.8091   18.7719  -14.1335 N   0  0  0  0  0  0  0  0  0  0  0  0
  -20.0729   18.2888  -15.2863 C   0  0  0  0  0  0  0  0  0  0  0  0
  -20.6904   18.6373  -16.6008 C   0  0  0  0  0  0  0  0  0  0  0  0
  -21.5243   19.8670  -16.5007 N   0  0  0  0  0  0  0  0  0  0  0  0
  -20.7939   20.7503  -15.5687 C   0  0  0  0  0  0  0  0  0  0  0  0
  -21.0020   20.2136  -14.1949 C   0  0  0  0  0  0  0  0  0  0  0  0
  -15.6604   13.0295  -23.5033 N   0  0  0  0  0  0  0  0  0  0  0  0
  -15.2263   12.5323  -24.3413 H   0  0  0  0  0  0  0  0  0  0  0  0
  -16.0012   12.1809  -22.4222 C   0  0  0  0  0  0  0  0  0  0  0  0
  -15.4409   11.0198  -22.1070 N   0  0  0  0  0  0  0  0  0  0  0  0
  -15.7635   10.2257  -21.0921 C   0  0  0  0  0  0  0  0  0  0  0  0
  -16.8063   10.6523  -20.2600 C   0  0  0  0  0  0  0  0  0  0  0  0
  -17.4312   11.8464  -20.5288 C   0  0  0  0  0  0  0  0  0  0  0  0
  -17.0202   12.5631  -21.5807 N   0  0  0  0  0  0  0  0  0  0  0  0
  -18.5299   12.3257  -19.6820 C   0  0  0  0  0  0  0  0  0  0  0  0
  -19.4178   13.2935  -20.0489 C   0  0  0  0  0  0  0  0  0  0  0  0
  -20.4408   13.6966  -19.1727 C   0  0  0  0  0  0  0  0  0  0  0  0
  -20.5566   13.1172  -17.9326 C   0  0  0  0  0  0  0  0  0  0  0  0
  -19.6711   12.1669  -17.5936 N   0  0  0  0  0  0  0  0  0  0  0  0
  -18.6872   11.7692  -18.4187 C   0  0  0  0  0  0  0  0  0  0  0  0
 20 21  1  0  0  0
 21 22  1  0  0  0
 22 23  1  0  0  0
 23 24  1  0  0  0
 24 19  1  0  0  0
 19 12  1  0  0  0
 12 13  2  0  0  0
 13 14  1  0  0  0
 14 15  2  0  0  0
 15 16  1  0  0  0
 16 17  2  0  0  0
 17 18  1  0  0  0
 15  8  1  0  0  0
  8  9  2  0  0  0
  8 10  1  0  0  0
 10  1  1  0  0  0
  1  2  2  0  0  0
  2  3  1  0  0  0
  3  4  2  0  0  0
  4  5  1  0  0  0
  4  6  1  0  0  0
  6 27  1  0  0  0
 27 29  1  0  0  0
 29 30  2  0  0  0
 30 31  1  0  0  0
 31 32  2  0  0  0
 32 33  1  0  0  0
 33 34  2  0  0  0
 33 35  1  0  0  0
 35 36  2  0  0  0
 36 37  1  0  0  0
 37 38  2  0  0  0
 38 39  1  0  0  0
 39 40  2  0  0  0
  6  7  2  0  0  0
 24 25  1  0  0  0
 25 26  1  0  0  0
 26 21  1  0  0  0
 17 12  1  0  0  0
  7  1  1  0  0  0
 34 29  1  0  0  0
 40 35  1  0  0  0
 10 11  1  0  0  0
 27 28  1  0  0  0
M  END
> <minimizedAffinity>
-7.89348

> <CNNscore>
0.2066326290

> <CNNaffinity>
7.1955490112

> <CNN_VS>
1.4868352413

> <CNNaffinity_variance>
0.0643476844

$$$$
[H]c1nc(N([H])c2c([H])c(N([H])C(=O)c3c([H])c([H])c(C([H])([H])N4C([H])([H])C([H])([H])N(C([H])([H])[H])C([H])([H])C4([H])[H])c(F)c3[H])c([H])c([H])c2C([H])([H])[H])nc(-c2c([H])nc([H])c([H])c2[H])c1[H]


 40 44  0  0  0  0  0  0  0  0999 V2000
  -17.1360   13.1524  -21.7446 C   0  0  0  0  0  0  0  0  0  0  0  0
  -16.4827   12.4956  -22.7536 C   0  0  0  0  0  0  0  0  0  0  0  0
  -15.8554   13.1657  -23.7909 C   0  0  0  0  0  0  0  0  0  0  0  0
  -15.8783   14.5337  -23.8271 C   0  0  0  0  0  0  0  0  0  0  0  0
  -15.2089   15.2467  -24.9328 C   0  0  0  0  0  0  0  0  0  0  0  0
  -16.5344   15.2697  -22.8188 C   0  0  0  0  0  0  0  0  0  0  0  0
  -17.1399   14.5590  -21.8136 C   0  0  0  0  0  0  0  0  0  0  0  0
  -17.2902   11.5646  -19.7755 C   0  0  0  0  0  0  0  0  0  0  0  0
  -16.1308   11.1130  -19.8874 O   0  0  0  0  0  0  0  0  0  0  0  0
  -17.7829   12.5309  -20.6439 N   0  0  0  0  0  0  0  0  0  0  0  0
  -18.7871   12.8467  -20.4717 H   0  0  0  0  0  0  0  0  0  0  0  0
  -19.6673   10.0256  -16.5564 C   0  0  0  0  0  0  0  0  0  0  0  0
  -18.7155    9.2665  -17.1809 C   0  0  0  0  0  0  0  0  0  0  0  0
  -17.9331    9.7304  -18.2235 C   0  0  0  0  0  0  0  0  0  0  0  0
  -18.0943   11.0155  -18.6793 C   0  0  0  0  0  0  0  0  0  0  0  0
  -19.0534   11.8175  -18.0669 C   0  0  0  0  0  0  0  0  0  0  0  0
  -19.8133   11.3375  -17.0404 C   0  0  0  0  0  0  0  0  0  0  0  0
  -20.7541   12.1062  -16.4313 F   0  0  0  0  0  0  0  0  0  0  0  0
  -20.5043    9.5855  -15.4140 C   0  0  0  0  0  0  0  0  0  0  0  0
  -18.6635    8.5450  -10.3669 C   0  0  0  0  0  0  0  0  0  0  0  0
  -18.6634    8.8368  -11.7943 N   0  0  0  0  0  0  0  0  0  0  0  0
  -19.3671   10.0947  -11.9578 C   0  0  0  0  0  0  0  0  0  0  0  0
  -19.6319   10.4714  -13.3786 C   0  0  0  0  0  0  0  0  0  0  0  0
  -19.6944    9.2703  -14.2568 N   0  0  0  0  0  0  0  0  0  0  0  0
  -20.3646    8.2353  -13.4431 C   0  0  0  0  0  0  0  0  0  0  0  0
  -19.3729    7.7450  -12.4457 C   0  0  0  0  0  0  0  0  0  0  0  0
  -16.4995   16.6605  -22.9589 N   0  0  0  0  0  0  0  0  0  0  0  0
  -15.7092   17.0817  -23.5386 H   0  0  0  0  0  0  0  0  0  0  0  0
  -17.4044   17.6048  -22.4163 C   0  0  0  0  0  0  0  0  0  0  0  0
  -17.2896   18.2553  -21.2652 N   0  0  0  0  0  0  0  0  0  0  0  0
  -18.1410   19.1405  -20.7587 C   0  0  0  0  0  0  0  0  0  0  0  0
  -19.2856   19.4236  -21.5146 C   0  0  0  0  0  0  0  0  0  0  0  0
  -19.4679   18.7852  -22.7178 C   0  0  0  0  0  0  0  0  0  0  0  0
  -18.5416   17.9114  -23.1273 N   0  0  0  0  0  0  0  0  0  0  0  0
  -20.6558   19.0527  -23.5370 C   0  0  0  0  0  0  0  0  0  0  0  0
  -21.6186   18.1295  -23.8202 C   0  0  0  0  0  0  0  0  0  0  0  0
  -22.7251   18.4700  -24.6181 C   0  0  0  0  0  0  0  0  0  0  0  0
  -22.8478   19.7416  -25.1229 C   0  0  0  0  0  0  0  0  0  0  0  0
  -21.8877   20.6332  -24.8307 N   0  0  0  0  0  0  0  0  0  0  0  0
  -20.8234   20.3251  -24.0695 C   0  0  0  0  0  0  0  0  0  0  0  0
 20 21  1  0  0  0
 21 22  1  0  0  0
 22 23  1  0  0  0
 23 24  1  0  0  0
 24 19  1  0  0  0
 19 12  1  0  0  0
 12 13  2  0  0  0
 13 14  1  0  0  0
 14 15  2  0  0  0
 15 16  1  0  0  0
 16 17  2  0  0  0
 17 18  1  0  0  0
 15  8  1  0  0  0
  8  9  2  0  0  0
  8 10  1  0  0  0
 10  1  1  0  0  0
  1  2  2  0  0  0
  2  3  1  0  0  0
  3  4  2  0  0  0
  4  5  1  0  0  0
  4  6  1  0  0  0
  6 27  1  0  0  0
 27 29  1  0  0  0
 29 30  2  0  0  0
 30 31  1  0  0  0
 31 32  2  0  0  0
 32 33  1  0  0  0
 33 34  2  0  0  0
 33 35  1  0  0  0
 35 36  2  0  0  0
 36 37  1  0  0  0
 37 38  2  0  0  0
 38 39  1  0  0  0
 39 40  2  0  0  0
  6  7  2  0  0  0
 24 25  1  0  0  0
 25 26  1  0  0  0
 26 21  1  0  0  0
 17 12  1  0  0  0
  7  1  1  0  0  0
 34 29  1  0  0  0
 40 35  1  0  0  0
 10 11  1  0  0  0
 27 28  1  0  0  0
M  END
> <minimizedAffinity>
-9.39815

> <CNNscore>
0.1892472953

> <CNNaffinity>
6.9605293274

> <CNN_VS>
1.3172613382

> <CNNaffinity_variance>
0.1214256510

$$$$
[H]c1nc(N([H])c2c([H])c(N([H])C(=O)c3c([H])c([H])c(C([H])([H])N4C([H])([H])C([H])([H])N(C([H])([H])[H])C([H])([H])C4([H])[H])c(F)c3[H])c([H])c([H])c2C([H])([H])[H])nc(-c2c([H])nc([H])c([H])c2[H])c1[H]


 40 44  0  0  0  0  0  0  0  0999 V2000
  -17.0885   16.5110  -21.3480 C   0  0  0  0  0  0  0  0  0  0  0  0
  -16.3394   17.0560  -22.3570 C   0  0  0  0  0  0  0  0  0  0  0  0
  -15.8095   16.2919  -23.3837 C   0  0  0  0  0  0  0  0  0  0  0  0
  -16.0311   14.9416  -23.4085 C   0  0  0  0  0  0  0  0  0  0  0  0
  -15.4665   14.1284  -24.5035 C   0  0  0  0  0  0  0  0  0  0  0  0
  -16.7937   14.3184  -22.3990 C   0  0  0  0  0  0  0  0  0  0  0  0
  -17.2963   15.1192  -21.4049 C   0  0  0  0  0  0  0  0  0  0  0  0
  -18.9685   17.7329  -20.1671 C   0  0  0  0  0  0  0  0  0  0  0  0
  -19.8113   17.5742  -21.0754 O   0  0  0  0  0  0  0  0  0  0  0  0
  -17.6757   17.2358  -20.2775 N   0  0  0  0  0  0  0  0  0  0  0  0
  -17.0275   17.4298  -19.4528 H   0  0  0  0  0  0  0  0  0  0  0  0
  -20.2757   19.9554  -16.7416 C   0  0  0  0  0  0  0  0  0  0  0  0
  -20.2626   18.5872  -16.7553 C   0  0  0  0  0  0  0  0  0  0  0  0
  -19.8497   17.8392  -17.8436 C   0  0  0  0  0  0  0  0  0  0  0  0
  -19.4238   18.4718  -18.9854 C   0  0  0  0  0  0  0  0  0  0  0  0
  -19.4227   19.8639  -19.0073 C   0  0  0  0  0  0  0  0  0  0  0  0
  -19.8349   20.5799  -17.9216 C   0  0  0  0  0  0  0  0  0  0  0  0
  -19.8406   21.9389  -17.9256 F   0  0  0  0  0  0  0  0  0  0  0  0
  -20.6750   20.7996  -15.5897 C   0  0  0  0  0  0  0  0  0  0  0  0
  -26.0402   19.7468  -15.3640 C   0  0  0  0  0  0  0  0  0  0  0  0
  -24.7901   20.4912  -15.4404 N   0  0  0  0  0  0  0  0  0  0  0  0
  -24.1120   20.0358  -16.6392 C   0  0  0  0  0  0  0  0  0  0  0  0
  -22.7197   20.5540  -16.7929 C   0  0  0  0  0  0  0  0  0  0  0  0
  -22.1149   20.8870  -15.4734 N   0  0  0  0  0  0  0  0  0  0  0  0
  -22.6074   19.8428  -14.5517 C   0  0  0  0  0  0  0  0  0  0  0  0
  -24.0301   20.1589  -14.2439 C   0  0  0  0  0  0  0  0  0  0  0  0
  -16.9515   12.9345  -22.5211 N   0  0  0  0  0  0  0  0  0  0  0  0
  -17.1538   12.5413  -23.4920 H   0  0  0  0  0  0  0  0  0  0  0  0
  -16.8734   11.9636  -21.4933 C   0  0  0  0  0  0  0  0  0  0  0  0
  -16.0958   10.8885  -21.4635 N   0  0  0  0  0  0  0  0  0  0  0  0
  -16.0254    9.9792  -20.4976 C   0  0  0  0  0  0  0  0  0  0  0  0
  -16.8581   10.1679  -19.3873 C   0  0  0  0  0  0  0  0  0  0  0  0
  -17.6895   11.2616  -19.3525 C   0  0  0  0  0  0  0  0  0  0  0  0
  -17.6747   12.1119  -20.3849 N   0  0  0  0  0  0  0  0  0  0  0  0
  -18.5788   11.4921  -18.2080 C   0  0  0  0  0  0  0  0  0  0  0  0
  -19.2208   10.5040  -17.5216 C   0  0  0  0  0  0  0  0  0  0  0  0
  -20.0596   10.8139  -16.4367 C   0  0  0  0  0  0  0  0  0  0  0  0
  -20.2420   12.1210  -16.0556 C   0  0  0  0  0  0  0  0  0  0  0  0
  -19.5998   13.0764  -16.7462 N   0  0  0  0  0  0  0  0  0  0  0  0
  -18.7941   12.7982  -17.7857 C   0  0  0  0  0  0  0  0  0  0  0  0
 20 21  1  0  0  0
 21 22  1  0  0  0
 22 23  1  0  0  0
 23 24  1  0  0  0
 24 19  1  0  0  0
 19 12  1  0  0  0
 12 13  2  0  0  0
 13 14  1  0  0  0
 14 15  2  0  0  0
 15 16  1  0  0  0
 16 17  2  0  0  0
 17 18  1  0  0  0
 15  8  1  0  0  0
  8  9  2  0  0  0
  8 10  1  0  0  0
 10  1  1  0  0  0
  1  2  2  0  0  0
  2  3  1  0  0  0
  3  4  2  0  0  0
  4  5  1  0  0  0
  4  6  1  0  0  0
  6 27  1  0  0  0
 27 29  1  0  0  0
 29 30  2  0  0  0
 30 31  1  0  0  0
 31 32  2  0  0  0
 32 33  1  0  0  0
 33 34  2  0  0  0
 33 35  1  0  0  0
 35 36  2  0  0  0
 36 37  1  0  0  0
 37 38  2  0  0  0
 38 39  1  0  0  0
 39 40  2  0  0  0
  6  7  2  0  0  0
 24 25  1  0  0  0
 25 26  1  0  0  0
 26 21  1  0  0  0
 17 12  1  0  0  0
  7  1  1  0  0  0
 34 29  1  0  0  0
 40 35  1  0  0  0
 10 11  1  0  0  0
 27 28  1  0  0  0
M  END
> <minimizedAffinity>
-7.95537

> <CNNscore>
0.1757523417

> <CNNaffinity>
6.9474096298

> <CNN_VS>
1.2210235596

> <CNNaffinity_variance>
0.0303870700

$$$$
[H]c1nc(N([H])c2c([H])c(N([H])C(=O)c3c([H])c([H])c(C([H])([H])N4C([H])([H])C([H])([H])N(C([H])([H])[H])C([H])([H])C4([H])[H])c(F)c3[H])c([H])c([H])c2C([H])([H])[H])nc(-c2c([H])nc([H])c([H])c2[H])c1[H]


 40 44  0  0  0  0  0  0  0  0999 V2000
  -18.6260   13.7924  -20.6191 C   0  0  0  0  0  0  0  0  0  0  0  0
  -17.8081   13.2576  -21.5790 C   0  0  0  0  0  0  0  0  0  0  0  0
  -17.1782   12.0343  -21.4197 C   0  0  0  0  0  0  0  0  0  0  0  0
  -17.3670   11.3188  -20.2683 C   0  0  0  0  0  0  0  0  0  0  0  0
  -16.6957   10.0150  -20.0998 C   0  0  0  0  0  0  0  0  0  0  0  0
  -18.1966   11.8137  -19.2408 C   0  0  0  0  0  0  0  0  0  0  0  0
  -18.7975   13.0296  -19.4477 C   0  0  0  0  0  0  0  0  0  0  0  0
  -20.6419   15.3156  -20.4235 C   0  0  0  0  0  0  0  0  0  0  0  0
  -21.4205   14.4386  -19.9932 O   0  0  0  0  0  0  0  0  0  0  0  0
  -19.3158   15.0290  -20.7238 N   0  0  0  0  0  0  0  0  0  0  0  0
  -18.7331   15.8427  -21.0930 H   0  0  0  0  0  0  0  0  0  0  0  0
  -22.3667   19.2080  -20.9292 C   0  0  0  0  0  0  0  0  0  0  0  0
  -21.0146   19.0224  -20.8302 C   0  0  0  0  0  0  0  0  0  0  0  0
  -20.4252   17.7816  -20.6642 C   0  0  0  0  0  0  0  0  0  0  0  0
  -21.2095   16.6569  -20.5919 C   0  0  0  0  0  0  0  0  0  0  0  0
  -22.5900   16.8076  -20.6896 C   0  0  0  0  0  0  0  0  0  0  0  0
  -23.1482   18.0418  -20.8528 C   0  0  0  0  0  0  0  0  0  0  0  0
  -24.4936   18.2073  -20.9497 F   0  0  0  0  0  0  0  0  0  0  0  0
  -23.0419   20.5109  -21.1426 C   0  0  0  0  0  0  0  0  0  0  0  0
  -22.0347   20.9148  -26.5061 C   0  0  0  0  0  0  0  0  0  0  0  0
  -22.3357   21.3005  -25.1338 N   0  0  0  0  0  0  0  0  0  0  0  0
  -21.2288   20.8318  -24.3218 C   0  0  0  0  0  0  0  0  0  0  0  0
  -21.4422   20.9728  -22.8503 C   0  0  0  0  0  0  0  0  0  0  0  0
  -22.8916   20.9660  -22.5082 N   0  0  0  0  0  0  0  0  0  0  0  0
  -23.4987   19.9863  -23.4324 C   0  0  0  0  0  0  0  0  0  0  0  0
  -23.5773   20.6316  -24.7727 C   0  0  0  0  0  0  0  0  0  0  0  0
  -18.3130   11.0029  -18.1077 N   0  0  0  0  0  0  0  0  0  0  0  0
  -17.4937   10.3630  -17.8685 H   0  0  0  0  0  0  0  0  0  0  0  0
  -19.4081   10.9225  -17.2136 C   0  0  0  0  0  0  0  0  0  0  0  0
  -20.1801   11.9196  -16.7999 N   0  0  0  0  0  0  0  0  0  0  0  0
  -21.2066   11.8407  -15.9604 C   0  0  0  0  0  0  0  0  0  0  0  0
  -21.5142   10.5722  -15.4524 C   0  0  0  0  0  0  0  0  0  0  0  0
  -20.7548    9.4942  -15.8394 C   0  0  0  0  0  0  0  0  0  0  0  0
  -19.7435    9.6946  -16.6917 N   0  0  0  0  0  0  0  0  0  0  0  0
  -21.0438    8.1498  -15.3266 C   0  0  0  0  0  0  0  0  0  0  0  0
  -20.0939    7.2105  -15.0528 C   0  0  0  0  0  0  0  0  0  0  0  0
  -20.4591    5.9429  -14.5663 C   0  0  0  0  0  0  0  0  0  0  0  0
  -21.7823    5.6364  -14.3612 C   0  0  0  0  0  0  0  0  0  0  0  0
  -22.6994    6.5770  -14.6379 N   0  0  0  0  0  0  0  0  0  0  0  0
  -22.3682    7.7939  -15.1033 C   0  0  0  0  0  0  0  0  0  0  0  0
 20 21  1  0  0  0
 21 22  1  0  0  0
 22 23  1  0  0  0
 23 24  1  0  0  0
 24 19  1  0  0  0
 19 12  1  0  0  0
 12 13  2  0  0  0
 13 14  1  0  0  0
 14 15  2  0  0  0
 15 16  1  0  0  0
 16 17  2  0  0  0
 17 18  1  0  0  0
 15  8  1  0  0  0
  8  9  2  0  0  0
  8 10  1  0  0  0
 10  1  1  0  0  0
  1  2  2  0  0  0
  2  3  1  0  0  0
  3  4  2  0  0  0
  4  5  1  0  0  0
  4  6  1  0  0  0
  6 27  1  0  0  0
 27 29  1  0  0  0
 29 30  2  0  0  0
 30 31  1  0  0  0
 31 32  2  0  0  0
 32 33  1  0  0  0
 33 34  2  0  0  0
 33 35  1  0  0  0
 35 36  2  0  0  0
 36 37  1  0  0  0
 37 38  2  0  0  0
 38 39  1  0  0  0
 39 40  2  0  0  0
  6  7  2  0  0  0
 24 25  1  0  0  0
 25 26  1  0  0  0
 26 21  1  0  0  0
 17 12  1  0  0  0
  7  1  1  0  0  0
 34 29  1  0  0  0
 40 35  1  0  0  0
 10 11  1  0  0  0
 27 28  1  0  0  0
M  END
> <minimizedAffinity>
-8.54388

> <CNNscore>
0.1627909839

> <CNNaffinity>
6.1913843155

> <CNN_VS>
1.0079015493

> <CNNaffinity_variance>
0.1455306113

$$$$
[H]OC([H])([H])C([H])([H])N1C([H])([H])C([H])([H])N(c2nc(C([H])([H])[H])nc(N([H])c3nc([H])nc(-n4c(N([H])c5c(Cl)c([H])c([H])c([H])c5C([H])([H])[H])nc5c([H])c([H])c([H])c([H])c54)c3[H])c2[H])C([H])([H])C1([H])[H]


 44 49  0  0  0  0  0  0  0  0999 V2000
  -16.7566   10.6139  -19.3989 C   0  0  0  0  0  0  0  0  0  0  0  0
  -17.2429   11.7848  -19.9318 C   0  0  0  0  0  0  0  0  0  0  0  0
  -17.0975   12.0867  -21.2801 C   0  0  0  0  0  0  0  0  0  0  0  0
  -16.4606   11.1850  -22.0421 N   0  0  0  0  0  0  0  0  0  0  0  0
  -15.9924   10.0606  -21.5364 C   0  0  0  0  0  0  0  0  0  0  0  0
  -16.1358    9.7792  -20.2440 N   0  0  0  0  0  0  0  0  0  0  0  0
  -17.5779   13.3237  -21.8004 N   0  0  0  0  0  0  0  0  0  0  0  0
  -17.3320   13.9885  -22.9157 C   0  0  0  0  0  0  0  0  0  0  0  0
  -18.0815   15.1583  -22.9132 N   0  0  0  0  0  0  0  0  0  0  0  0
  -18.7735   15.1710  -21.7773 C   0  0  0  0  0  0  0  0  0  0  0  0
  -19.6817   16.1024  -21.2574 C   0  0  0  0  0  0  0  0  0  0  0  0
  -20.2913   15.9118  -20.0423 C   0  0  0  0  0  0  0  0  0  0  0  0
  -19.9972   14.7735  -19.3216 C   0  0  0  0  0  0  0  0  0  0  0  0
  -19.0896   13.8380  -19.8353 C   0  0  0  0  0  0  0  0  0  0  0  0
  -18.4891   14.0472  -21.0554 C   0  0  0  0  0  0  0  0  0  0  0  0
  -16.4724   13.6354  -23.9768 N   0  0  0  0  0  0  0  0  0  0  0  0
  -15.7643   12.8401  -23.7253 H   0  0  0  0  0  0  0  0  0  0  0  0
  -16.3638   14.1160  -25.2801 C   0  0  0  0  0  0  0  0  0  0  0  0
  -16.9671   13.4711  -26.3564 C   0  0  0  0  0  0  0  0  0  0  0  0
  -17.7363   12.2072  -26.1664 C   0  0  0  0  0  0  0  0  0  0  0  0
  -16.8488   14.0275  -27.6115 C   0  0  0  0  0  0  0  0  0  0  0  0
  -16.1595   15.1960  -27.8509 C   0  0  0  0  0  0  0  0  0  0  0  0
  -15.5610   15.8425  -26.8039 C   0  0  0  0  0  0  0  0  0  0  0  0
  -15.6758   15.2916  -25.5497 C   0  0  0  0  0  0  0  0  0  0  0  0
  -14.8984   16.1378  -24.2201 Cl  0  0  0  0  0  0  0  0  0  0  0  0
  -16.9117   10.3117  -17.9963 N   0  0  0  0  0  0  0  0  0  0  0  0
  -16.1054   10.0500  -17.4161 H   0  0  0  0  0  0  0  0  0  0  0  0
  -21.0271   12.7652  -16.9638 C   0  0  0  0  0  0  0  0  0  0  0  0
  -20.1825   11.5500  -16.9040 C   0  0  0  0  0  0  0  0  0  0  0  0
  -18.9622   11.4781  -17.4594 N   0  0  0  0  0  0  0  0  0  0  0  0
  -18.1981   10.3746  -17.4023 C   0  0  0  0  0  0  0  0  0  0  0  0
  -18.7190    9.2812  -16.7348 C   0  0  0  0  0  0  0  0  0  0  0  0
  -19.9663    9.3087  -16.1498 C   0  0  0  0  0  0  0  0  0  0  0  0
  -20.6395   10.4795  -16.2764 N   0  0  0  0  0  0  0  0  0  0  0  0
  -20.5270    8.1977  -15.4658 N   0  0  0  0  0  0  0  0  0  0  0  0
  -20.6386    6.9444  -16.1111 C   0  0  0  0  0  0  0  0  0  0  0  0
  -21.6662    6.0135  -15.5459 C   0  0  0  0  0  0  0  0  0  0  0  0
  -22.0001    6.2628  -14.1744 N   0  0  0  0  0  0  0  0  0  0  0  0
  -21.0172    7.0229  -13.4633 C   0  0  0  0  0  0  0  0  0  0  0  0
  -20.9751    8.3926  -14.1080 C   0  0  0  0  0  0  0  0  0  0  0  0
  -22.4932    5.0990  -13.5174 C   0  0  0  0  0  0  0  0  0  0  0  0
  -23.2879    5.3807  -12.2718 C   0  0  0  0  0  0  0  0  0  0  0  0
  -24.2553    6.3485  -12.4741 O   0  0  0  0  0  0  0  0  0  0  0  0
  -24.6492    6.3329  -13.3758 H   0  0  0  0  0  0  0  0  0  0  0  0
 28 29  1  0  0  0
 29 30  2  0  0  0
 30 31  1  0  0  0
 31 26  1  0  0  0
 26  1  1  0  0  0
  1  2  2  0  0  0
  2  3  1  0  0  0
  3  4  2  0  0  0
  4  5  1  0  0  0
  5  6  2  0  0  0
  3  7  1  0  0  0
  7  8  1  0  0  0
  8 16  1  0  0  0
 16 18  1  0  0  0
 18 19  2  0  0  0
 19 20  1  0  0  0
 19 21  1  0  0  0
 21 22  2  0  0  0
 22 23  1  0  0  0
 23 24  2  0  0  0
 24 25  1  0  0  0
  8  9  2  0  0  0
  9 10  1  0  0  0
 10 11  2  0  0  0
 11 12  1  0  0  0
 12 13  2  0  0  0
 13 14  1  0  0  0
 14 15  2  0  0  0
 31 32  2  0  0  0
 32 33  1  0  0  0
 33 34  2  0  0  0
 33 35  1  0  0  0
 35 36  1  0  0  0
 36 37  1  0  0  0
 37 38  1  0  0  0
 38 41  1  0  0  0
 41 42  1  0  0  0
 42 43  1  0  0  0
 38 39  1  0  0  0
 39 40  1  0  0  0
 34 29  1  0  0  0
 40 35  1  0  0  0
  6  1  1  0  0  0
 15  7  1  0  0  0
 24 18  1  0  0  0
 15 10  1  0  0  0
 26 27  1  0  0  0
 16 17  1  0  0  0
 43 44  1  0  0  0
M  END
> <minimizedAffinity>
-9.16984

> <CNNscore>
0.8615637422

> <CNNaffinity>
8.3374176025

> <CNN_VS>
7.1832165718

> <CNNaffinity_variance>
0.0711946785

$$$$
[H]OC([H])([H])C([H])([H])N1C([H])([H])C([H])([H])N(c2nc(C([H])([H])[H])nc(N([H])c3nc([H])nc(-n4c(N([H])c5c(Cl)c([H])c([H])c([H])c5C([H])([H])[H])nc5c([H])c([H])c([H])c([H])c54)c3[H])c2[H])C([H])([H])C1([H])[H]


 44 49  0  0  0  0  0  0  0  0999 V2000
  -17.2177   11.7919  -21.1867 C   0  0  0  0  0  0  0  0  0  0  0  0
  -18.0961   12.1596  -20.1942 C   0  0  0  0  0  0  0  0  0  0  0  0
  -17.9475   11.7110  -18.8877 C   0  0  0  0  0  0  0  0  0  0  0  0
  -16.9083   10.9017  -18.6348 N   0  0  0  0  0  0  0  0  0  0  0  0
  -16.0629   10.5459  -19.5825 C   0  0  0  0  0  0  0  0  0  0  0  0
  -16.2124   10.9799  -20.8312 N   0  0  0  0  0  0  0  0  0  0  0  0
  -18.8927   12.0770  -17.8854 N   0  0  0  0  0  0  0  0  0  0  0  0
  -19.4043   13.2359  -17.5094 C   0  0  0  0  0  0  0  0  0  0  0  0
  -20.2933   13.0143  -16.4651 N   0  0  0  0  0  0  0  0  0  0  0  0
  -20.2969   11.7047  -16.2325 C   0  0  0  0  0  0  0  0  0  0  0  0
  -21.0016   10.9323  -15.3001 C   0  0  0  0  0  0  0  0  0  0  0  0
  -20.8503    9.5696  -15.2335 C   0  0  0  0  0  0  0  0  0  0  0  0
  -19.9812    8.9531  -16.1089 C   0  0  0  0  0  0  0  0  0  0  0  0
  -19.2728    9.7193  -17.0437 C   0  0  0  0  0  0  0  0  0  0  0  0
  -19.4386   11.0843  -17.0947 C   0  0  0  0  0  0  0  0  0  0  0  0
  -19.1458   14.5204  -18.0318 N   0  0  0  0  0  0  0  0  0  0  0  0
  -18.0884   14.7066  -18.2427 H   0  0  0  0  0  0  0  0  0  0  0  0
  -19.9911   15.5887  -18.3246 C   0  0  0  0  0  0  0  0  0  0  0  0
  -19.8976   16.8071  -17.6576 C   0  0  0  0  0  0  0  0  0  0  0  0
  -18.9015   17.0156  -16.5669 C   0  0  0  0  0  0  0  0  0  0  0  0
  -20.7420   17.8308  -18.0290 C   0  0  0  0  0  0  0  0  0  0  0  0
  -21.6767   17.7039  -19.0329 C   0  0  0  0  0  0  0  0  0  0  0  0
  -21.7814   16.5129  -19.6986 C   0  0  0  0  0  0  0  0  0  0  0  0
  -20.9415   15.4883  -19.3319 C   0  0  0  0  0  0  0  0  0  0  0  0
  -21.0940   13.9675  -20.1992 Cl  0  0  0  0  0  0  0  0  0  0  0  0
  -17.3829   12.2624  -22.5409 N   0  0  0  0  0  0  0  0  0  0  0  0
  -17.8891   11.7050  -23.2397 H   0  0  0  0  0  0  0  0  0  0  0  0
  -13.9826   14.9163  -24.8682 C   0  0  0  0  0  0  0  0  0  0  0  0
  -15.2053   14.7987  -24.0407 C   0  0  0  0  0  0  0  0  0  0  0  0
  -15.7297   13.6189  -23.6721 N   0  0  0  0  0  0  0  0  0  0  0  0
  -16.8383   13.5158  -22.9204 C   0  0  0  0  0  0  0  0  0  0  0  0
  -17.4430   14.6947  -22.5242 C   0  0  0  0  0  0  0  0  0  0  0  0
  -16.9411   15.9280  -22.8785 C   0  0  0  0  0  0  0  0  0  0  0  0
  -15.8182   15.8995  -23.6388 N   0  0  0  0  0  0  0  0  0  0  0  0
  -17.5473   17.1525  -22.4914 N   0  0  0  0  0  0  0  0  0  0  0  0
  -18.4947   17.7779  -23.3346 C   0  0  0  0  0  0  0  0  0  0  0  0
  -18.6829   19.2478  -23.1200 C   0  0  0  0  0  0  0  0  0  0  0  0
  -18.3209   19.7060  -21.8109 N   0  0  0  0  0  0  0  0  0  0  0  0
  -18.2782   18.6719  -20.8218 C   0  0  0  0  0  0  0  0  0  0  0  0
  -17.1641   17.7287  -21.2251 C   0  0  0  0  0  0  0  0  0  0  0  0
  -19.0083   20.8990  -21.4459 C   0  0  0  0  0  0  0  0  0  0  0  0
  -19.5558   20.8946  -20.0450 C   0  0  0  0  0  0  0  0  0  0  0  0
  -20.9008   21.2154  -20.0062 O   0  0  0  0  0  0  0  0  0  0  0  0
  -21.4075   20.8949  -20.7866 H   0  0  0  0  0  0  0  0  0  0  0  0
 28 29  1  0  0  0
 29 30  2  0  0  0
 30 31  1  0  0  0
 31 26  1  0  0  0
 26  1  1  0  0  0
  1  2  2  0  0  0
  2  3  1  0  0  0
  3  4  2  0  0  0
  4  5  1  0  0  0
  5  6  2  0  0  0
  3  7  1  0  0  0
  7  8  1  0  0  0
  8 16  1  0  0  0
 16 18  1  0  0  0
 18 19  2  0  0  0
 19 20  1  0  0  0
 19 21  1  0  0  0
 21 22  2  0  0  0
 22 23  1  0  0  0
 23 24  2  0  0  0
 24 25  1  0  0  0
  8  9  2  0  0  0
  9 10  1  0  0  0
 10 11  2  0  0  0
 11 12  1  0  0  0
 12 13  2  0  0  0
 13 14  1  0  0  0
 14 15  2  0  0  0
 31 32  2  0  0  0
 32 33  1  0  0  0
 33 34  2  0  0  0
 33 35  1  0  0  0
 35 36  1  0  0  0
 36 37  1  0  0  0
 37 38  1  0  0  0
 38 41  1  0  0  0
 41 42  1  0  0  0
 42 43  1  0  0  0
 38 39  1  0  0  0
 39 40  1  0  0  0
 34 29  1  0  0  0
 40 35  1  0  0  0
  6  1  1  0  0  0
 15  7  1  0  0  0
 24 18  1  0  0  0
 15 10  1  0  0  0
 26 27  1  0  0  0
 16 17  1  0  0  0
 43 44  1  0  0  0
M  END
> <minimizedAffinity>
-8.88927

> <CNNscore>
0.5657494664

> <CNNaffinity>
8.0233392715

> <CNN_VS>
4.5391998291

> <CNNaffinity_variance>
0.0571028292

$$$$
[H]OC([H])([H])C([H])([H])N1C([H])([H])C([H])([H])N(c2nc(C([H])([H])[H])nc(N([H])c3nc([H])nc(-n4c(N([H])c5c(Cl)c([H])c([H])c([H])c5C([H])([H])[H])nc5c([H])c([H])c([H])c([H])c54)c3[H])c2[H])C([H])([H])C1([H])[H]


 44 49  0  0  0  0  0  0  0  0999 V2000
  -17.0610   11.8188  -21.1577 C   0  0  0  0  0  0  0  0  0  0  0  0
  -18.0629   12.4113  -20.4251 C   0  0  0  0  0  0  0  0  0  0  0  0
  -18.1988   12.1848  -19.0611 C   0  0  0  0  0  0  0  0  0  0  0  0
  -17.3090   11.3612  -18.4876 N   0  0  0  0  0  0  0  0  0  0  0  0
  -16.3463   10.7904  -19.1852 C   0  0  0  0  0  0  0  0  0  0  0  0
  -16.2232   11.0126  -20.4911 N   0  0  0  0  0  0  0  0  0  0  0  0
  -19.2681   12.7820  -18.3317 N   0  0  0  0  0  0  0  0  0  0  0  0
  -19.8049   12.5295  -17.1509 C   0  0  0  0  0  0  0  0  0  0  0  0
  -20.8388   13.4304  -16.9282 N   0  0  0  0  0  0  0  0  0  0  0  0
  -20.9016   14.2182  -17.9980 C   0  0  0  0  0  0  0  0  0  0  0  0
  -21.7483   15.2899  -18.3097 C   0  0  0  0  0  0  0  0  0  0  0  0
  -21.6351   15.9757  -19.4934 C   0  0  0  0  0  0  0  0  0  0  0  0
  -20.6618   15.5942  -20.3929 C   0  0  0  0  0  0  0  0  0  0  0  0
  -19.8118   14.5231  -20.0879 C   0  0  0  0  0  0  0  0  0  0  0  0
  -19.9412   13.8484  -18.8958 C   0  0  0  0  0  0  0  0  0  0  0  0
  -19.4439   11.5362  -16.2168 N   0  0  0  0  0  0  0  0  0  0  0  0
  -18.4354   11.6583  -15.8101 H   0  0  0  0  0  0  0  0  0  0  0  0
  -20.1374   10.4333  -15.7228 C   0  0  0  0  0  0  0  0  0  0  0  0
  -19.8886    9.1415  -16.1782 C   0  0  0  0  0  0  0  0  0  0  0  0
  -18.8828    8.8807  -17.2486 C   0  0  0  0  0  0  0  0  0  0  0  0
  -20.5864    8.0955  -15.6144 C   0  0  0  0  0  0  0  0  0  0  0  0
  -21.5213    8.2698  -14.6176 C   0  0  0  0  0  0  0  0  0  0  0  0
  -21.7775    9.5332  -14.1585 C   0  0  0  0  0  0  0  0  0  0  0  0
  -21.0842   10.5801  -14.7177 C   0  0  0  0  0  0  0  0  0  0  0  0
  -21.4299   12.1938  -14.1139 Cl  0  0  0  0  0  0  0  0  0  0  0  0
  -16.9305   12.0598  -22.5746 N   0  0  0  0  0  0  0  0  0  0  0  0
  -17.1795   11.3383  -23.2621 H   0  0  0  0  0  0  0  0  0  0  0  0
  -13.8118   14.7172  -25.2642 C   0  0  0  0  0  0  0  0  0  0  0  0
  -14.9525   14.5976  -24.3271 C   0  0  0  0  0  0  0  0  0  0  0  0
  -15.4156   13.4179  -23.8836 N   0  0  0  0  0  0  0  0  0  0  0  0
  -16.4498   13.3131  -23.0325 C   0  0  0  0  0  0  0  0  0  0  0  0
  -17.0422   14.4900  -22.6126 C   0  0  0  0  0  0  0  0  0  0  0  0
  -16.6013   15.7231  -23.0411 C   0  0  0  0  0  0  0  0  0  0  0  0
  -15.5508   15.6964  -23.8988 N   0  0  0  0  0  0  0  0  0  0  0  0
  -17.1970   16.9453  -22.6313 N   0  0  0  0  0  0  0  0  0  0  0  0
  -16.6892   17.6473  -21.5137 C   0  0  0  0  0  0  0  0  0  0  0  0
  -17.6430   18.5959  -20.8559 C   0  0  0  0  0  0  0  0  0  0  0  0
  -18.6961   19.0629  -21.7090 N   0  0  0  0  0  0  0  0  0  0  0  0
  -18.4207   18.9219  -23.1067 C   0  0  0  0  0  0  0  0  0  0  0  0
  -18.3256   17.4363  -23.3847 C   0  0  0  0  0  0  0  0  0  0  0  0
  -19.2110   20.3239  -21.2922 C   0  0  0  0  0  0  0  0  0  0  0  0
  -19.8441   20.3142  -19.9278 C   0  0  0  0  0  0  0  0  0  0  0  0
  -20.9471   19.4817  -19.8669 O   0  0  0  0  0  0  0  0  0  0  0  0
  -20.8715   18.6812  -20.4345 H   0  0  0  0  0  0  0  0  0  0  0  0
 28 29  1  0  0  0
 29 30  2  0  0  0
 30 31  1  0  0  0
 31 26  1  0  0  0
 26  1  1  0  0  0
  1  2  2  0  0  0
  2  3  1  0  0  0
  3  4  2  0  0  0
  4  5  1  0  0  0
  5  6  2  0  0  0
  3  7  1  0  0  0
  7  8  1  0  0  0
  8 16  1  0  0  0
 16 18  1  0  0  0
 18 19  2  0  0  0
 19 20  1  0  0  0
 19 21  1  0  0  0
 21 22  2  0  0  0
 22 23  1  0  0  0
 23 24  2  0  0  0
 24 25  1  0  0  0
  8  9  2  0  0  0
  9 10  1  0  0  0
 10 11  2  0  0  0
 11 12  1  0  0  0
 12 13  2  0  0  0
 13 14  1  0  0  0
 14 15  2  0  0  0
 31 32  2  0  0  0
 32 33  1  0  0  0
 33 34  2  0  0  0
 33 35  1  0  0  0
 35 36  1  0  0  0
 36 37  1  0  0  0
 37 38  1  0  0  0
 38 41  1  0  0  0
 41 42  1  0  0  0
 42 43  1  0  0  0
 38 39  1  0  0  0
 39 40  1  0  0  0
 34 29  1  0  0  0
 40 35  1  0  0  0
  6  1  1  0  0  0
 15  7  1  0  0  0
 24 18  1  0  0  0
 15 10  1  0  0  0
 26 27  1  0  0  0
 16 17  1  0  0  0
 43 44  1  0  0  0
M  END
> <minimizedAffinity>
-8.79663

> <CNNscore>
0.4646866024

> <CNNaffinity>
7.8787031174

> <CNN_VS>
3.6611278057

> <CNNaffinity_variance>
0.1260779947

$$$$
[H]OC([H])([H])C([H])([H])N1C([H])([H])C([H])([H])N(c2nc(C([H])([H])[H])nc(N([H])c3nc([H])nc(-n4c(N([H])c5c(Cl)c([H])c([H])c([H])c5C([H])([H])[H])nc5c([H])c([H])c([H])c([H])c54)c3[H])c2[H])C([H])([H])C1([H])[H]


 44 49  0  0  0  0  0  0  0  0999 V2000
  -17.6552   11.9744  -19.2023 C   0  0  0  0  0  0  0  0  0  0  0  0
  -17.9644   13.1256  -19.8884 C   0  0  0  0  0  0  0  0  0  0  0  0
  -17.9010   13.1860  -21.2750 C   0  0  0  0  0  0  0  0  0  0  0  0
  -17.5241   12.0707  -21.9178 N   0  0  0  0  0  0  0  0  0  0  0  0
  -17.2266   10.9641  -21.2651 C   0  0  0  0  0  0  0  0  0  0  0  0
  -17.2898   10.9147  -19.9371 N   0  0  0  0  0  0  0  0  0  0  0  0
  -18.1908   14.4020  -21.9600 N   0  0  0  0  0  0  0  0  0  0  0  0
  -17.7187   14.9469  -23.0674 C   0  0  0  0  0  0  0  0  0  0  0  0
  -18.3613   16.1608  -23.2773 N   0  0  0  0  0  0  0  0  0  0  0  0
  -19.2203   16.3213  -22.2746 C   0  0  0  0  0  0  0  0  0  0  0  0
  -20.1200   17.3548  -21.9833 C   0  0  0  0  0  0  0  0  0  0  0  0
  -20.9271   17.3148  -20.8736 C   0  0  0  0  0  0  0  0  0  0  0  0
  -20.8442   16.2274  -20.0295 C   0  0  0  0  0  0  0  0  0  0  0  0
  -19.9464   15.1903  -20.3144 C   0  0  0  0  0  0  0  0  0  0  0  0
  -19.1459   15.2491  -21.4320 C   0  0  0  0  0  0  0  0  0  0  0  0
  -16.7343   14.4433  -23.9431 N   0  0  0  0  0  0  0  0  0  0  0  0
  -15.9428   13.8797  -23.4402 H   0  0  0  0  0  0  0  0  0  0  0  0
  -16.5900   14.5356  -25.3259 C   0  0  0  0  0  0  0  0  0  0  0  0
  -17.1164   13.5772  -26.1876 C   0  0  0  0  0  0  0  0  0  0  0  0
  -17.8366   12.3804  -25.6638 C   0  0  0  0  0  0  0  0  0  0  0  0
  -16.9679   13.7561  -27.5459 C   0  0  0  0  0  0  0  0  0  0  0  0
  -16.3210   14.8430  -28.0919 C   0  0  0  0  0  0  0  0  0  0  0  0
  -15.7981   15.7943  -27.2587 C   0  0  0  0  0  0  0  0  0  0  0  0
  -15.9434   15.6205  -25.9029 C   0  0  0  0  0  0  0  0  0  0  0  0
  -15.2631   16.8536  -24.8516 Cl  0  0  0  0  0  0  0  0  0  0  0  0
  -17.7227   11.9237  -17.7617 N   0  0  0  0  0  0  0  0  0  0  0  0
  -16.8724   11.9728  -17.1872 H   0  0  0  0  0  0  0  0  0  0  0  0
  -21.3265    9.1698  -15.9040 C   0  0  0  0  0  0  0  0  0  0  0  0
  -20.7196   10.4825  -16.2235 C   0  0  0  0  0  0  0  0  0  0  0  0
  -19.5295   10.6107  -16.8318 N   0  0  0  0  0  0  0  0  0  0  0  0
  -18.9824   11.8031  -17.1213 C   0  0  0  0  0  0  0  0  0  0  0  0
  -19.7011   12.9295  -16.7647 C   0  0  0  0  0  0  0  0  0  0  0  0
  -20.9259   12.8467  -16.1388 C   0  0  0  0  0  0  0  0  0  0  0  0
  -21.3704   11.5875  -15.9008 N   0  0  0  0  0  0  0  0  0  0  0  0
  -21.6798   13.9874  -15.7556 N   0  0  0  0  0  0  0  0  0  0  0  0
  -21.7270   15.1261  -16.5928 C   0  0  0  0  0  0  0  0  0  0  0  0
  -22.0843   16.4134  -15.9166 C   0  0  0  0  0  0  0  0  0  0  0  0
  -22.8283   16.2571  -14.7013 N   0  0  0  0  0  0  0  0  0  0  0  0
  -23.4781   14.9878  -14.5741 C   0  0  0  0  0  0  0  0  0  0  0  0
  -22.3838   13.9438  -14.4966 C   0  0  0  0  0  0  0  0  0  0  0  0
  -23.6191   17.4029  -14.3999 C   0  0  0  0  0  0  0  0  0  0  0  0
  -23.3199   18.0283  -13.0651 C   0  0  0  0  0  0  0  0  0  0  0  0
  -22.0722   17.6717  -12.5863 O   0  0  0  0  0  0  0  0  0  0  0  0
  -21.3964   17.5512  -13.2915 H   0  0  0  0  0  0  0  0  0  0  0  0
 28 29  1  0  0  0
 29 30  2  0  0  0
 30 31  1  0  0  0
 31 26  1  0  0  0
 26  1  1  0  0  0
  1  2  2  0  0  0
  2  3  1  0  0  0
  3  4  2  0  0  0
  4  5  1  0  0  0
  5  6  2  0  0  0
  3  7  1  0  0  0
  7  8  1  0  0  0
  8 16  1  0  0  0
 16 18  1  0  0  0
 18 19  2  0  0  0
 19 20  1  0  0  0
 19 21  1  0  0  0
 21 22  2  0  0  0
 22 23  1  0  0  0
 23 24  2  0  0  0
 24 25  1  0  0  0
  8  9  2  0  0  0
  9 10  1  0  0  0
 10 11  2  0  0  0
 11 12  1  0  0  0
 12 13  2  0  0  0
 13 14  1  0  0  0
 14 15  2  0  0  0
 31 32  2  0  0  0
 32 33  1  0  0  0
 33 34  2  0  0  0
 33 35  1  0  0  0
 35 36  1  0  0  0
 36 37  1  0  0  0
 37 38  1  0  0  0
 38 41  1  0  0  0
 41 42  1  0  0  0
 42 43  1  0  0  0
 38 39  1  0  0  0
 39 40  1  0  0  0
 34 29  1  0  0  0
 40 35  1  0  0  0
  6  1  1  0  0  0
 15  7  1  0  0  0
 24 18  1  0  0  0
 15 10  1  0  0  0
 26 27  1  0  0  0
 16 17  1  0  0  0
 43 44  1  0  0  0
M  END
> <minimizedAffinity>
-8.76642

> <CNNscore>
0.2604994476

> <CNNaffinity>
7.5279512405

> <CNN_VS>
1.9610271454

> <CNNaffinity_variance>
0.1786253154

$$$$
[H]OC([H])([H])C([H])([H])N1C([H])([H])C([H])([H])N(c2nc(C([H])([H])[H])nc(N([H])c3nc([H])nc(-n4c(N([H])c5c(Cl)c([H])c([H])c([H])c5C([H])([H])[H])nc5c([H])c([H])c([H])c([H])c54)c3[H])c2[H])C([H])([H])C1([H])[H]


 44 49  0  0  0  0  0  0  0  0999 V2000
  -17.6764   16.9853  -21.7709 C   0  0  0  0  0  0  0  0  0  0  0  0
  -17.2404   15.7056  -21.5182 C   0  0  0  0  0  0  0  0  0  0  0  0
  -17.5643   14.6471  -22.3578 C   0  0  0  0  0  0  0  0  0  0  0  0
  -18.3227   14.9271  -23.4281 N   0  0  0  0  0  0  0  0  0  0  0  0
  -18.7434   16.1523  -23.6753 C   0  0  0  0  0  0  0  0  0  0  0  0
  -18.4287   17.1604  -22.8662 N   0  0  0  0  0  0  0  0  0  0  0  0
  -17.1307   13.3237  -22.0535 N   0  0  0  0  0  0  0  0  0  0  0  0
  -16.3934   12.4441  -22.7085 C   0  0  0  0  0  0  0  0  0  0  0  0
  -16.2832   11.2924  -21.9392 N   0  0  0  0  0  0  0  0  0  0  0  0
  -16.9680   11.5089  -20.8197 C   0  0  0  0  0  0  0  0  0  0  0  0
  -17.1932   10.6964  -19.7009 C   0  0  0  0  0  0  0  0  0  0  0  0
  -17.9452   11.1290  -18.6372 C   0  0  0  0  0  0  0  0  0  0  0  0
  -18.4894   12.3955  -18.6783 C   0  0  0  0  0  0  0  0  0  0  0  0
  -18.2686   13.2134  -19.7942 C   0  0  0  0  0  0  0  0  0  0  0  0
  -17.5115   12.7614  -20.8505 C   0  0  0  0  0  0  0  0  0  0  0  0
  -15.7841   12.5780  -23.9735 N   0  0  0  0  0  0  0  0  0  0  0  0
  -15.1820   11.7129  -24.2672 H   0  0  0  0  0  0  0  0  0  0  0  0
  -15.8108   13.6092  -24.9101 C   0  0  0  0  0  0  0  0  0  0  0  0
  -14.9279   14.6839  -24.8488 C   0  0  0  0  0  0  0  0  0  0  0  0
  -13.9262   14.7983  -23.7493 C   0  0  0  0  0  0  0  0  0  0  0  0
  -14.9882   15.6463  -25.8332 C   0  0  0  0  0  0  0  0  0  0  0  0
  -15.8840   15.5936  -26.8784 C   0  0  0  0  0  0  0  0  0  0  0  0
  -16.7585   14.5437  -26.9535 C   0  0  0  0  0  0  0  0  0  0  0  0
  -16.7027   13.5810  -25.9739 C   0  0  0  0  0  0  0  0  0  0  0  0
  -17.8357   12.2426  -26.0894 Cl  0  0  0  0  0  0  0  0  0  0  0  0
  -17.3354   18.0770  -20.8908 N   0  0  0  0  0  0  0  0  0  0  0  0
  -16.4570   18.5974  -21.0043 H   0  0  0  0  0  0  0  0  0  0  0  0
  -19.5459   21.4947  -18.1604 C   0  0  0  0  0  0  0  0  0  0  0  0
  -19.2932   20.0833  -18.5315 C   0  0  0  0  0  0  0  0  0  0  0  0
  -18.4522   19.7237  -19.5146 N   0  0  0  0  0  0  0  0  0  0  0  0
  -18.2244   18.4423  -19.8478 C   0  0  0  0  0  0  0  0  0  0  0  0
  -18.9004   17.4741  -19.1281 C   0  0  0  0  0  0  0  0  0  0  0  0
  -19.7730   17.7958  -18.1114 C   0  0  0  0  0  0  0  0  0  0  0  0
  -19.9178   19.1229  -17.8710 N   0  0  0  0  0  0  0  0  0  0  0  0
  -20.4849   16.8215  -17.3628 N   0  0  0  0  0  0  0  0  0  0  0  0
  -21.7880   17.0980  -16.8882 C   0  0  0  0  0  0  0  0  0  0  0  0
  -22.2411   16.2756  -15.7219 C   0  0  0  0  0  0  0  0  0  0  0  0
  -21.5697   15.0161  -15.5892 N   0  0  0  0  0  0  0  0  0  0  0  0
  -20.9359   14.5633  -16.7904 C   0  0  0  0  0  0  0  0  0  0  0  0
  -19.8378   15.5576  -17.1053 C   0  0  0  0  0  0  0  0  0  0  0  0
  -22.3553   14.0551  -14.8905 C   0  0  0  0  0  0  0  0  0  0  0  0
  -23.1827   14.6266  -13.7719 C   0  0  0  0  0  0  0  0  0  0  0  0
  -22.7753   14.1697  -12.5315 O   0  0  0  0  0  0  0  0  0  0  0  0
  -21.8055   14.0169  -12.4641 H   0  0  0  0  0  0  0  0  0  0  0  0
 28 29  1  0  0  0
 29 30  2  0  0  0
 30 31  1  0  0  0
 31 26  1  0  0  0
 26  1  1  0  0  0
  1  2  2  0  0  0
  2  3  1  0  0  0
  3  4  2  0  0  0
  4  5  1  0  0  0
  5  6  2  0  0  0
  3  7  1  0  0  0
  7  8  1  0  0  0
  8 16  1  0  0  0
 16 18  1  0  0  0
 18 19  2  0  0  0
 19 20  1  0  0  0
 19 21  1  0  0  0
 21 22  2  0  0  0
 22 23  1  0  0  0
 23 24  2  0  0  0
 24 25  1  0  0  0
  8  9  2  0  0  0
  9 10  1  0  0  0
 10 11  2  0  0  0
 11 12  1  0  0  0
 12 13  2  0  0  0
 13 14  1  0  0  0
 14 15  2  0  0  0
 31 32  2  0  0  0
 32 33  1  0  0  0
 33 34  2  0  0  0
 33 35  1  0  0  0
 35 36  1  0  0  0
 36 37  1  0  0  0
 37 38  1  0  0  0
 38 41  1  0  0  0
 41 42  1  0  0  0
 42 43  1  0  0  0
 38 39  1  0  0  0
 39 40  1  0  0  0
 34 29  1  0  0  0
 40 35  1  0  0  0
  6  1  1  0  0  0
 15  7  1  0  0  0
 24 18  1  0  0  0
 15 10  1  0  0  0
 26 27  1  0  0  0
 16 17  1  0  0  0
 43 44  1  0  0  0
M  END
> <minimizedAffinity>
-9.63048

> <CNNscore>
0.2525347173

> <CNNaffinity>
7.8664665222

> <CNN_VS>
1.9865559340

> <CNNaffinity_variance>
0.0681530014

$$$$
[H]OC([H])([H])C([H])([H])N1C([H])([H])C([H])([H])N(c2nc(C([H])([H])[H])nc(N([H])c3nc([H])nc(-n4c(N([H])c5c(Cl)c([H])c([H])c([H])c5C([H])([H])[H])nc5c([H])c([H])c([H])c([H])c54)c3[H])c2[H])C([H])([H])C1([H])[H]


 44 49  0  0  0  0  0  0  0  0999 V2000
  -18.5030   16.7984  -23.1709 C   0  0  0  0  0  0  0  0  0  0  0  0
  -18.3393   15.4741  -22.8377 C   0  0  0  0  0  0  0  0  0  0  0  0
  -17.1843   15.0174  -22.2149 C   0  0  0  0  0  0  0  0  0  0  0  0
  -16.2329   15.9256  -21.9520 N   0  0  0  0  0  0  0  0  0  0  0  0
  -16.3846   17.1967  -22.2692 C   0  0  0  0  0  0  0  0  0  0  0  0
  -17.4938   17.6258  -22.8655 N   0  0  0  0  0  0  0  0  0  0  0  0
  -17.0239   13.6335  -21.9134 N   0  0  0  0  0  0  0  0  0  0  0  0
  -16.4685   12.6276  -22.5660 C   0  0  0  0  0  0  0  0  0  0  0  0
  -16.5958   11.4744  -21.8016 N   0  0  0  0  0  0  0  0  0  0  0  0
  -17.2355   11.8184  -20.6874 C   0  0  0  0  0  0  0  0  0  0  0  0
  -17.6281   11.0630  -19.5748 C   0  0  0  0  0  0  0  0  0  0  0  0
  -18.2904   11.6324  -18.5159 C   0  0  0  0  0  0  0  0  0  0  0  0
  -18.5731   12.9815  -18.5556 C   0  0  0  0  0  0  0  0  0  0  0  0
  -18.1838   13.7431  -19.6653 C   0  0  0  0  0  0  0  0  0  0  0  0
  -17.5204   13.1537  -20.7168 C   0  0  0  0  0  0  0  0  0  0  0  0
  -15.8320   12.6423  -23.8246 N   0  0  0  0  0  0  0  0  0  0  0  0
  -15.1639   11.7920  -23.9914 H   0  0  0  0  0  0  0  0  0  0  0  0
  -15.9007   13.5413  -24.8869 C   0  0  0  0  0  0  0  0  0  0  0  0
  -16.9032   13.4690  -25.8502 C   0  0  0  0  0  0  0  0  0  0  0  0
  -17.9392   12.3965  -25.8072 C   0  0  0  0  0  0  0  0  0  0  0  0
  -16.9295   14.4172  -26.8499 C   0  0  0  0  0  0  0  0  0  0  0  0
  -16.0071   15.4364  -26.9399 C   0  0  0  0  0  0  0  0  0  0  0  0
  -15.0154   15.5219  -26.0008 C   0  0  0  0  0  0  0  0  0  0  0  0
  -14.9846   14.5784  -25.0015 C   0  0  0  0  0  0  0  0  0  0  0  0
  -13.7019   14.7067  -23.8072 Cl  0  0  0  0  0  0  0  0  0  0  0  0
  -19.7063   17.2612  -23.8193 N   0  0  0  0  0  0  0  0  0  0  0  0
  -19.8724   17.0884  -24.8182 H   0  0  0  0  0  0  0  0  0  0  0  0
  -23.4733   20.3875  -23.5795 C   0  0  0  0  0  0  0  0  0  0  0  0
  -22.4958   19.4713  -22.9483 C   0  0  0  0  0  0  0  0  0  0  0  0
  -21.5667   18.7979  -23.6457 N   0  0  0  0  0  0  0  0  0  0  0  0
  -20.6806   17.9686  -23.0697 C   0  0  0  0  0  0  0  0  0  0  0  0
  -20.7537   17.8232  -21.6964 C   0  0  0  0  0  0  0  0  0  0  0  0
  -21.6901   18.4935  -20.9398 C   0  0  0  0  0  0  0  0  0  0  0  0
  -22.5281   19.3004  -21.6373 N   0  0  0  0  0  0  0  0  0  0  0  0
  -21.7912   18.3557  -19.5301 N   0  0  0  0  0  0  0  0  0  0  0  0
  -21.6864   19.4903  -18.6926 C   0  0  0  0  0  0  0  0  0  0  0  0
  -21.2918   19.2152  -17.2746 C   0  0  0  0  0  0  0  0  0  0  0  0
  -21.5905   17.8876  -16.8240 N   0  0  0  0  0  0  0  0  0  0  0  0
  -22.5838   17.2156  -17.6059 C   0  0  0  0  0  0  0  0  0  0  0  0
  -21.9987   17.0333  -18.9907 C   0  0  0  0  0  0  0  0  0  0  0  0
  -21.7488   17.8189  -15.4101 C   0  0  0  0  0  0  0  0  0  0  0  0
  -20.4580   17.6982  -14.6474 C   0  0  0  0  0  0  0  0  0  0  0  0
  -19.5686   16.8304  -15.2549 O   0  0  0  0  0  0  0  0  0  0  0  0
  -19.6183   16.8355  -16.2378 H   0  0  0  0  0  0  0  0  0  0  0  0
 28 29  1  0  0  0
 29 30  2  0  0  0
 30 31  1  0  0  0
 31 26  1  0  0  0
 26  1  1  0  0  0
  1  2  2  0  0  0
  2  3  1  0  0  0
  3  4  2  0  0  0
  4  5  1  0  0  0
  5  6  2  0  0  0
  3  7  1  0  0  0
  7  8  1  0  0  0
  8 16  1  0  0  0
 16 18  1  0  0  0
 18 19  2  0  0  0
 19 20  1  0  0  0
 19 21  1  0  0  0
 21 22  2  0  0  0
 22 23  1  0  0  0
 23 24  2  0  0  0
 24 25  1  0  0  0
  8  9  2  0  0  0
  9 10  1  0  0  0
 10 11  2  0  0  0
 11 12  1  0  0  0
 12 13  2  0  0  0
 13 14  1  0  0  0
 14 15  2  0  0  0
 31 32  2  0  0  0
 32 33  1  0  0  0
 33 34  2  0  0  0
 33 35  1  0  0  0
 35 36  1  0  0  0
 36 37  1  0  0  0
 37 38  1  0  0  0
 38 41  1  0  0  0
 41 42  1  0  0  0
 42 43  1  0  0  0
 38 39  1  0  0  0
 39 40  1  0  0  0
 34 29  1  0  0  0
 40 35  1  0  0  0
  6  1  1  0  0  0
 15  7  1  0  0  0
 24 18  1  0  0  0
 15 10  1  0  0  0
 26 27  1  0  0  0
 16 17  1  0  0  0
 43 44  1  0  0  0
M  END
> <minimizedAffinity>
-9.76503

> <CNNscore>
0.2435508370

> <CNNaffinity>
7.7327203751

> <CNN_VS>
1.8833105564

> <CNNaffinity_variance>
0.0952957422

$$$$
[H]OC([H])([H])C([H])([H])N1C([H])([H])C([H])([H])N(c2nc(C([H])([H])[H])nc(N([H])c3nc([H])nc(-n4c(N([H])c5c(Cl)c([H])c([H])c([H])c5C([H])([H])[H])nc5c([H])c([H])c([H])c([H])c54)c3[H])c2[H])C([H])([H])C1([H])[H]


 44 49  0  0  0  0  0  0  0  0999 V2000
  -17.6620   17.1674  -21.9543 C   0  0  0  0  0  0  0  0  0  0  0  0
  -17.2807   15.8897  -21.6174 C   0  0  0  0  0  0  0  0  0  0  0  0
  -17.5973   14.8001  -22.4192 C   0  0  0  0  0  0  0  0  0  0  0  0
  -18.2929   15.0482  -23.5390 N   0  0  0  0  0  0  0  0  0  0  0  0
  -18.6610   16.2713  -23.8670 C   0  0  0  0  0  0  0  0  0  0  0  0
  -18.3538   17.3092  -23.0935 N   0  0  0  0  0  0  0  0  0  0  0  0
  -17.2224   13.4815  -22.0289 N   0  0  0  0  0  0  0  0  0  0  0  0
  -16.5172   12.5330  -22.6199 C   0  0  0  0  0  0  0  0  0  0  0  0
  -16.4620   11.4279  -21.7797 N   0  0  0  0  0  0  0  0  0  0  0  0
  -17.1465   11.7419  -20.6833 C   0  0  0  0  0  0  0  0  0  0  0  0
  -17.4152   11.0107  -19.5189 C   0  0  0  0  0  0  0  0  0  0  0  0
  -18.1573   11.5396  -18.4924 C   0  0  0  0  0  0  0  0  0  0  0  0
  -18.6473   12.8225  -18.6178 C   0  0  0  0  0  0  0  0  0  0  0  0
  -18.3829   13.5594  -19.7797 C   0  0  0  0  0  0  0  0  0  0  0  0
  -17.6366   13.0115  -20.7976 C   0  0  0  0  0  0  0  0  0  0  0  0
  -15.8921   12.5623  -23.8839 N   0  0  0  0  0  0  0  0  0  0  0  0
  -15.2959   11.6713  -24.1024 H   0  0  0  0  0  0  0  0  0  0  0  0
  -15.8973   13.5180  -24.8979 C   0  0  0  0  0  0  0  0  0  0  0  0
  -16.8118   13.4751  -25.9467 C   0  0  0  0  0  0  0  0  0  0  0  0
  -17.8153   12.3762  -26.0515 C   0  0  0  0  0  0  0  0  0  0  0  0
  -16.7816   14.4773  -26.8920 C   0  0  0  0  0  0  0  0  0  0  0  0
  -15.8857   15.5229  -26.8466 C   0  0  0  0  0  0  0  0  0  0  0  0
  -14.9803   15.5800  -25.8222 C   0  0  0  0  0  0  0  0  0  0  0  0
  -15.0062   14.5826  -24.8766 C   0  0  0  0  0  0  0  0  0  0  0  0
  -13.8338   14.6752  -23.5707 Cl  0  0  0  0  0  0  0  0  0  0  0  0
  -17.3292   18.2915  -21.1127 N   0  0  0  0  0  0  0  0  0  0  0  0
  -16.3544   18.5883  -20.9823 H   0  0  0  0  0  0  0  0  0  0  0  0
  -20.7860   21.7660  -21.0833 C   0  0  0  0  0  0  0  0  0  0  0  0
  -20.0290   20.6728  -20.4309 C   0  0  0  0  0  0  0  0  0  0  0  0
  -19.0475   19.9933  -21.0455 N   0  0  0  0  0  0  0  0  0  0  0  0
  -18.3619   19.0031  -20.4503 C   0  0  0  0  0  0  0  0  0  0  0  0
  -18.7054   18.6936  -19.1469 C   0  0  0  0  0  0  0  0  0  0  0  0
  -19.7056   19.3634  -18.4764 C   0  0  0  0  0  0  0  0  0  0  0  0
  -20.3230   20.3416  -19.1849 N   0  0  0  0  0  0  0  0  0  0  0  0
  -20.0825   19.0598  -17.1415 N   0  0  0  0  0  0  0  0  0  0  0  0
  -19.4752   17.9825  -16.4557 C   0  0  0  0  0  0  0  0  0  0  0  0
  -20.2564   17.4219  -15.3079 C   0  0  0  0  0  0  0  0  0  0  0  0
  -21.1985   18.3352  -14.7307 N   0  0  0  0  0  0  0  0  0  0  0  0
  -20.9320   19.7110  -15.0237 C   0  0  0  0  0  0  0  0  0  0  0  0
  -21.0961   19.8777  -16.5199 C   0  0  0  0  0  0  0  0  0  0  0  0
  -21.4892   18.0254  -13.3711 C   0  0  0  0  0  0  0  0  0  0  0  0
  -20.7341   18.8573  -12.3711 C   0  0  0  0  0  0  0  0  0  0  0  0
  -21.5771   19.5820  -11.5480 O   0  0  0  0  0  0  0  0  0  0  0  0
  -22.4219   19.1215  -11.3414 H   0  0  0  0  0  0  0  0  0  0  0  0
 28 29  1  0  0  0
 29 30  2  0  0  0
 30 31  1  0  0  0
 31 26  1  0  0  0
 26  1  1  0  0  0
  1  2  2  0  0  0
  2  3  1  0  0  0
  3  4  2  0  0  0
  4  5  1  0  0  0
  5  6  2  0  0  0
  3  7  1  0  0  0
  7  8  1  0  0  0
  8 16  1  0  0  0
 16 18  1  0  0  0
 18 19  2  0  0  0
 19 20  1  0  0  0
 19 21  1  0  0  0
 21 22  2  0  0  0
 22 23  1  0  0  0
 23 24  2  0  0  0
 24 25  1  0  0  0
  8  9  2  0  0  0
  9 10  1  0  0  0
 10 11  2  0  0  0
 11 12  1  0  0  0
 12 13  2  0  0  0
 13 14  1  0  0  0
 14 15  2  0  0  0
 31 32  2  0  0  0
 32 33  1  0  0  0
 33 34  2  0  0  0
 33 35  1  0  0  0
 35 36  1  0  0  0
 36 37  1  0  0  0
 37 38  1  0  0  0
 38 41  1  0  0  0
 41 42  1  0  0  0
 42 43  1  0  0  0
 38 39  1  0  0  0
 39 40  1  0  0  0
 34 29  1  0  0  0
 40 35  1  0  0  0
  6  1  1  0  0  0
 15  7  1  0  0  0
 24 18  1  0  0  0
 15 10  1  0  0  0
 26 27  1  0  0  0
 16 17  1  0  0  0
 43 44  1  0  0  0
M  END
> <minimizedAffinity>
-9.28985

> <CNNscore>
0.2154381424

> <CNNaffinity>
7.6936597824

> <CNN_VS>
1.6575077772

> <CNNaffinity_variance>
0.0773711726

$$$$
[H]OC([H])([H])C([H])([H])N1C([H])([H])C([H])([H])N(c2nc(C([H])([H])[H])nc(N([H])c3nc([H])nc(-n4c(N([H])c5c(Cl)c([H])c([H])c([H])c5C([H])([H])[H])nc5c([H])c([H])c([H])c([H])c54)c3[H])c2[H])C([H])([H])C1([H])[H]


 44 49  0  0  0  0  0  0  0  0999 V2000
  -17.4096   11.9854  -20.8552 C   0  0  0  0  0  0  0  0  0  0  0  0
  -18.2773   12.6334  -20.0073 C   0  0  0  0  0  0  0  0  0  0  0  0
  -18.2091   12.4674  -18.6296 C   0  0  0  0  0  0  0  0  0  0  0  0
  -17.2584   11.6457  -18.1603 N   0  0  0  0  0  0  0  0  0  0  0  0
  -16.4238   11.0219  -18.9686 C   0  0  0  0  0  0  0  0  0  0  0  0
  -16.4959   11.1863  -20.2868 N   0  0  0  0  0  0  0  0  0  0  0  0
  -19.1437   13.1216  -17.7751 N   0  0  0  0  0  0  0  0  0  0  0  0
  -20.0768   12.6767  -16.9519 C   0  0  0  0  0  0  0  0  0  0  0  0
  -20.7072   13.7647  -16.3609 N   0  0  0  0  0  0  0  0  0  0  0  0
  -20.1290   14.8582  -16.8498 C   0  0  0  0  0  0  0  0  0  0  0  0
  -20.3643   16.2174  -16.6055 C   0  0  0  0  0  0  0  0  0  0  0  0
  -19.6356   17.1977  -17.2318 C   0  0  0  0  0  0  0  0  0  0  0  0
  -18.6498   16.8277  -18.1224 C   0  0  0  0  0  0  0  0  0  0  0  0
  -18.4094   15.4702  -18.3719 C   0  0  0  0  0  0  0  0  0  0  0  0
  -19.1506   14.5025  -17.7337 C   0  0  0  0  0  0  0  0  0  0  0  0
  -20.4302   11.3417  -16.6649 N   0  0  0  0  0  0  0  0  0  0  0  0
  -21.1277   10.9048  -17.3860 H   0  0  0  0  0  0  0  0  0  0  0  0
  -20.0530   10.4850  -15.6328 C   0  0  0  0  0  0  0  0  0  0  0  0
  -20.4204   10.7175  -14.3103 C   0  0  0  0  0  0  0  0  0  0  0  0
  -21.2137   11.9222  -13.9298 C   0  0  0  0  0  0  0  0  0  0  0  0
  -20.0436    9.8048  -13.3490 C   0  0  0  0  0  0  0  0  0  0  0  0
  -19.3184    8.6696  -13.6373 C   0  0  0  0  0  0  0  0  0  0  0  0
  -18.9495    8.4262  -14.9324 C   0  0  0  0  0  0  0  0  0  0  0  0
  -19.3227    9.3335  -15.8952 C   0  0  0  0  0  0  0  0  0  0  0  0
  -18.8372    9.0017  -17.5512 Cl  0  0  0  0  0  0  0  0  0  0  0  0
  -17.4910   12.1638  -22.2849 N   0  0  0  0  0  0  0  0  0  0  0  0
  -17.8605   11.4232  -22.8933 H   0  0  0  0  0  0  0  0  0  0  0  0
  -14.1367   14.7698  -24.7302 C   0  0  0  0  0  0  0  0  0  0  0  0
  -15.4436   14.6403  -24.0456 C   0  0  0  0  0  0  0  0  0  0  0  0
  -15.8682   13.4949  -23.4882 N   0  0  0  0  0  0  0  0  0  0  0  0
  -17.0539   13.3812  -22.8668 C   0  0  0  0  0  0  0  0  0  0  0  0
  -17.8494   14.5112  -22.8153 C   0  0  0  0  0  0  0  0  0  0  0  0
  -17.4555   15.7079  -23.3734 C   0  0  0  0  0  0  0  0  0  0  0  0
  -16.2384   15.6946  -23.9722 N   0  0  0  0  0  0  0  0  0  0  0  0
  -18.2566   16.8799  -23.3410 N   0  0  0  0  0  0  0  0  0  0  0  0
  -19.6279   16.7981  -23.0056 C   0  0  0  0  0  0  0  0  0  0  0  0
  -20.4809   17.9322  -23.4835 C   0  0  0  0  0  0  0  0  0  0  0  0
  -19.7656   19.1515  -23.7212 N   0  0  0  0  0  0  0  0  0  0  0  0
  -18.4986   19.2234  -23.0586 C   0  0  0  0  0  0  0  0  0  0  0  0
  -17.6294   18.1395  -23.6612 C   0  0  0  0  0  0  0  0  0  0  0  0
  -20.6013   20.2996  -23.6093 C   0  0  0  0  0  0  0  0  0  0  0  0
  -21.6977   20.3703  -24.6366 C   0  0  0  0  0  0  0  0  0  0  0  0
  -21.2968   21.0240  -25.7878 O   0  0  0  0  0  0  0  0  0  0  0  0
  -20.3500   20.8818  -26.0153 H   0  0  0  0  0  0  0  0  0  0  0  0
 28 29  1  0  0  0
 29 30  2  0  0  0
 30 31  1  0  0  0
 31 26  1  0  0  0
 26  1  1  0  0  0
  1  2  2  0  0  0
  2  3  1  0  0  0
  3  4  2  0  0  0
  4  5  1  0  0  0
  5  6  2  0  0  0
  3  7  1  0  0  0
  7  8  1  0  0  0
  8 16  1  0  0  0
 16 18  1  0  0  0
 18 19  2  0  0  0
 19 20  1  0  0  0
 19 21  1  0  0  0
 21 22  2  0  0  0
 22 23  1  0  0  0
 23 24  2  0  0  0
 24 25  1  0  0  0
  8  9  2  0  0  0
  9 10  1  0  0  0
 10 11  2  0  0  0
 11 12  1  0  0  0
 12 13  2  0  0  0
 13 14  1  0  0  0
 14 15  2  0  0  0
 31 32  2  0  0  0
 32 33  1  0  0  0
 33 34  2  0  0  0
 33 35  1  0  0  0
 35 36  1  0  0  0
 36 37  1  0  0  0
 37 38  1  0  0  0
 38 41  1  0  0  0
 41 42  1  0  0  0
 42 43  1  0  0  0
 38 39  1  0  0  0
 39 40  1  0  0  0
 34 29  1  0  0  0
 40 35  1  0  0  0
  6  1  1  0  0  0
 15  7  1  0  0  0
 24 18  1  0  0  0
 15 10  1  0  0  0
 26 27  1  0  0  0
 16 17  1  0  0  0
 43 44  1  0  0  0
M  END
> <minimizedAffinity>
-8.83084

> <CNNscore>
0.1940241158

> <CNNaffinity>
7.6885008812

> <CNN_VS>
1.4917545319

> <CNNaffinity_variance>
0.0765764862

$$$$
[H]OC([H])([H])C([H])([H])N1C([H])([H])C([H])([H])N(c2nc(C([H])([H])[H])nc(N([H])c3nc([H])nc(-n4c(N([H])c5c(Cl)c([H])c([H])c([H])c5C([H])([H])[H])nc5c([H])c([H])c([H])c([H])c54)c3[H])c2[H])C([H])([H])C1([H])[H]


 44 49  0  0  0  0  0  0  0  0999 V2000
  -18.2064   16.5491  -20.0044 C   0  0  0  0  0  0  0  0  0  0  0  0
  -17.4566   15.6968  -20.7809 C   0  0  0  0  0  0  0  0  0  0  0  0
  -17.7830   15.4430  -22.1073 C   0  0  0  0  0  0  0  0  0  0  0  0
  -18.8640   16.0662  -22.5996 N   0  0  0  0  0  0  0  0  0  0  0  0
  -19.5866   16.8845  -21.8597 C   0  0  0  0  0  0  0  0  0  0  0  0
  -19.2671   17.1220  -20.5903 N   0  0  0  0  0  0  0  0  0  0  0  0
  -17.0111   14.5270  -22.8797 N   0  0  0  0  0  0  0  0  0  0  0  0
  -16.9520   13.2075  -22.9188 C   0  0  0  0  0  0  0  0  0  0  0  0
  -16.0111   12.8302  -23.8689 N   0  0  0  0  0  0  0  0  0  0  0  0
  -15.5172   13.9502  -24.3891 C   0  0  0  0  0  0  0  0  0  0  0  0
  -14.5475   14.1624  -25.3777 C   0  0  0  0  0  0  0  0  0  0  0  0
  -14.1832   15.4268  -25.7686 C   0  0  0  0  0  0  0  0  0  0  0  0
  -14.7907   16.5097  -25.1686 C   0  0  0  0  0  0  0  0  0  0  0  0
  -15.7610   16.3050  -24.1789 C   0  0  0  0  0  0  0  0  0  0  0  0
  -16.1126   15.0295  -23.8011 C   0  0  0  0  0  0  0  0  0  0  0  0
  -17.6881   12.2730  -22.1609 N   0  0  0  0  0  0  0  0  0  0  0  0
  -18.4725   11.7639  -22.7288 H   0  0  0  0  0  0  0  0  0  0  0  0
  -17.5960   11.8852  -20.8257 C   0  0  0  0  0  0  0  0  0  0  0  0
  -18.5421   12.2695  -19.8795 C   0  0  0  0  0  0  0  0  0  0  0  0
  -19.6894   13.1488  -20.2480 C   0  0  0  0  0  0  0  0  0  0  0  0
  -18.4062   11.8145  -18.5858 C   0  0  0  0  0  0  0  0  0  0  0  0
  -17.3746   10.9942  -18.1848 C   0  0  0  0  0  0  0  0  0  0  0  0
  -16.4364   10.6070  -19.1027 C   0  0  0  0  0  0  0  0  0  0  0  0
  -16.5673   11.0582  -20.3945 C   0  0  0  0  0  0  0  0  0  0  0  0
  -15.3506   10.5497  -21.5562 Cl  0  0  0  0  0  0  0  0  0  0  0  0
  -17.8590   16.8037  -18.6271 N   0  0  0  0  0  0  0  0  0  0  0  0
  -16.9116   17.1009  -18.3636 H   0  0  0  0  0  0  0  0  0  0  0  0
  -21.2250   14.0778  -16.3335 C   0  0  0  0  0  0  0  0  0  0  0  0
  -20.4586   15.3335  -16.5046 C   0  0  0  0  0  0  0  0  0  0  0  0
  -19.5310   15.5009  -17.4608 N   0  0  0  0  0  0  0  0  0  0  0  0
  -18.8384   16.6418  -17.6141 C   0  0  0  0  0  0  0  0  0  0  0  0
  -19.1159   17.6708  -16.7329 C   0  0  0  0  0  0  0  0  0  0  0  0
  -20.0589   17.5446  -15.7362 C   0  0  0  0  0  0  0  0  0  0  0  0
  -20.6898   16.3449  -15.6846 N   0  0  0  0  0  0  0  0  0  0  0  0
  -20.3568   18.5827  -14.8142 N   0  0  0  0  0  0  0  0  0  0  0  0
  -20.1423   18.3911  -13.4297 C   0  0  0  0  0  0  0  0  0  0  0  0
  -20.9328   19.2816  -12.5219 C   0  0  0  0  0  0  0  0  0  0  0  0
  -21.3608   20.5103  -13.1235 N   0  0  0  0  0  0  0  0  0  0  0  0
  -20.6134   20.8819  -14.2866 C   0  0  0  0  0  0  0  0  0  0  0  0
  -20.8821   19.8221  -15.3344 C   0  0  0  0  0  0  0  0  0  0  0  0
  -21.5796   21.5368  -12.1605 C   0  0  0  0  0  0  0  0  0  0  0  0
  -22.4474   21.1254  -11.0029 C   0  0  0  0  0  0  0  0  0  0  0  0
  -21.7832   21.2113   -9.7926 O   0  0  0  0  0  0  0  0  0  0  0  0
  -21.1350   21.9505   -9.7476 H   0  0  0  0  0  0  0  0  0  0  0  0
 28 29  1  0  0  0
 29 30  2  0  0  0
 30 31  1  0  0  0
 31 26  1  0  0  0
 26  1  1  0  0  0
  1  2  2  0  0  0
  2  3  1  0  0  0
  3  4  2  0  0  0
  4  5  1  0  0  0
  5  6  2  0  0  0
  3  7  1  0  0  0
  7  8  1  0  0  0
  8 16  1  0  0  0
 16 18  1  0  0  0
 18 19  2  0  0  0
 19 20  1  0  0  0
 19 21  1  0  0  0
 21 22  2  0  0  0
 22 23  1  0  0  0
 23 24  2  0  0  0
 24 25  1  0  0  0
  8  9  2  0  0  0
  9 10  1  0  0  0
 10 11  2  0  0  0
 11 12  1  0  0  0
 12 13  2  0  0  0
 13 14  1  0  0  0
 14 15  2  0  0  0
 31 32  2  0  0  0
 32 33  1  0  0  0
 33 34  2  0  0  0
 33 35  1  0  0  0
 35 36  1  0  0  0
 36 37  1  0  0  0
 37 38  1  0  0  0
 38 41  1  0  0  0
 41 42  1  0  0  0
 42 43  1  0  0  0
 38 39  1  0  0  0
 39 40  1  0  0  0
 34 29  1  0  0  0
 40 35  1  0  0  0
  6  1  1  0  0  0
 15  7  1  0  0  0
 24 18  1  0  0  0
 15 10  1  0  0  0
 26 27  1  0  0  0
 16 17  1  0  0  0
 43 44  1  0  0  0
M  END
> <minimizedAffinity>
-9.21479

> <CNNscore>
0.1768675596

> <CNNaffinity>
7.2735280991

> <CNN_VS>
1.2864512205

> <CNNaffinity_variance>
0.2100571692

$$$$
[H]c1c([H])c([H])c2c(c1[H])c1c3c(c4c5c([H])c([H])c([H])c([H])c5n5c4c1n2[C@@]1([H])O[C@]5(C([H])([H])[H])[C@@]([H])(OC([H])([H])[H])[C@@]([H])(N([H])C([H])([H])[H])C1([H])[H])C([H])([H])N([H])C3=O


 37 44  0  0  0  0  0  0  0  0999 V2000
  -18.4885   17.6628  -20.0214 C   0  0  0  0  0  0  0  0  0  0  0  0
  -18.1780   17.2273  -21.3938 C   0  0  0  0  0  0  0  0  0  0  0  0
  -19.0877   16.1821  -21.9513 C   0  0  0  0  0  0  0  0  0  0  0  0
  -20.2116   15.9130  -21.3432 O   0  0  0  0  0  0  0  0  0  0  0  0
  -20.3989   15.9881  -19.9822 C   0  0  0  0  0  0  0  0  0  0  0  0
  -21.9380   16.0626  -19.9064 C   0  0  0  0  0  0  0  0  0  0  0  0
  -19.8389   17.2429  -19.4855 C   0  0  0  0  0  0  0  0  0  0  0  0
  -19.9124   14.7568  -19.3827 N   0  0  0  0  0  0  0  0  0  0  0  0
  -20.2858   14.1845  -18.2337 C   0  0  0  0  0  0  0  0  0  0  0  0
  -21.1738   14.5599  -17.2704 C   0  0  0  0  0  0  0  0  0  0  0  0
  -21.3743   13.7648  -16.1519 C   0  0  0  0  0  0  0  0  0  0  0  0
  -20.7063   12.5812  -15.9535 C   0  0  0  0  0  0  0  0  0  0  0  0
  -19.7932   12.1846  -16.9324 C   0  0  0  0  0  0  0  0  0  0  0  0
  -19.6154   12.9934  -18.0307 C   0  0  0  0  0  0  0  0  0  0  0  0
  -18.7806   12.8283  -19.1215 C   0  0  0  0  0  0  0  0  0  0  0  0
  -17.8791   11.8397  -19.4908 C   0  0  0  0  0  0  0  0  0  0  0  0
  -17.5090   10.5862  -18.7661 C   0  0  0  0  0  0  0  0  0  0  0  0
  -16.5505    9.9260  -19.6051 N   0  0  0  0  0  0  0  0  0  0  0  0
  -16.3082   10.7157  -20.7665 C   0  0  0  0  0  0  0  0  0  0  0  0
  -15.5061   10.3595  -21.6333 O   0  0  0  0  0  0  0  0  0  0  0  0
  -17.1499   11.8936  -20.6607 C   0  0  0  0  0  0  0  0  0  0  0  0
  -17.3640   12.9991  -21.4574 C   0  0  0  0  0  0  0  0  0  0  0  0
  -16.8391   13.4196  -22.6610 C   0  0  0  0  0  0  0  0  0  0  0  0
  -15.9206   12.9005  -23.5286 C   0  0  0  0  0  0  0  0  0  0  0  0
  -15.6183   13.6119  -24.6892 C   0  0  0  0  0  0  0  0  0  0  0  0
  -16.2075   14.8183  -24.9987 C   0  0  0  0  0  0  0  0  0  0  0  0
  -17.1346   15.3407  -24.1209 C   0  0  0  0  0  0  0  0  0  0  0  0
  -17.4297   14.6484  -22.9901 C   0  0  0  0  0  0  0  0  0  0  0  0
  -18.2824   14.9494  -22.0088 N   0  0  0  0  0  0  0  0  0  0  0  0
  -18.2629   13.9832  -21.0864 C   0  0  0  0  0  0  0  0  0  0  0  0
  -18.9816   13.8998  -19.9092 C   0  0  0  0  0  0  0  0  0  0  0  0
  -16.0993    8.9910  -19.3800 H   0  0  0  0  0  0  0  0  0  0  0  0
  -16.2466   17.0286  -19.8199 C   0  0  0  0  0  0  0  0  0  0  0  0
  -17.4624   17.2362  -19.0609 N   0  0  0  0  0  0  0  0  0  0  0  0
  -17.2656   17.9423  -18.3458 H   0  0  0  0  0  0  0  0  0  0  0  0
  -19.7267   17.4096  -18.1140 O   0  0  0  0  0  0  0  0  0  0  0  0
  -20.4321   18.4536  -17.5843 C   0  0  0  0  0  0  0  0  0  0  0  0
 33 34  1  0  0  0
 34  1  1  0  0  0
  1  2  1  0  0  0
  2  3  1  0  0  0
  3  4  1  0  0  0
  4  5  1  0  0  0
  5  6  1  0  0  0
  5  7  1  0  0  0
  7 36  1  0  0  0
 36 37  1  0  0  0
  5  8  1  0  0  0
  8  9  1  0  0  0
  9 10  2  0  0  0
 10 11  1  0  0  0
 11 12  2  0  0  0
 12 13  1  0  0  0
 13 14  2  0  0  0
 14 15  1  0  0  0
 15 16  2  0  0  0
 16 17  1  0  0  0
 17 18  1  0  0  0
 18 19  1  0  0  0
 19 20  2  0  0  0
 19 21  1  0  0  0
 21 22  2  0  0  0
 22 23  1  0  0  0
 23 24  2  0  0  0
 24 25  1  0  0  0
 25 26  2  0  0  0
 26 27  1  0  0  0
 27 28  2  0  0  0
 28 29  1  0  0  0
 29 30  1  0  0  0
 30 31  2  0  0  0
  7  1  1  0  0  0
 31  8  1  0  0  0
 29  3  1  0  0  0
 14  9  1  0  0  0
 31 15  1  0  0  0
 21 16  1  0  0  0
 30 22  1  0  0  0
 28 23  1  0  0  0
 34 35  1  0  0  0
 18 32  1  0  0  0
M  END
> <minimizedAffinity>
-10.84376

> <CNNscore>
0.7799381614

> <CNNaffinity>
7.3111748695

> <CNN_VS>
5.7022643089

> <CNNaffinity_variance>
0.1290091127

$$$$
[H]c1c([H])c([H])c2c(c1[H])c1c3c(c4c5c([H])c([H])c([H])c([H])c5n5c4c1n2[C@@]1([H])O[C@]5(C([H])([H])[H])[C@@]([H])(OC([H])([H])[H])[C@@]([H])(N([H])C([H])([H])[H])C1([H])[H])C([H])([H])N([H])C3=O


 37 44  0  0  0  0  0  0  0  0999 V2000
  -18.4503   17.7394  -20.0108 C   0  0  0  0  0  0  0  0  0  0  0  0
  -18.1675   17.6138  -21.4508 C   0  0  0  0  0  0  0  0  0  0  0  0
  -18.9999   16.6092  -22.1779 C   0  0  0  0  0  0  0  0  0  0  0  0
  -20.0619   16.1127  -21.6027 O   0  0  0  0  0  0  0  0  0  0  0  0
  -20.1885   15.9016  -20.2490 C   0  0  0  0  0  0  0  0  0  0  0  0
  -21.7221   15.8011  -20.1148 C   0  0  0  0  0  0  0  0  0  0  0  0
  -19.7266   17.0865  -19.5296 C   0  0  0  0  0  0  0  0  0  0  0  0
  -19.5583   14.6338  -19.9206 N   0  0  0  0  0  0  0  0  0  0  0  0
  -19.8188   13.8135  -18.8977 C   0  0  0  0  0  0  0  0  0  0  0  0
  -20.6901   13.9007  -17.8534 C   0  0  0  0  0  0  0  0  0  0  0  0
  -20.7590   12.8868  -16.9097 C   0  0  0  0  0  0  0  0  0  0  0  0
  -19.9725   11.7623  -16.9701 C   0  0  0  0  0  0  0  0  0  0  0  0
  -19.0749   11.6600  -18.0346 C   0  0  0  0  0  0  0  0  0  0  0  0
  -19.0289   12.6811  -18.9551 C   0  0  0  0  0  0  0  0  0  0  0  0
  -18.2368   12.8183  -20.0810 C   0  0  0  0  0  0  0  0  0  0  0  0
  -17.2645   12.0187  -20.6656 C   0  0  0  0  0  0  0  0  0  0  0  0
  -16.7418   10.6929  -20.2154 C   0  0  0  0  0  0  0  0  0  0  0  0
  -15.7672   10.3109  -21.1966 N   0  0  0  0  0  0  0  0  0  0  0  0
  -15.6583   11.3323  -22.1846 C   0  0  0  0  0  0  0  0  0  0  0  0
  -14.8696   11.2362  -23.1281 O   0  0  0  0  0  0  0  0  0  0  0  0
  -16.6021   12.3741  -21.8224 C   0  0  0  0  0  0  0  0  0  0  0  0
  -16.9591   13.5855  -22.3769 C   0  0  0  0  0  0  0  0  0  0  0  0
  -16.5363   14.2841  -23.4879 C   0  0  0  0  0  0  0  0  0  0  0  0
  -15.6163   14.0412  -24.4679 C   0  0  0  0  0  0  0  0  0  0  0  0
  -15.4403   14.9922  -25.4724 C   0  0  0  0  0  0  0  0  0  0  0  0
  -16.1560   16.1686  -25.5186 C   0  0  0  0  0  0  0  0  0  0  0  0
  -17.0844   16.4119  -24.5277 C   0  0  0  0  0  0  0  0  0  0  0  0
  -17.2565   15.4860  -23.5489 C   0  0  0  0  0  0  0  0  0  0  0  0
  -18.0848   15.5008  -22.5028 N   0  0  0  0  0  0  0  0  0  0  0  0
  -17.9283   14.3807  -21.7916 C   0  0  0  0  0  0  0  0  0  0  0  0
  -18.5771   13.9962  -20.6339 C   0  0  0  0  0  0  0  0  0  0  0  0
  -15.2186    9.4014  -21.1750 H   0  0  0  0  0  0  0  0  0  0  0  0
  -16.1605   17.2643  -20.0214 C   0  0  0  0  0  0  0  0  0  0  0  0
  -17.3423   17.2419  -19.1846 N   0  0  0  0  0  0  0  0  0  0  0  0
  -17.1563   17.8310  -18.3680 H   0  0  0  0  0  0  0  0  0  0  0  0
  -19.5638   16.9937  -18.1562 O   0  0  0  0  0  0  0  0  0  0  0  0
  -20.3298   17.8445  -17.4097 C   0  0  0  0  0  0  0  0  0  0  0  0
 33 34  1  0  0  0
 34  1  1  0  0  0
  1  2  1  0  0  0
  2  3  1  0  0  0
  3  4  1  0  0  0
  4  5  1  0  0  0
  5  6  1  0  0  0
  5  7  1  0  0  0
  7 36  1  0  0  0
 36 37  1  0  0  0
  5  8  1  0  0  0
  8  9  1  0  0  0
  9 10  2  0  0  0
 10 11  1  0  0  0
 11 12  2  0  0  0
 12 13  1  0  0  0
 13 14  2  0  0  0
 14 15  1  0  0  0
 15 16  2  0  0  0
 16 17  1  0  0  0
 17 18  1  0  0  0
 18 19  1  0  0  0
 19 20  2  0  0  0
 19 21  1  0  0  0
 21 22  2  0  0  0
 22 23  1  0  0  0
 23 24  2  0  0  0
 24 25  1  0  0  0
 25 26  2  0  0  0
 26 27  1  0  0  0
 27 28  2  0  0  0
 28 29  1  0  0  0
 29 30  1  0  0  0
 30 31  2  0  0  0
  7  1  1  0  0  0
 31  8  1  0  0  0
 29  3  1  0  0  0
 14  9  1  0  0  0
 31 15  1  0  0  0
 21 16  1  0  0  0
 30 22  1  0  0  0
 28 23  1  0  0  0
 34 35  1  0  0  0
 18 32  1  0  0  0
M  END
> <minimizedAffinity>
-10.84579

> <CNNscore>
0.6823404431

> <CNNaffinity>
7.2208418846

> <CNN_VS>
4.9270725250

> <CNNaffinity_variance>
0.1495412290

$$$$
[H]c1c([H])c([H])c2c(c1[H])c1c3c(c4c5c([H])c([H])c([H])c([H])c5n5c4c1n2[C@@]1([H])O[C@]5(C([H])([H])[H])[C@@]([H])(OC([H])([H])[H])[C@@]([H])(N([H])C([H])([H])[H])C1([H])[H])C([H])([H])N([H])C3=O


 37 44  0  0  0  0  0  0  0  0999 V2000
  -18.2873   18.5909  -20.7620 C   0  0  0  0  0  0  0  0  0  0  0  0
  -17.9092   18.2882  -22.1530 C   0  0  0  0  0  0  0  0  0  0  0  0
  -18.8004   17.3195  -22.8588 C   0  0  0  0  0  0  0  0  0  0  0  0
  -19.9583   17.0112  -22.3399 O   0  0  0  0  0  0  0  0  0  0  0  0
  -20.2173   16.9542  -20.9899 C   0  0  0  0  0  0  0  0  0  0  0  0
  -21.7573   17.0477  -20.9873 C   0  0  0  0  0  0  0  0  0  0  0  0
  -19.6695   18.1436  -20.3419 C   0  0  0  0  0  0  0  0  0  0  0  0
  -19.7788   15.6612  -20.4919 N   0  0  0  0  0  0  0  0  0  0  0  0
  -20.2201   14.9845  -19.4268 C   0  0  0  0  0  0  0  0  0  0  0  0
  -21.1537   15.2780  -18.4784 C   0  0  0  0  0  0  0  0  0  0  0  0
  -21.4236   14.3796  -17.4568 C   0  0  0  0  0  0  0  0  0  0  0  0
  -20.7816   13.1707  -17.3432 C   0  0  0  0  0  0  0  0  0  0  0  0
  -19.8223   12.8572  -18.3080 C   0  0  0  0  0  0  0  0  0  0  0  0
  -19.5761   13.7676  -19.3092 C   0  0  0  0  0  0  0  0  0  0  0  0
  -18.6862   13.6968  -20.3661 C   0  0  0  0  0  0  0  0  0  0  0  0
  -17.7783   12.7341  -20.7849 C   0  0  0  0  0  0  0  0  0  0  0  0
  -17.4629   11.4087  -20.1707 C   0  0  0  0  0  0  0  0  0  0  0  0
  -16.4689   10.8183  -21.0203 N   0  0  0  0  0  0  0  0  0  0  0  0
  -16.1551   11.7148  -22.0829 C   0  0  0  0  0  0  0  0  0  0  0  0
  -15.3122   11.4324  -22.9380 O   0  0  0  0  0  0  0  0  0  0  0  0
  -16.9869   12.8910  -21.9040 C   0  0  0  0  0  0  0  0  0  0  0  0
  -17.1445   14.0736  -22.5962 C   0  0  0  0  0  0  0  0  0  0  0  0
  -16.5508   14.6021  -23.7228 C   0  0  0  0  0  0  0  0  0  0  0  0
  -15.5936   14.1556  -24.5890 C   0  0  0  0  0  0  0  0  0  0  0  0
  -15.2209   14.9731  -25.6553 C   0  0  0  0  0  0  0  0  0  0  0  0
  -15.7779   16.2143  -25.8730 C   0  0  0  0  0  0  0  0  0  0  0  0
  -16.7442   16.6633  -24.9969 C   0  0  0  0  0  0  0  0  0  0  0  0
  -17.1079   15.8676  -23.9579 C   0  0  0  0  0  0  0  0  0  0  0  0
  -18.0082   16.0847  -22.9971 N   0  0  0  0  0  0  0  0  0  0  0  0
  -18.0499   15.0316  -22.1761 C   0  0  0  0  0  0  0  0  0  0  0  0
  -18.8316   14.8445  -21.0521 C   0  0  0  0  0  0  0  0  0  0  0  0
  -16.0419    9.8578  -20.8666 H   0  0  0  0  0  0  0  0  0  0  0  0
  -16.0754   17.8727  -20.5160 C   0  0  0  0  0  0  0  0  0  0  0  0
  -17.3194   18.0534  -19.7968 N   0  0  0  0  0  0  0  0  0  0  0  0
  -17.1373   18.6903  -19.0159 H   0  0  0  0  0  0  0  0  0  0  0  0
  -19.6290   18.1716  -18.9565 O   0  0  0  0  0  0  0  0  0  0  0  0
  -20.3939   19.1348  -18.3607 C   0  0  0  0  0  0  0  0  0  0  0  0
 33 34  1  0  0  0
 34  1  1  0  0  0
  1  2  1  0  0  0
  2  3  1  0  0  0
  3  4  1  0  0  0
  4  5  1  0  0  0
  5  6  1  0  0  0
  5  7  1  0  0  0
  7 36  1  0  0  0
 36 37  1  0  0  0
  5  8  1  0  0  0
  8  9  1  0  0  0
  9 10  2  0  0  0
 10 11  1  0  0  0
 11 12  2  0  0  0
 12 13  1  0  0  0
 13 14  2  0  0  0
 14 15  1  0  0  0
 15 16  2  0  0  0
 16 17  1  0  0  0
 17 18  1  0  0  0
 18 19  1  0  0  0
 19 20  2  0  0  0
 19 21  1  0  0  0
 21 22  2  0  0  0
 22 23  1  0  0  0
 23 24  2  0  0  0
 24 25  1  0  0  0
 25 26  2  0  0  0
 26 27  1  0  0  0
 27 28  2  0  0  0
 28 29  1  0  0  0
 29 30  1  0  0  0
 30 31  2  0  0  0
  7  1  1  0  0  0
 31  8  1  0  0  0
 29  3  1  0  0  0
 14  9  1  0  0  0
 31 15  1  0  0  0
 21 16  1  0  0  0
 30 22  1  0  0  0
 28 23  1  0  0  0
 34 35  1  0  0  0
 18 32  1  0  0  0
M  END
> <minimizedAffinity>
-10.66349

> <CNNscore>
0.5659241080

> <CNNaffinity>
6.9780435562

> <CNN_VS>
3.9490430355

> <CNNaffinity_variance>
0.1541037560

$$$$
[H]c1c([H])c([H])c2c(c1[H])c1c3c(c4c5c([H])c([H])c([H])c([H])c5n5c4c1n2[C@@]1([H])O[C@]5(C([H])([H])[H])[C@@]([H])(OC([H])([H])[H])[C@@]([H])(N([H])C([H])([H])[H])C1([H])[H])C([H])([H])N([H])C3=O


 37 44  0  0  0  0  0  0  0  0999 V2000
  -21.5674   15.5230  -18.7314 C   0  0  0  0  0  0  0  0  0  0  0  0
  -21.2110   14.4715  -17.7637 C   0  0  0  0  0  0  0  0  0  0  0  0
  -19.8057   14.5194  -17.2599 C   0  0  0  0  0  0  0  0  0  0  0  0
  -19.0792   15.5833  -17.4732 O   0  0  0  0  0  0  0  0  0  0  0  0
  -19.1830   16.3882  -18.5843 C   0  0  0  0  0  0  0  0  0  0  0  0
  -18.4987   17.6735  -18.0744 C   0  0  0  0  0  0  0  0  0  0  0  0
  -20.5921   16.6731  -18.8450 C   0  0  0  0  0  0  0  0  0  0  0  0
  -18.4135   15.7871  -19.6608 N   0  0  0  0  0  0  0  0  0  0  0  0
  -17.8450   16.3838  -20.7134 C   0  0  0  0  0  0  0  0  0  0  0  0
  -17.8265   17.6812  -21.1303 C   0  0  0  0  0  0  0  0  0  0  0  0
  -17.1471   18.0379  -22.2856 C   0  0  0  0  0  0  0  0  0  0  0  0
  -16.4696   17.1272  -23.0590 C   0  0  0  0  0  0  0  0  0  0  0  0
  -16.4807   15.7942  -22.6437 C   0  0  0  0  0  0  0  0  0  0  0  0
  -17.1627   15.4704  -21.4940 C   0  0  0  0  0  0  0  0  0  0  0  0
  -17.3249   14.2404  -20.8818 C   0  0  0  0  0  0  0  0  0  0  0  0
  -16.8764   12.9610  -21.1793 C   0  0  0  0  0  0  0  0  0  0  0  0
  -16.0426   12.5010  -22.3312 C   0  0  0  0  0  0  0  0  0  0  0  0
  -15.8612   11.0913  -22.1354 N   0  0  0  0  0  0  0  0  0  0  0  0
  -16.5523   10.6796  -20.9589 C   0  0  0  0  0  0  0  0  0  0  0  0
  -16.5546    9.5025  -20.5904 O   0  0  0  0  0  0  0  0  0  0  0  0
  -17.1688   11.8658  -20.3931 C   0  0  0  0  0  0  0  0  0  0  0  0
  -17.9442   12.1099  -19.2788 C   0  0  0  0  0  0  0  0  0  0  0  0
  -18.4504   11.3074  -18.2784 C   0  0  0  0  0  0  0  0  0  0  0  0
  -18.3688    9.9725  -18.0003 C   0  0  0  0  0  0  0  0  0  0  0  0
  -19.0216    9.4824  -16.8698 C   0  0  0  0  0  0  0  0  0  0  0  0
  -19.7469   10.2885  -16.0198 C   0  0  0  0  0  0  0  0  0  0  0  0
  -19.8282   11.6362  -16.3028 C   0  0  0  0  0  0  0  0  0  0  0  0
  -19.1925   12.1145  -17.4038 C   0  0  0  0  0  0  0  0  0  0  0  0
  -19.1285   13.3625  -17.8718 N   0  0  0  0  0  0  0  0  0  0  0  0
  -18.3903   13.3861  -18.9850 C   0  0  0  0  0  0  0  0  0  0  0  0
  -18.0782   14.4647  -19.7904 C   0  0  0  0  0  0  0  0  0  0  0  0
  -15.2949   10.4641  -22.7792 H   0  0  0  0  0  0  0  0  0  0  0  0
  -21.3193   13.6131  -20.0580 C   0  0  0  0  0  0  0  0  0  0  0  0
  -21.7944   14.9811  -20.0777 N   0  0  0  0  0  0  0  0  0  0  0  0
  -22.7841   14.9627  -20.3399 H   0  0  0  0  0  0  0  0  0  0  0  0
  -20.9233   17.2820  -20.0455 O   0  0  0  0  0  0  0  0  0  0  0  0
  -21.4927   18.5204  -19.9446 C   0  0  0  0  0  0  0  0  0  0  0  0
 33 34  1  0  0  0
 34  1  1  0  0  0
  1  2  1  0  0  0
  2  3  1  0  0  0
  3  4  1  0  0  0
  4  5  1  0  0  0
  5  6  1  0  0  0
  5  7  1  0  0  0
  7 36  1  0  0  0
 36 37  1  0  0  0
  5  8  1  0  0  0
  8  9  1  0  0  0
  9 10  2  0  0  0
 10 11  1  0  0  0
 11 12  2  0  0  0
 12 13  1  0  0  0
 13 14  2  0  0  0
 14 15  1  0  0  0
 15 16  2  0  0  0
 16 17  1  0  0  0
 17 18  1  0  0  0
 18 19  1  0  0  0
 19 20  2  0  0  0
 19 21  1  0  0  0
 21 22  2  0  0  0
 22 23  1  0  0  0
 23 24  2  0  0  0
 24 25  1  0  0  0
 25 26  2  0  0  0
 26 27  1  0  0  0
 27 28  2  0  0  0
 28 29  1  0  0  0
 29 30  1  0  0  0
 30 31  2  0  0  0
  7  1  1  0  0  0
 31  8  1  0  0  0
 29  3  1  0  0  0
 14  9  1  0  0  0
 31 15  1  0  0  0
 21 16  1  0  0  0
 30 22  1  0  0  0
 28 23  1  0  0  0
 34 35  1  0  0  0
 18 32  1  0  0  0
M  END
> <minimizedAffinity>
-9.14351

> <CNNscore>
0.5162002444

> <CNNaffinity>
6.9085526466

> <CNN_VS>
3.5661966801

> <CNNaffinity_variance>
0.0680173188

$$$$
[H]c1c([H])c([H])c2c(c1[H])c1c3c(c4c5c([H])c([H])c([H])c([H])c5n5c4c1n2[C@@]1([H])O[C@]5(C([H])([H])[H])[C@@]([H])(OC([H])([H])[H])[C@@]([H])(N([H])C([H])([H])[H])C1([H])[H])C([H])([H])N([H])C3=O


 37 44  0  0  0  0  0  0  0  0999 V2000
  -18.0142   19.0405  -21.1220 C   0  0  0  0  0  0  0  0  0  0  0  0
  -17.9368   18.2055  -22.3329 C   0  0  0  0  0  0  0  0  0  0  0  0
  -19.1364   17.3561  -22.5984 C   0  0  0  0  0  0  0  0  0  0  0  0
  -20.2429   17.5780  -21.9415 O   0  0  0  0  0  0  0  0  0  0  0  0
  -20.3016   18.0416  -20.6475 C   0  0  0  0  0  0  0  0  0  0  0  0
  -21.7517   18.5658  -20.5943 C   0  0  0  0  0  0  0  0  0  0  0  0
  -19.3846   19.1688  -20.4955 C   0  0  0  0  0  0  0  0  0  0  0  0
  -20.1280   16.9141  -19.7470 N   0  0  0  0  0  0  0  0  0  0  0  0
  -20.5580   16.7781  -18.4885 C   0  0  0  0  0  0  0  0  0  0  0  0
  -21.2358   17.6187  -17.6570 C   0  0  0  0  0  0  0  0  0  0  0  0
  -21.5633   17.2199  -16.3697 C   0  0  0  0  0  0  0  0  0  0  0  0
  -21.2320   15.9846  -15.8689 C   0  0  0  0  0  0  0  0  0  0  0  0
  -20.5371   15.1133  -16.7099 C   0  0  0  0  0  0  0  0  0  0  0  0
  -20.2262   15.5364  -17.9812 C   0  0  0  0  0  0  0  0  0  0  0  0
  -19.5513   14.8736  -18.9908 C   0  0  0  0  0  0  0  0  0  0  0  0
  -18.9845   13.6104  -19.0887 C   0  0  0  0  0  0  0  0  0  0  0  0
  -18.9193   12.5267  -18.0616 C   0  0  0  0  0  0  0  0  0  0  0  0
  -18.2427   11.4337  -18.6987 N   0  0  0  0  0  0  0  0  0  0  0  0
  -17.8798   11.8050  -20.0260 C   0  0  0  0  0  0  0  0  0  0  0  0
  -17.2721   11.0307  -20.7694 O   0  0  0  0  0  0  0  0  0  0  0  0
  -18.3568   13.1604  -20.2319 C   0  0  0  0  0  0  0  0  0  0  0  0
  -18.3182   14.0448  -21.2896 C   0  0  0  0  0  0  0  0  0  0  0  0
  -17.7884   13.9837  -22.5611 C   0  0  0  0  0  0  0  0  0  0  0  0
  -17.1137   13.0255  -23.2628 C   0  0  0  0  0  0  0  0  0  0  0  0
  -16.7146   13.3074  -24.5688 C   0  0  0  0  0  0  0  0  0  0  0  0
  -16.9723   14.5136  -25.1828 C   0  0  0  0  0  0  0  0  0  0  0  0
  -17.6536   15.4800  -24.4722 C   0  0  0  0  0  0  0  0  0  0  0  0
  -18.0427   15.2061  -23.2000 C   0  0  0  0  0  0  0  0  0  0  0  0
  -18.7058   15.9724  -22.3317 N   0  0  0  0  0  0  0  0  0  0  0  0
  -18.8835   15.3036  -21.1889 C   0  0  0  0  0  0  0  0  0  0  0  0
  -19.5087   15.7251  -20.0310 C   0  0  0  0  0  0  0  0  0  0  0  0
  -18.0494   10.4967  -18.2370 H   0  0  0  0  0  0  0  0  0  0  0  0
  -16.0746   17.7883  -20.7488 C   0  0  0  0  0  0  0  0  0  0  0  0
  -17.0761   18.5954  -20.0830 N   0  0  0  0  0  0  0  0  0  0  0  0
  -16.5932   19.3713  -19.6211 H   0  0  0  0  0  0  0  0  0  0  0  0
  -19.1303   19.6351  -19.2151 O   0  0  0  0  0  0  0  0  0  0  0  0
  -19.5539   20.9077  -18.9529 C   0  0  0  0  0  0  0  0  0  0  0  0
 33 34  1  0  0  0
 34  1  1  0  0  0
  1  2  1  0  0  0
  2  3  1  0  0  0
  3  4  1  0  0  0
  4  5  1  0  0  0
  5  6  1  0  0  0
  5  7  1  0  0  0
  7 36  1  0  0  0
 36 37  1  0  0  0
  5  8  1  0  0  0
  8  9  1  0  0  0
  9 10  2  0  0  0
 10 11  1  0  0  0
 11 12  2  0  0  0
 12 13  1  0  0  0
 13 14  2  0  0  0
 14 15  1  0  0  0
 15 16  2  0  0  0
 16 17  1  0  0  0
 17 18  1  0  0  0
 18 19  1  0  0  0
 19 20  2  0  0  0
 19 21  1  0  0  0
 21 22  2  0  0  0
 22 23  1  0  0  0
 23 24  2  0  0  0
 24 25  1  0  0  0
 25 26  2  0  0  0
 26 27  1  0  0  0
 27 28  2  0  0  0
 28 29  1  0  0  0
 29 30  1  0  0  0
 30 31  2  0  0  0
  7  1  1  0  0  0
 31  8  1  0  0  0
 29  3  1  0  0  0
 14  9  1  0  0  0
 31 15  1  0  0  0
 21 16  1  0  0  0
 30 22  1  0  0  0
 28 23  1  0  0  0
 34 35  1  0  0  0
 18 32  1  0  0  0
M  END
> <minimizedAffinity>
-9.94783

> <CNNscore>
0.3144780993

> <CNNaffinity>
6.3648033142

> <CNN_VS>
2.0015912056

> <CNNaffinity_variance>
0.3398123682

$$$$
[H]c1c([H])c([H])c2c(c1[H])c1c3c(c4c5c([H])c([H])c([H])c([H])c5n5c4c1n2[C@@]1([H])O[C@]5(C([H])([H])[H])[C@@]([H])(OC([H])([H])[H])[C@@]([H])(N([H])C([H])([H])[H])C1([H])[H])C([H])([H])N([H])C3=O


 37 44  0  0  0  0  0  0  0  0999 V2000
  -19.9770   17.6842  -17.5204 C   0  0  0  0  0  0  0  0  0  0  0  0
  -19.9812   17.7352  -18.9924 C   0  0  0  0  0  0  0  0  0  0  0  0
  -20.8972   16.7629  -19.6606 C   0  0  0  0  0  0  0  0  0  0  0  0
  -21.8009   16.1375  -18.9553 O   0  0  0  0  0  0  0  0  0  0  0  0
  -21.6463   15.7724  -17.6378 C   0  0  0  0  0  0  0  0  0  0  0  0
  -23.1167   15.5566  -17.2238 C   0  0  0  0  0  0  0  0  0  0  0  0
  -21.1025   16.8997  -16.8842 C   0  0  0  0  0  0  0  0  0  0  0  0
  -20.9090   14.5208  -17.5912 N   0  0  0  0  0  0  0  0  0  0  0  0
  -20.9248   13.5784  -16.6432 C   0  0  0  0  0  0  0  0  0  0  0  0
  -21.5738   13.4936  -15.4479 C   0  0  0  0  0  0  0  0  0  0  0  0
  -21.4095   12.3805  -14.6370 C   0  0  0  0  0  0  0  0  0  0  0  0
  -20.6027   11.3238  -14.9821 C   0  0  0  0  0  0  0  0  0  0  0  0
  -19.9313   11.3977  -16.2040 C   0  0  0  0  0  0  0  0  0  0  0  0
  -20.1138   12.5138  -16.9869 C   0  0  0  0  0  0  0  0  0  0  0  0
  -19.5683   12.8250  -18.2196 C   0  0  0  0  0  0  0  0  0  0  0  0
  -18.6979   12.1599  -19.0721 C   0  0  0  0  0  0  0  0  0  0  0  0
  -18.0390   10.8304  -18.8933 C   0  0  0  0  0  0  0  0  0  0  0  0
  -17.2635   10.6229  -20.0823 N   0  0  0  0  0  0  0  0  0  0  0  0
  -17.3979   11.7509  -20.9432 C   0  0  0  0  0  0  0  0  0  0  0  0
  -16.8092   11.8105  -22.0255 O   0  0  0  0  0  0  0  0  0  0  0  0
  -18.2950   12.6822  -20.2837 C   0  0  0  0  0  0  0  0  0  0  0  0
  -18.8075   13.9206  -20.6098 C   0  0  0  0  0  0  0  0  0  0  0  0
  -18.6449   14.7625  -21.6896 C   0  0  0  0  0  0  0  0  0  0  0  0
  -17.9287   14.6892  -22.8504 C   0  0  0  0  0  0  0  0  0  0  0  0
  -17.9975   15.7535  -23.7486 C   0  0  0  0  0  0  0  0  0  0  0  0
  -18.7586   16.8780  -23.5148 C   0  0  0  0  0  0  0  0  0  0  0  0
  -19.4809   16.9500  -22.3418 C   0  0  0  0  0  0  0  0  0  0  0  0
  -19.4144   15.9136  -21.4663 C   0  0  0  0  0  0  0  0  0  0  0  0
  -20.0178   15.7595  -20.2861 N   0  0  0  0  0  0  0  0  0  0  0  0
  -19.6744   14.5814  -19.7579 C   0  0  0  0  0  0  0  0  0  0  0  0
  -20.0626   14.0310  -18.5514 C   0  0  0  0  0  0  0  0  0  0  0  0
  -16.6826    9.7548  -20.2760 H   0  0  0  0  0  0  0  0  0  0  0  0
  -17.8261   16.9931  -18.1246 C   0  0  0  0  0  0  0  0  0  0  0  0
  -18.7063   17.1739  -16.9888 N   0  0  0  0  0  0  0  0  0  0  0  0
  -18.2515   17.8266  -16.3440 H   0  0  0  0  0  0  0  0  0  0  0  0
  -20.6657   16.6688  -15.5890 O   0  0  0  0  0  0  0  0  0  0  0  0
  -21.3064   17.3781  -14.6122 C   0  0  0  0  0  0  0  0  0  0  0  0
 33 34  1  0  0  0
 34  1  1  0  0  0
  1  2  1  0  0  0
  2  3  1  0  0  0
  3  4  1  0  0  0
  4  5  1  0  0  0
  5  6  1  0  0  0
  5  7  1  0  0  0
  7 36  1  0  0  0
 36 37  1  0  0  0
  5  8  1  0  0  0
  8  9  1  0  0  0
  9 10  2  0  0  0
 10 11  1  0  0  0
 11 12  2  0  0  0
 12 13  1  0  0  0
 13 14  2  0  0  0
 14 15  1  0  0  0
 15 16  2  0  0  0
 16 17  1  0  0  0
 17 18  1  0  0  0
 18 19  1  0  0  0
 19 20  2  0  0  0
 19 21  1  0  0  0
 21 22  2  0  0  0
 22 23  1  0  0  0
 23 24  2  0  0  0
 24 25  1  0  0  0
 25 26  2  0  0  0
 26 27  1  0  0  0
 27 28  2  0  0  0
 28 29  1  0  0  0
 29 30  1  0  0  0
 30 31  2  0  0  0
  7  1  1  0  0  0
 31  8  1  0  0  0
 29  3  1  0  0  0
 14  9  1  0  0  0
 31 15  1  0  0  0
 21 16  1  0  0  0
 30 22  1  0  0  0
 28 23  1  0  0  0
 34 35  1  0  0  0
 18 32  1  0  0  0
M  END
> <minimizedAffinity>
-8.91967

> <CNNscore>
0.2950108647

> <CNNaffinity>
6.3248510361

> <CNN_VS>
1.8658998013

> <CNNaffinity_variance>
0.1483257115

$$$$
[H]c1c([H])c([H])c2c(c1[H])c1c3c(c4c5c([H])c([H])c([H])c([H])c5n5c4c1n2[C@@]1([H])O[C@]5(C([H])([H])[H])[C@@]([H])(OC([H])([H])[H])[C@@]([H])(N([H])C([H])([H])[H])C1([H])[H])C([H])([H])N([H])C3=O


 37 44  0  0  0  0  0  0  0  0999 V2000
  -18.1224   17.9814  -20.7421 C   0  0  0  0  0  0  0  0  0  0  0  0
  -17.7000   16.9171  -21.6686 C   0  0  0  0  0  0  0  0  0  0  0  0
  -18.7887   16.0036  -22.1280 C   0  0  0  0  0  0  0  0  0  0  0  0
  -20.0359   16.3300  -21.9208 O   0  0  0  0  0  0  0  0  0  0  0  0
  -20.4839   17.0484  -20.8363 C   0  0  0  0  0  0  0  0  0  0  0  0
  -21.8502   17.5384  -21.3591 C   0  0  0  0  0  0  0  0  0  0  0  0
  -19.6140   18.2038  -20.6289 C   0  0  0  0  0  0  0  0  0  0  0  0
  -20.6571   16.1347  -19.7194 N   0  0  0  0  0  0  0  0  0  0  0  0
  -21.4718   16.2506  -18.6659 C   0  0  0  0  0  0  0  0  0  0  0  0
  -22.3414   17.2282  -18.2845 C   0  0  0  0  0  0  0  0  0  0  0  0
  -23.0800   17.0952  -17.1182 C   0  0  0  0  0  0  0  0  0  0  0  0
  -22.9813   15.9975  -16.2986 C   0  0  0  0  0  0  0  0  0  0  0  0
  -22.0938   14.9883  -16.6771 C   0  0  0  0  0  0  0  0  0  0  0  0
  -21.3749   15.1478  -17.8388 C   0  0  0  0  0  0  0  0  0  0  0  0
  -20.4434   14.3074  -18.4219 C   0  0  0  0  0  0  0  0  0  0  0  0
  -19.9318   13.0647  -18.0749 C   0  0  0  0  0  0  0  0  0  0  0  0
  -20.2462   12.2174  -16.8846 C   0  0  0  0  0  0  0  0  0  0  0  0
  -19.4510   11.0327  -17.0355 N   0  0  0  0  0  0  0  0  0  0  0  0
  -18.6673   11.1313  -18.2218 C   0  0  0  0  0  0  0  0  0  0  0  0
  -17.8892   10.2351  -18.5576 O   0  0  0  0  0  0  0  0  0  0  0  0
  -18.9928   12.4039  -18.8396 C   0  0  0  0  0  0  0  0  0  0  0  0
  -18.5793   13.0524  -19.9846 C   0  0  0  0  0  0  0  0  0  0  0  0
  -17.6747   12.7434  -20.9783 C   0  0  0  0  0  0  0  0  0  0  0  0
  -16.8548   11.6773  -21.2167 C   0  0  0  0  0  0  0  0  0  0  0  0
  -16.0476   11.6937  -22.3537 C   0  0  0  0  0  0  0  0  0  0  0  0
  -16.0418   12.7414  -23.2484 C   0  0  0  0  0  0  0  0  0  0  0  0
  -16.8705   13.8171  -23.0055 C   0  0  0  0  0  0  0  0  0  0  0  0
  -17.6571   13.8019  -21.8982 C   0  0  0  0  0  0  0  0  0  0  0  0
  -18.5278   14.7147  -21.4630 N   0  0  0  0  0  0  0  0  0  0  0  0
  -19.0905   14.2914  -20.3277 C   0  0  0  0  0  0  0  0  0  0  0  0
  -20.0331   14.9274  -19.5427 C   0  0  0  0  0  0  0  0  0  0  0  0
  -19.4571   10.2155  -16.3568 H   0  0  0  0  0  0  0  0  0  0  0  0
  -16.4368   16.9105  -19.5252 C   0  0  0  0  0  0  0  0  0  0  0  0
  -17.5858   17.7816  -19.3894 N   0  0  0  0  0  0  0  0  0  0  0  0
  -17.2667   18.6513  -18.9532 H   0  0  0  0  0  0  0  0  0  0  0  0
  -19.7611   18.9294  -19.4570 O   0  0  0  0  0  0  0  0  0  0  0  0
  -20.1533   20.2296  -19.6102 C   0  0  0  0  0  0  0  0  0  0  0  0
 33 34  1  0  0  0
 34  1  1  0  0  0
  1  2  1  0  0  0
  2  3  1  0  0  0
  3  4  1  0  0  0
  4  5  1  0  0  0
  5  6  1  0  0  0
  5  7  1  0  0  0
  7 36  1  0  0  0
 36 37  1  0  0  0
  5  8  1  0  0  0
  8  9  1  0  0  0
  9 10  2  0  0  0
 10 11  1  0  0  0
 11 12  2  0  0  0
 12 13  1  0  0  0
 13 14  2  0  0  0
 14 15  1  0  0  0
 15 16  2  0  0  0
 16 17  1  0  0  0
 17 18  1  0  0  0
 18 19  1  0  0  0
 19 20  2  0  0  0
 19 21  1  0  0  0
 21 22  2  0  0  0
 22 23  1  0  0  0
 23 24  2  0  0  0
 24 25  1  0  0  0
 25 26  2  0  0  0
 26 27  1  0  0  0
 27 28  2  0  0  0
 28 29  1  0  0  0
 29 30  1  0  0  0
 30 31  2  0  0  0
  7  1  1  0  0  0
 31  8  1  0  0  0
 29  3  1  0  0  0
 14  9  1  0  0  0
 31 15  1  0  0  0
 21 16  1  0  0  0
 30 22  1  0  0  0
 28 23  1  0  0  0
 34 35  1  0  0  0
 18 32  1  0  0  0
M  END
> <minimizedAffinity>
-9.06581

> <CNNscore>
0.2765382826

> <CNNaffinity>
6.4150490761

> <CNN_VS>
1.7740066051

> <CNNaffinity_variance>
0.1430190504

$$$$
[H]c1c([H])c([H])c2c(c1[H])c1c3c(c4c5c([H])c([H])c([H])c([H])c5n5c4c1n2[C@@]1([H])O[C@]5(C([H])([H])[H])[C@@]([H])(OC([H])([H])[H])[C@@]([H])(N([H])C([H])([H])[H])C1([H])[H])C([H])([H])N([H])C3=O


 37 44  0  0  0  0  0  0  0  0999 V2000
  -18.7494   16.9603  -19.5196 C   0  0  0  0  0  0  0  0  0  0  0  0
  -18.3538   15.6679  -20.1048 C   0  0  0  0  0  0  0  0  0  0  0  0
  -19.4824   14.7498  -20.4428 C   0  0  0  0  0  0  0  0  0  0  0  0
  -20.7049   15.2084  -20.4601 O   0  0  0  0  0  0  0  0  0  0  0  0
  -21.1736   16.2093  -19.6407 C   0  0  0  0  0  0  0  0  0  0  0  0
  -22.4339   16.6491  -20.4143 C   0  0  0  0  0  0  0  0  0  0  0  0
  -20.2160   17.3127  -19.6288 C   0  0  0  0  0  0  0  0  0  0  0  0
  -21.5333   15.6241  -18.3599 N   0  0  0  0  0  0  0  0  0  0  0  0
  -22.4221   16.0628  -17.4628 C   0  0  0  0  0  0  0  0  0  0  0  0
  -23.2215   17.1661  -17.4305 C   0  0  0  0  0  0  0  0  0  0  0  0
  -24.0693   17.3878  -16.3555 C   0  0  0  0  0  0  0  0  0  0  0  0
  -24.1513   16.5298  -15.2860 C   0  0  0  0  0  0  0  0  0  0  0  0
  -23.3375   15.3955  -15.3059 C   0  0  0  0  0  0  0  0  0  0  0  0
  -22.5071   15.2020  -16.3852 C   0  0  0  0  0  0  0  0  0  0  0  0
  -21.6150   14.1754  -16.6386 C   0  0  0  0  0  0  0  0  0  0  0  0
  -21.2606   13.0274  -15.9436 C   0  0  0  0  0  0  0  0  0  0  0  0
  -21.7600   12.5352  -14.6238 C   0  0  0  0  0  0  0  0  0  0  0  0
  -21.0750   11.2962  -14.3915 N   0  0  0  0  0  0  0  0  0  0  0  0
  -20.1842   11.0330  -15.4725 C   0  0  0  0  0  0  0  0  0  0  0  0
  -19.4714   10.0264  -15.4909 O   0  0  0  0  0  0  0  0  0  0  0  0
  -20.3275   12.1274  -16.4153 C   0  0  0  0  0  0  0  0  0  0  0  0
  -19.7532   12.4320  -17.6318 C   0  0  0  0  0  0  0  0  0  0  0  0
  -18.7996   11.8156  -18.4140 C   0  0  0  0  0  0  0  0  0  0  0  0
  -18.0706   10.6669  -18.2924 C   0  0  0  0  0  0  0  0  0  0  0  0
  -17.1689   10.3353  -19.3030 C   0  0  0  0  0  0  0  0  0  0  0  0
  -16.9816   11.1183  -20.4211 C   0  0  0  0  0  0  0  0  0  0  0  0
  -17.7188   12.2780  -20.5417 C   0  0  0  0  0  0  0  0  0  0  0  0
  -18.5973   12.6018  -19.5577 C   0  0  0  0  0  0  0  0  0  0  0  0
  -19.4089   13.6564  -19.4577 N   0  0  0  0  0  0  0  0  0  0  0  0
  -20.1081   13.5773  -18.3221 C   0  0  0  0  0  0  0  0  0  0  0  0
  -21.0490   14.4589  -17.8253 C   0  0  0  0  0  0  0  0  0  0  0  0
  -21.2209   10.6807  -13.5381 H   0  0  0  0  0  0  0  0  0  0  0  0
  -17.5588   15.9005  -17.8085 C   0  0  0  0  0  0  0  0  0  0  0  0
  -18.3560   17.0717  -18.1088 N   0  0  0  0  0  0  0  0  0  0  0  0
  -17.7804   17.8968  -17.9180 H   0  0  0  0  0  0  0  0  0  0  0  0
  -20.3936   18.3206  -18.6939 O   0  0  0  0  0  0  0  0  0  0  0  0
  -20.6526   19.5622  -19.2030 C   0  0  0  0  0  0  0  0  0  0  0  0
 33 34  1  0  0  0
 34  1  1  0  0  0
  1  2  1  0  0  0
  2  3  1  0  0  0
  3  4  1  0  0  0
  4  5  1  0  0  0
  5  6  1  0  0  0
  5  7  1  0  0  0
  7 36  1  0  0  0
 36 37  1  0  0  0
  5  8  1  0  0  0
  8  9  1  0  0  0
  9 10  2  0  0  0
 10 11  1  0  0  0
 11 12  2  0  0  0
 12 13  1  0  0  0
 13 14  2  0  0  0
 14 15  1  0  0  0
 15 16  2  0  0  0
 16 17  1  0  0  0
 17 18  1  0  0  0
 18 19  1  0  0  0
 19 20  2  0  0  0
 19 21  1  0  0  0
 21 22  2  0  0  0
 22 23  1  0  0  0
 23 24  2  0  0  0
 24 25  1  0  0  0
 25 26  2  0  0  0
 26 27  1  0  0  0
 27 28  2  0  0  0
 28 29  1  0  0  0
 29 30  1  0  0  0
 30 31  2  0  0  0
  7  1  1  0  0  0
 31  8  1  0  0  0
 29  3  1  0  0  0
 14  9  1  0  0  0
 31 15  1  0  0  0
 21 16  1  0  0  0
 30 22  1  0  0  0
 28 23  1  0  0  0
 34 35  1  0  0  0
 18 32  1  0  0  0
M  END
> <minimizedAffinity>
-8.73610

> <CNNscore>
0.2139101177

> <CNNaffinity>
5.5164809227

> <CNN_VS>
1.1800310612

> <CNNaffinity_variance>
1.2625894547

$$$$
[H]c1c([H])c([H])c2c(c1[H])c1c3c(c4c5c([H])c([H])c([H])c([H])c5n5c4c1n2[C@@]1([H])O[C@]5(C([H])([H])[H])[C@@]([H])(OC([H])([H])[H])[C@@]([H])(N([H])C([H])([H])[H])C1([H])[H])C([H])([H])N([H])C3=O


 37 44  0  0  0  0  0  0  0  0999 V2000
  -17.4204   18.3876  -22.1498 C   0  0  0  0  0  0  0  0  0  0  0  0
  -17.0552   17.0804  -22.7217 C   0  0  0  0  0  0  0  0  0  0  0  0
  -18.2026   16.2488  -23.1936 C   0  0  0  0  0  0  0  0  0  0  0  0
  -19.3831   16.7917  -23.3240 O   0  0  0  0  0  0  0  0  0  0  0  0
  -19.8646   17.8095  -22.5333 C   0  0  0  0  0  0  0  0  0  0  0  0
  -21.0061   18.3485  -23.4201 C   0  0  0  0  0  0  0  0  0  0  0  0
  -18.8408   18.8431  -22.3988 C   0  0  0  0  0  0  0  0  0  0  0  0
  -20.3927   17.2301  -21.3094 N   0  0  0  0  0  0  0  0  0  0  0  0
  -21.3372   17.7151  -20.4971 C   0  0  0  0  0  0  0  0  0  0  0  0
  -22.0592   18.8708  -20.5204 C   0  0  0  0  0  0  0  0  0  0  0  0
  -22.9958   19.1336  -19.5319 C   0  0  0  0  0  0  0  0  0  0  0  0
  -23.2452   18.2662  -18.4965 C   0  0  0  0  0  0  0  0  0  0  0  0
  -22.5123   17.0784  -18.4601 C   0  0  0  0  0  0  0  0  0  0  0  0
  -21.5904   16.8450  -19.4539 C   0  0  0  0  0  0  0  0  0  0  0  0
  -20.7486   15.7629  -19.6394 C   0  0  0  0  0  0  0  0  0  0  0  0
  -20.5459   14.5820  -18.9389 C   0  0  0  0  0  0  0  0  0  0  0  0
  -21.2104   14.1045  -17.6883 C   0  0  0  0  0  0  0  0  0  0  0  0
  -20.6383   12.8171  -17.4166 N   0  0  0  0  0  0  0  0  0  0  0  0
  -19.6610   12.5099  -18.4076 C   0  0  0  0  0  0  0  0  0  0  0  0
  -19.0200   11.4566  -18.3771 O   0  0  0  0  0  0  0  0  0  0  0  0
  -19.6324   13.6268  -19.3344 C   0  0  0  0  0  0  0  0  0  0  0  0
  -18.9169   13.9103  -20.4791 C   0  0  0  0  0  0  0  0  0  0  0  0
  -17.9320   13.2417  -21.1747 C   0  0  0  0  0  0  0  0  0  0  0  0
  -17.2987   12.0432  -21.0065 C   0  0  0  0  0  0  0  0  0  0  0  0
  -16.3226   11.6659  -21.9281 C   0  0  0  0  0  0  0  0  0  0  0  0
  -15.9689   12.4519  -23.0029 C   0  0  0  0  0  0  0  0  0  0  0  0
  -16.6095   13.6620  -23.1706 C   0  0  0  0  0  0  0  0  0  0  0  0
  -17.5605   14.0303  -22.2734 C   0  0  0  0  0  0  0  0  0  0  0  0
  -18.3049   15.1371  -22.2318 N   0  0  0  0  0  0  0  0  0  0  0  0
  -19.1207   15.0886  -21.1750 C   0  0  0  0  0  0  0  0  0  0  0  0
  -20.0458   16.0255  -20.7557 C   0  0  0  0  0  0  0  0  0  0  0  0
  -20.9124   12.1996  -16.5969 H   0  0  0  0  0  0  0  0  0  0  0  0
  -16.0630   17.5495  -20.4398 C   0  0  0  0  0  0  0  0  0  0  0  0
  -17.1673   18.4484  -20.7042 N   0  0  0  0  0  0  0  0  0  0  0  0
  -16.8916   19.3816  -20.3852 H   0  0  0  0  0  0  0  0  0  0  0  0
  -19.0448   19.8457  -21.4635 O   0  0  0  0  0  0  0  0  0  0  0  0
  -19.0821   21.1191  -21.9584 C   0  0  0  0  0  0  0  0  0  0  0  0
 33 34  1  0  0  0
 34  1  1  0  0  0
  1  2  1  0  0  0
  2  3  1  0  0  0
  3  4  1  0  0  0
  4  5  1  0  0  0
  5  6  1  0  0  0
  5  7  1  0  0  0
  7 36  1  0  0  0
 36 37  1  0  0  0
  5  8  1  0  0  0
  8  9  1  0  0  0
  9 10  2  0  0  0
 10 11  1  0  0  0
 11 12  2  0  0  0
 12 13  1  0  0  0
 13 14  2  0  0  0
 14 15  1  0  0  0
 15 16  2  0  0  0
 16 17  1  0  0  0
 17 18  1  0  0  0
 18 19  1  0  0  0
 19 20  2  0  0  0
 19 21  1  0  0  0
 21 22  2  0  0  0
 22 23  1  0  0  0
 23 24  2  0  0  0
 24 25  1  0  0  0
 25 26  2  0  0  0
 26 27  1  0  0  0
 27 28  2  0  0  0
 28 29  1  0  0  0
 29 30  1  0  0  0
 30 31  2  0  0  0
  7  1  1  0  0  0
 31  8  1  0  0  0
 29  3  1  0  0  0
 14  9  1  0  0  0
 31 15  1  0  0  0
 21 16  1  0  0  0
 30 22  1  0  0  0
 28 23  1  0  0  0
 34 35  1  0  0  0
 18 32  1  0  0  0
M  END
> <minimizedAffinity>
-9.30859

> <CNNscore>
0.1605347991

> <CNNaffinity>
5.9636340141

> <CNN_VS>
0.9573708177

> <CNNaffinity_variance>
0.5189958811

$$$$
[H]c1nc([H])c(-c2nc(N([H])c3c([H])c(N([H])C(=O)c4c([H])c([H])c(C([H])([H])N5C([H])([H])C([H])([H])[C@]([H])(N(C([H])([H])[H])C([H])([H])[H])C5([H])[H])c(C(F)(F)F)c4[H])c([H])c([H])c3C([H])([H])[H])nc([H])c2[H])c([H])n1


 44 48  0  0  0  0  0  0  0  0999 V2000
  -19.1115   15.5592  -18.8085 C   0  0  0  0  0  0  0  0  0  0  0  0
  -18.4909   15.9052  -19.8148 O   0  0  0  0  0  0  0  0  0  0  0  0
  -19.8194   16.5072  -18.0316 N   0  0  0  0  0  0  0  0  0  0  0  0
  -20.3053   16.0771  -17.1662 H   0  0  0  0  0  0  0  0  0  0  0  0
  -19.9814   17.8733  -18.2220 C   0  0  0  0  0  0  0  0  0  0  0  0
  -19.9289   18.6872  -17.0803 C   0  0  0  0  0  0  0  0  0  0  0  0
  -20.0742   20.0440  -17.1368 C   0  0  0  0  0  0  0  0  0  0  0  0
  -20.2810   20.6527  -18.3548 C   0  0  0  0  0  0  0  0  0  0  0  0
  -20.4501   22.1158  -18.4486 C   0  0  0  0  0  0  0  0  0  0  0  0
  -20.3459   19.9038  -19.5419 C   0  0  0  0  0  0  0  0  0  0  0  0
  -20.1921   18.5344  -19.4203 C   0  0  0  0  0  0  0  0  0  0  0  0
  -20.5052   20.6021  -20.7346 N   0  0  0  0  0  0  0  0  0  0  0  0
  -19.5962   21.1013  -21.1045 H   0  0  0  0  0  0  0  0  0  0  0  0
  -21.6180   20.7937  -21.5851 C   0  0  0  0  0  0  0  0  0  0  0  0
  -22.5307   21.7598  -21.2699 N   0  0  0  0  0  0  0  0  0  0  0  0
  -23.6010   21.9460  -22.0212 C   0  0  0  0  0  0  0  0  0  0  0  0
  -23.8056   21.1519  -23.1460 C   0  0  0  0  0  0  0  0  0  0  0  0
  -22.8981   20.1905  -23.4586 C   0  0  0  0  0  0  0  0  0  0  0  0
  -21.8249   20.0484  -22.6540 N   0  0  0  0  0  0  0  0  0  0  0  0
  -23.1308   19.3364  -24.6141 C   0  0  0  0  0  0  0  0  0  0  0  0
  -23.2976   19.7824  -25.8991 C   0  0  0  0  0  0  0  0  0  0  0  0
  -23.5296   18.8715  -26.8682 N   0  0  0  0  0  0  0  0  0  0  0  0
  -23.6066   17.5545  -26.6468 C   0  0  0  0  0  0  0  0  0  0  0  0
  -23.4445   17.1036  -25.3867 N   0  0  0  0  0  0  0  0  0  0  0  0
  -23.2124   17.9598  -24.3877 C   0  0  0  0  0  0  0  0  0  0  0  0
  -19.0988   11.3828  -17.6800 C   0  0  0  0  0  0  0  0  0  0  0  0
  -20.0186   12.2998  -17.1698 C   0  0  0  0  0  0  0  0  0  0  0  0
  -20.0307   13.6346  -17.5222 C   0  0  0  0  0  0  0  0  0  0  0  0
  -19.1123   14.1291  -18.4162 C   0  0  0  0  0  0  0  0  0  0  0  0
  -18.2052   13.2459  -18.9263 C   0  0  0  0  0  0  0  0  0  0  0  0
  -18.1791   11.8839  -18.5779 C   0  0  0  0  0  0  0  0  0  0  0  0
  -17.1657   11.0236  -19.1980 C   0  0  0  0  0  0  0  0  0  0  0  0
  -17.4984    9.7136  -19.3508 F   0  0  0  0  0  0  0  0  0  0  0  0
  -16.6486   11.6038  -20.3676 F   0  0  0  0  0  0  0  0  0  0  0  0
  -16.0309   10.9951  -18.3591 F   0  0  0  0  0  0  0  0  0  0  0  0
  -19.0907    9.9567  -17.3507 C   0  0  0  0  0  0  0  0  0  0  0  0
  -20.8107    8.2503  -14.6125 C   0  0  0  0  0  0  0  0  0  0  0  0
  -19.3733    8.3618  -14.1433 C   0  0  0  0  0  0  0  0  0  0  0  0
  -18.6399    8.6139  -15.4576 C   0  0  0  0  0  0  0  0  0  0  0  0
  -19.5196    9.5853  -16.0530 N   0  0  0  0  0  0  0  0  0  0  0  0
  -20.8082    8.9810  -15.9426 C   0  0  0  0  0  0  0  0  0  0  0  0
  -21.1457    6.1277  -13.4858 C   0  0  0  0  0  0  0  0  0  0  0  0
  -21.2884    6.9225  -14.6477 N   0  0  0  0  0  0  0  0  0  0  0  0
  -22.3773    6.6459  -15.5116 C   0  0  0  0  0  0  0  0  0  0  0  0
 42 43  1  0  0  0
 43 44  1  0  0  0
 43 37  1  0  0  0
 37 38  1  0  0  0
 38 39  1  0  0  0
 39 40  1  0  0  0
 40 36  1  0  0  0
 36 26  1  0  0  0
 26 27  2  0  0  0
 27 28  1  0  0  0
 28 29  2  0  0  0
 29 30  1  0  0  0
 30 31  2  0  0  0
 31 32  1  0  0  0
 32 33  1  0  0  0
 32 34  1  0  0  0
 32 35  1  0  0  0
 29  1  1  0  0  0
  1  2  2  0  0  0
  1  3  1  0  0  0
  3  5  1  0  0  0
  5  6  2  0  0  0
  6  7  1  0  0  0
  7  8  2  0  0  0
  8  9  1  0  0  0
  8 10  1  0  0  0
 10 12  1  0  0  0
 12 14  1  0  0  0
 14 15  2  0  0  0
 15 16  1  0  0  0
 16 17  2  0  0  0
 17 18  1  0  0  0
 18 19  2  0  0  0
 18 20  1  0  0  0
 20 21  2  0  0  0
 21 22  1  0  0  0
 22 23  2  0  0  0
 23 24  1  0  0  0
 24 25  2  0  0  0
 10 11  2  0  0  0
 40 41  1  0  0  0
 41 37  1  0  0  0
 31 26  1  0  0  0
 11  5  1  0  0  0
 19 14  1  0  0  0
 25 20  1  0  0  0
  3  4  1  0  0  0
 12 13  1  0  0  0
M  END
> <minimizedAffinity>
-8.08081

> <CNNscore>
0.1658878773

> <CNNaffinity>
6.4558982849

> <CNN_VS>
1.0709552765

> <CNNaffinity_variance>
0.0542239174

$$$$
[H]c1nc([H])c(-c2nc(N([H])c3c([H])c(N([H])C(=O)c4c([H])c([H])c(C([H])([H])N5C([H])([H])C([H])([H])[C@]([H])(N(C([H])([H])[H])C([H])([H])[H])C5([H])[H])c(C(F)(F)F)c4[H])c([H])c([H])c3C([H])([H])[H])nc([H])c2[H])c([H])n1


 44 48  0  0  0  0  0  0  0  0999 V2000
  -19.5987   10.4455  -16.6730 C   0  0  0  0  0  0  0  0  0  0  0  0
  -19.0054   10.0778  -17.6879 O   0  0  0  0  0  0  0  0  0  0  0  0
  -20.1007   11.7645  -16.5644 N   0  0  0  0  0  0  0  0  0  0  0  0
  -20.5837   11.9641  -15.6173 H   0  0  0  0  0  0  0  0  0  0  0  0
  -20.0695   12.8085  -17.4798 C   0  0  0  0  0  0  0  0  0  0  0  0
  -21.1745   13.6730  -17.4993 C   0  0  0  0  0  0  0  0  0  0  0  0
  -21.2623   14.7354  -18.3531 C   0  0  0  0  0  0  0  0  0  0  0  0
  -20.2341   14.9814  -19.2359 C   0  0  0  0  0  0  0  0  0  0  0  0
  -20.3023   16.1163  -20.1769 C   0  0  0  0  0  0  0  0  0  0  0  0
  -19.0953   14.1593  -19.2754 C   0  0  0  0  0  0  0  0  0  0  0  0
  -19.0647   13.0993  -18.3870 C   0  0  0  0  0  0  0  0  0  0  0  0
  -18.0804   14.5090  -20.1603 N   0  0  0  0  0  0  0  0  0  0  0  0
  -17.6866   15.5295  -20.0343 H   0  0  0  0  0  0  0  0  0  0  0  0
  -17.4371   13.8000  -21.2005 C   0  0  0  0  0  0  0  0  0  0  0  0
  -17.2211   12.4596  -21.0501 N   0  0  0  0  0  0  0  0  0  0  0  0
  -16.5929   11.7696  -21.9850 C   0  0  0  0  0  0  0  0  0  0  0  0
  -16.1442   12.4103  -23.1363 C   0  0  0  0  0  0  0  0  0  0  0  0
  -16.3583   13.7435  -23.2851 C   0  0  0  0  0  0  0  0  0  0  0  0
  -17.0060   14.3941  -22.2969 N   0  0  0  0  0  0  0  0  0  0  0  0
  -15.8570   14.4200  -24.4724 C   0  0  0  0  0  0  0  0  0  0  0  0
  -16.6336   14.8586  -25.5128 C   0  0  0  0  0  0  0  0  0  0  0  0
  -16.0240   15.4506  -26.5620 N   0  0  0  0  0  0  0  0  0  0  0  0
  -14.7016   15.6345  -26.6458 C   0  0  0  0  0  0  0  0  0  0  0  0
  -13.9271   15.2070  -25.6287 N   0  0  0  0  0  0  0  0  0  0  0  0
  -14.4761   14.6141  -24.5647 C   0  0  0  0  0  0  0  0  0  0  0  0
  -20.1562    7.6329  -13.4336 C   0  0  0  0  0  0  0  0  0  0  0  0
  -19.6396    8.9146  -13.2398 C   0  0  0  0  0  0  0  0  0  0  0  0
  -19.4566    9.8194  -14.2665 C   0  0  0  0  0  0  0  0  0  0  0  0
  -19.7859    9.4862  -15.5578 C   0  0  0  0  0  0  0  0  0  0  0  0
  -20.2937    8.2363  -15.7659 C   0  0  0  0  0  0  0  0  0  0  0  0
  -20.4862    7.3032  -14.7319 C   0  0  0  0  0  0  0  0  0  0  0  0
  -21.0506    5.9922  -15.0701 C   0  0  0  0  0  0  0  0  0  0  0  0
  -20.2290    4.9210  -14.9044 F   0  0  0  0  0  0  0  0  0  0  0  0
  -22.3162    5.8148  -14.4882 F   0  0  0  0  0  0  0  0  0  0  0  0
  -21.3577    5.9808  -16.4477 F   0  0  0  0  0  0  0  0  0  0  0  0
  -20.3947    6.6713  -12.3562 C   0  0  0  0  0  0  0  0  0  0  0  0
  -18.4375    8.1467   -9.6433 C   0  0  0  0  0  0  0  0  0  0  0  0
  -19.8787    8.3210   -9.2061 C   0  0  0  0  0  0  0  0  0  0  0  0
  -20.6230    8.1526  -10.5276 C   0  0  0  0  0  0  0  0  0  0  0  0
  -19.9274    7.0121  -11.0634 N   0  0  0  0  0  0  0  0  0  0  0  0
  -18.5516    7.3735  -10.9441 C   0  0  0  0  0  0  0  0  0  0  0  0
  -18.4400   10.5719   -9.5693 C   0  0  0  0  0  0  0  0  0  0  0  0
  -17.7224    9.3615   -9.7173 N   0  0  0  0  0  0  0  0  0  0  0  0
  -16.3637    9.3417   -9.3147 C   0  0  0  0  0  0  0  0  0  0  0  0
 42 43  1  0  0  0
 43 44  1  0  0  0
 43 37  1  0  0  0
 37 38  1  0  0  0
 38 39  1  0  0  0
 39 40  1  0  0  0
 40 36  1  0  0  0
 36 26  1  0  0  0
 26 27  2  0  0  0
 27 28  1  0  0  0
 28 29  2  0  0  0
 29 30  1  0  0  0
 30 31  2  0  0  0
 31 32  1  0  0  0
 32 33  1  0  0  0
 32 34  1  0  0  0
 32 35  1  0  0  0
 29  1  1  0  0  0
  1  2  2  0  0  0
  1  3  1  0  0  0
  3  5  1  0  0  0
  5  6  2  0  0  0
  6  7  1  0  0  0
  7  8  2  0  0  0
  8  9  1  0  0  0
  8 10  1  0  0  0
 10 12  1  0  0  0
 12 14  1  0  0  0
 14 15  2  0  0  0
 15 16  1  0  0  0
 16 17  2  0  0  0
 17 18  1  0  0  0
 18 19  2  0  0  0
 18 20  1  0  0  0
 20 21  2  0  0  0
 21 22  1  0  0  0
 22 23  2  0  0  0
 23 24  1  0  0  0
 24 25  2  0  0  0
 10 11  2  0  0  0
 40 41  1  0  0  0
 41 37  1  0  0  0
 31 26  1  0  0  0
 11  5  1  0  0  0
 19 14  1  0  0  0
 25 20  1  0  0  0
  3  4  1  0  0  0
 12 13  1  0  0  0
M  END
> <minimizedAffinity>
-8.66112

> <CNNscore>
0.1225370765

> <CNNaffinity>
6.7930855751

> <CNN_VS>
0.8324048519

> <CNNaffinity_variance>
0.0765505508

$$$$
[H]c1nc([H])c(-c2nc(N([H])c3c([H])c(N([H])C(=O)c4c([H])c([H])c(C([H])([H])N5C([H])([H])C([H])([H])[C@]([H])(N(C([H])([H])[H])C([H])([H])[H])C5([H])[H])c(C(F)(F)F)c4[H])c([H])c([H])c3C([H])([H])[H])nc([H])c2[H])c([H])n1


 44 48  0  0  0  0  0  0  0  0999 V2000
  -18.8395   16.1317  -23.2350 C   0  0  0  0  0  0  0  0  0  0  0  0
  -18.3875   15.5716  -24.2347 O   0  0  0  0  0  0  0  0  0  0  0  0
  -18.7827   15.5072  -21.9660 N   0  0  0  0  0  0  0  0  0  0  0  0
  -19.2297   16.0962  -21.1766 H   0  0  0  0  0  0  0  0  0  0  0  0
  -18.2415   14.2820  -21.5988 C   0  0  0  0  0  0  0  0  0  0  0  0
  -17.4026   13.6505  -22.5296 C   0  0  0  0  0  0  0  0  0  0  0  0
  -16.8106   12.4440  -22.2863 C   0  0  0  0  0  0  0  0  0  0  0  0
  -17.0359   11.8092  -21.0851 C   0  0  0  0  0  0  0  0  0  0  0  0
  -16.4177   10.5008  -20.7950 C   0  0  0  0  0  0  0  0  0  0  0  0
  -17.8643   12.3793  -20.1037 C   0  0  0  0  0  0  0  0  0  0  0  0
  -18.4356   13.6018  -20.4085 C   0  0  0  0  0  0  0  0  0  0  0  0
  -17.9964   11.6971  -18.8985 N   0  0  0  0  0  0  0  0  0  0  0  0
  -17.1131   11.1129  -18.5971 H   0  0  0  0  0  0  0  0  0  0  0  0
  -19.0532   11.6107  -17.9636 C   0  0  0  0  0  0  0  0  0  0  0  0
  -19.7926   12.7281  -17.6982 N   0  0  0  0  0  0  0  0  0  0  0  0
  -20.7661   12.6954  -16.8060 C   0  0  0  0  0  0  0  0  0  0  0  0
  -21.0445   11.5130  -16.1264 C   0  0  0  0  0  0  0  0  0  0  0  0
  -20.3083   10.4021  -16.3898 C   0  0  0  0  0  0  0  0  0  0  0  0
  -19.3282   10.4970  -17.3116 N   0  0  0  0  0  0  0  0  0  0  0  0
  -20.5760    9.1757  -15.6529 C   0  0  0  0  0  0  0  0  0  0  0  0
  -21.5260    9.0391  -14.6747 C   0  0  0  0  0  0  0  0  0  0  0  0
  -21.6449    7.8430  -14.0600 N   0  0  0  0  0  0  0  0  0  0  0  0
  -20.8870    6.7797  -14.3506 C   0  0  0  0  0  0  0  0  0  0  0  0
  -19.9488    6.9018  -15.3108 N   0  0  0  0  0  0  0  0  0  0  0  0
  -19.7865    8.0623  -15.9527 C   0  0  0  0  0  0  0  0  0  0  0  0
  -20.6282   20.0490  -23.6482 C   0  0  0  0  0  0  0  0  0  0  0  0
  -19.3141   19.8608  -23.2181 C   0  0  0  0  0  0  0  0  0  0  0  0
  -18.7341   18.6154  -23.0816 C   0  0  0  0  0  0  0  0  0  0  0  0
  -19.4465   17.4776  -23.3732 C   0  0  0  0  0  0  0  0  0  0  0  0
  -20.7337   17.6428  -23.7964 C   0  0  0  0  0  0  0  0  0  0  0  0
  -21.3393   18.9035  -23.9404 C   0  0  0  0  0  0  0  0  0  0  0  0
  -22.7262   18.9621  -24.4146 C   0  0  0  0  0  0  0  0  0  0  0  0
  -23.6793   19.1703  -23.4668 F   0  0  0  0  0  0  0  0  0  0  0  0
  -22.8519   19.8148  -25.5233 F   0  0  0  0  0  0  0  0  0  0  0  0
  -23.0609   17.7086  -24.9702 F   0  0  0  0  0  0  0  0  0  0  0  0
  -21.2516   21.3597  -23.8369 C   0  0  0  0  0  0  0  0  0  0  0  0
  -23.6886   22.3282  -21.2892 C   0  0  0  0  0  0  0  0  0  0  0  0
  -22.4245   22.0295  -20.5072 C   0  0  0  0  0  0  0  0  0  0  0  0
  -21.6336   21.1937  -21.5095 C   0  0  0  0  0  0  0  0  0  0  0  0
  -21.8473   21.9670  -22.7045 N   0  0  0  0  0  0  0  0  0  0  0  0
  -23.2626   22.1508  -22.7349 C   0  0  0  0  0  0  0  0  0  0  0  0
  -24.5595   20.4141  -20.0788 C   0  0  0  0  0  0  0  0  0  0  0  0
  -24.7969   21.5550  -20.8814 N   0  0  0  0  0  0  0  0  0  0  0  0
  -26.0375   22.2241  -20.7337 C   0  0  0  0  0  0  0  0  0  0  0  0
 42 43  1  0  0  0
 43 44  1  0  0  0
 43 37  1  0  0  0
 37 38  1  0  0  0
 38 39  1  0  0  0
 39 40  1  0  0  0
 40 36  1  0  0  0
 36 26  1  0  0  0
 26 27  2  0  0  0
 27 28  1  0  0  0
 28 29  2  0  0  0
 29 30  1  0  0  0
 30 31  2  0  0  0
 31 32  1  0  0  0
 32 33  1  0  0  0
 32 34  1  0  0  0
 32 35  1  0  0  0
 29  1  1  0  0  0
  1  2  2  0  0  0
  1  3  1  0  0  0
  3  5  1  0  0  0
  5  6  2  0  0  0
  6  7  1  0  0  0
  7  8  2  0  0  0
  8  9  1  0  0  0
  8 10  1  0  0  0
 10 12  1  0  0  0
 12 14  1  0  0  0
 14 15  2  0  0  0
 15 16  1  0  0  0
 16 17  2  0  0  0
 17 18  1  0  0  0
 18 19  2  0  0  0
 18 20  1  0  0  0
 20 21  2  0  0  0
 21 22  1  0  0  0
 22 23  2  0  0  0
 23 24  1  0  0  0
 24 25  2  0  0  0
 10 11  2  0  0  0
 40 41  1  0  0  0
 41 37  1  0  0  0
 31 26  1  0  0  0
 11  5  1  0  0  0
 19 14  1  0  0  0
 25 20  1  0  0  0
  3  4  1  0  0  0
 12 13  1  0  0  0
M  END
> <minimizedAffinity>
-8.55099

> <CNNscore>
0.1118738875

> <CNNaffinity>
6.5880126953

> <CNN_VS>
0.7370265722

> <CNNaffinity_variance>
0.1256892383

$$$$
[H]c1nc([H])c(-c2nc(N([H])c3c([H])c(N([H])C(=O)c4c([H])c([H])c(C([H])([H])N5C([H])([H])C([H])([H])[C@]([H])(N(C([H])([H])[H])C([H])([H])[H])C5([H])[H])c(C(F)(F)F)c4[H])c([H])c([H])c3C([H])([H])[H])nc([H])c2[H])c([H])n1


 44 48  0  0  0  0  0  0  0  0999 V2000
  -19.6391   11.4429  -17.4513 C   0  0  0  0  0  0  0  0  0  0  0  0
  -18.8306   11.1778  -18.3421 O   0  0  0  0  0  0  0  0  0  0  0  0
  -20.3603   12.6608  -17.4658 N   0  0  0  0  0  0  0  0  0  0  0  0
  -21.0227   12.7783  -16.6187 H   0  0  0  0  0  0  0  0  0  0  0  0
  -20.3450   13.6950  -18.3926 C   0  0  0  0  0  0  0  0  0  0  0  0
  -21.3928   14.6259  -18.3271 C   0  0  0  0  0  0  0  0  0  0  0  0
  -21.4893   15.6862  -19.1824 C   0  0  0  0  0  0  0  0  0  0  0  0
  -20.5283   15.8628  -20.1531 C   0  0  0  0  0  0  0  0  0  0  0  0
  -20.6085   16.9938  -21.0979 C   0  0  0  0  0  0  0  0  0  0  0  0
  -19.4493   14.9718  -20.2808 C   0  0  0  0  0  0  0  0  0  0  0  0
  -19.4065   13.9176  -19.3861 C   0  0  0  0  0  0  0  0  0  0  0  0
  -18.4954   15.2527  -21.2537 N   0  0  0  0  0  0  0  0  0  0  0  0
  -18.2368   16.3181  -21.3556 H   0  0  0  0  0  0  0  0  0  0  0  0
  -17.7732   14.4278  -22.1461 C   0  0  0  0  0  0  0  0  0  0  0  0
  -17.3538   13.2005  -21.7175 N   0  0  0  0  0  0  0  0  0  0  0  0
  -16.6474   12.4153  -22.5108 C   0  0  0  0  0  0  0  0  0  0  0  0
  -16.3241   12.8386  -23.7968 C   0  0  0  0  0  0  0  0  0  0  0  0
  -16.7405   14.0597  -24.2223 C   0  0  0  0  0  0  0  0  0  0  0  0
  -17.4592   14.8160  -23.3674 N   0  0  0  0  0  0  0  0  0  0  0  0
  -16.3714   14.5168  -25.5540 C   0  0  0  0  0  0  0  0  0  0  0  0
  -16.9428   14.0799  -26.7205 C   0  0  0  0  0  0  0  0  0  0  0  0
  -16.4797   14.5785  -27.8865 N   0  0  0  0  0  0  0  0  0  0  0  0
  -15.4922   15.4770  -27.9704 C   0  0  0  0  0  0  0  0  0  0  0  0
  -14.9220   15.9142  -26.8298 N   0  0  0  0  0  0  0  0  0  0  0  0
  -15.3400   15.4552  -25.6467 C   0  0  0  0  0  0  0  0  0  0  0  0
  -20.2755    8.6101  -14.2442 C   0  0  0  0  0  0  0  0  0  0  0  0
  -19.4797    8.3266  -15.3549 C   0  0  0  0  0  0  0  0  0  0  0  0
  -19.2710    9.2227  -16.3842 C   0  0  0  0  0  0  0  0  0  0  0  0
  -19.8538   10.4664  -16.3562 C   0  0  0  0  0  0  0  0  0  0  0  0
  -20.6350   10.7613  -15.2765 C   0  0  0  0  0  0  0  0  0  0  0  0
  -20.8579    9.8604  -14.2202 C   0  0  0  0  0  0  0  0  0  0  0  0
  -21.7072   10.2892  -13.1038 C   0  0  0  0  0  0  0  0  0  0  0  0
  -22.7931    9.5139  -12.8396 F   0  0  0  0  0  0  0  0  0  0  0  0
  -20.9429   10.5794  -11.9620 F   0  0  0  0  0  0  0  0  0  0  0  0
  -22.2539   11.5518  -13.4186 F   0  0  0  0  0  0  0  0  0  0  0  0
  -20.4801    7.6911  -13.1236 C   0  0  0  0  0  0  0  0  0  0  0  0
  -17.6627    7.6495  -10.7938 C   0  0  0  0  0  0  0  0  0  0  0  0
  -18.2960    6.2802  -10.6436 C   0  0  0  0  0  0  0  0  0  0  0  0
  -19.6840    6.5177  -11.2316 C   0  0  0  0  0  0  0  0  0  0  0  0
  -19.3332    7.2752  -12.4041 N   0  0  0  0  0  0  0  0  0  0  0  0
  -18.4778    8.2992  -11.8968 C   0  0  0  0  0  0  0  0  0  0  0  0
  -16.4321    9.1407   -9.3277 C   0  0  0  0  0  0  0  0  0  0  0  0
  -17.5918    8.3712   -9.5827 N   0  0  0  0  0  0  0  0  0  0  0  0
  -18.8144    8.8036   -9.0111 C   0  0  0  0  0  0  0  0  0  0  0  0
 42 43  1  0  0  0
 43 44  1  0  0  0
 43 37  1  0  0  0
 37 38  1  0  0  0
 38 39  1  0  0  0
 39 40  1  0  0  0
 40 36  1  0  0  0
 36 26  1  0  0  0
 26 27  2  0  0  0
 27 28  1  0  0  0
 28 29  2  0  0  0
 29 30  1  0  0  0
 30 31  2  0  0  0
 31 32  1  0  0  0
 32 33  1  0  0  0
 32 34  1  0  0  0
 32 35  1  0  0  0
 29  1  1  0  0  0
  1  2  2  0  0  0
  1  3  1  0  0  0
  3  5  1  0  0  0
  5  6  2  0  0  0
  6  7  1  0  0  0
  7  8  2  0  0  0
  8  9  1  0  0  0
  8 10  1  0  0  0
 10 12  1  0  0  0
 12 14  1  0  0  0
 14 15  2  0  0  0
 15 16  1  0  0  0
 16 17  2  0  0  0
 17 18  1  0  0  0
 18 19  2  0  0  0
 18 20  1  0  0  0
 20 21  2  0  0  0
 21 22  1  0  0  0
 22 23  2  0  0  0
 23 24  1  0  0  0
 24 25  2  0  0  0
 10 11  2  0  0  0
 40 41  1  0  0  0
 41 37  1  0  0  0
 31 26  1  0  0  0
 11  5  1  0  0  0
 19 14  1  0  0  0
 25 20  1  0  0  0
  3  4  1  0  0  0
 12 13  1  0  0  0
M  END
> <minimizedAffinity>
-8.62109

> <CNNscore>
0.0901584104

> <CNNaffinity>
6.4968643188

> <CNN_VS>
0.5857469440

> <CNNaffinity_variance>
0.1253181398

$$$$
[H]c1nc([H])c(-c2nc(N([H])c3c([H])c(N([H])C(=O)c4c([H])c([H])c(C([H])([H])N5C([H])([H])C([H])([H])[C@]([H])(N(C([H])([H])[H])C([H])([H])[H])C5([H])[H])c(C(F)(F)F)c4[H])c([H])c([H])c3C([H])([H])[H])nc([H])c2[H])c([H])n1


 44 48  0  0  0  0  0  0  0  0999 V2000
  -19.9805   12.3268  -17.0248 C   0  0  0  0  0  0  0  0  0  0  0  0
  -20.5275   13.3085  -16.5204 O   0  0  0  0  0  0  0  0  0  0  0  0
  -19.9379   11.0888  -16.3399 N   0  0  0  0  0  0  0  0  0  0  0  0
  -19.4136   10.3145  -16.8836 H   0  0  0  0  0  0  0  0  0  0  0  0
  -20.4668   10.7342  -15.1057 C   0  0  0  0  0  0  0  0  0  0  0  0
  -21.7211   10.1054  -15.1060 C   0  0  0  0  0  0  0  0  0  0  0  0
  -22.3457    9.7092  -13.9579 C   0  0  0  0  0  0  0  0  0  0  0  0
  -21.7334    9.9283  -12.7438 C   0  0  0  0  0  0  0  0  0  0  0  0
  -22.3858    9.5195  -11.4846 C   0  0  0  0  0  0  0  0  0  0  0  0
  -20.4772   10.5526  -12.6634 C   0  0  0  0  0  0  0  0  0  0  0  0
  -19.8954   10.9314  -13.8599 C   0  0  0  0  0  0  0  0  0  0  0  0
  -19.9062   10.6880  -11.4020 N   0  0  0  0  0  0  0  0  0  0  0  0
  -20.3384   11.4878  -10.7808 H   0  0  0  0  0  0  0  0  0  0  0  0
  -18.8705    9.9854  -10.7447 C   0  0  0  0  0  0  0  0  0  0  0  0
  -18.0019   10.6800   -9.9517 N   0  0  0  0  0  0  0  0  0  0  0  0
  -17.0012   10.0642   -9.3483 C   0  0  0  0  0  0  0  0  0  0  0  0
  -16.8254    8.6941   -9.5197 C   0  0  0  0  0  0  0  0  0  0  0  0
  -17.6889    8.0038  -10.3093 C   0  0  0  0  0  0  0  0  0  0  0  0
  -18.6915    8.6872  -10.8983 N   0  0  0  0  0  0  0  0  0  0  0  0
  -17.4833    6.5779  -10.5174 C   0  0  0  0  0  0  0  0  0  0  0  0
  -16.6449    5.7889   -9.7741 C   0  0  0  0  0  0  0  0  0  0  0  0
  -16.5387    4.4829  -10.0993 N   0  0  0  0  0  0  0  0  0  0  0  0
  -17.2061    3.9119  -11.1083 C   0  0  0  0  0  0  0  0  0  0  0  0
  -18.0337    4.6778  -11.8470 N   0  0  0  0  0  0  0  0  0  0  0  0
  -18.1782    5.9770  -11.5705 C   0  0  0  0  0  0  0  0  0  0  0  0
  -18.1660   12.6819  -20.9360 C   0  0  0  0  0  0  0  0  0  0  0  0
  -19.2066   13.5078  -20.5088 C   0  0  0  0  0  0  0  0  0  0  0  0
  -19.7934   13.4022  -19.2636 C   0  0  0  0  0  0  0  0  0  0  0  0
  -19.3641   12.4535  -18.3676 C   0  0  0  0  0  0  0  0  0  0  0  0
  -18.3461   11.6373  -18.7682 C   0  0  0  0  0  0  0  0  0  0  0  0
  -17.7379   11.7314  -20.0325 C   0  0  0  0  0  0  0  0  0  0  0  0
  -16.6432   10.8086  -20.3515 C   0  0  0  0  0  0  0  0  0  0  0  0
  -15.7256   10.5991  -19.3695 F   0  0  0  0  0  0  0  0  0  0  0  0
  -17.1264    9.6193  -20.9208 F   0  0  0  0  0  0  0  0  0  0  0  0
  -15.8924   11.3573  -21.4132 F   0  0  0  0  0  0  0  0  0  0  0  0
  -17.5034   12.8002  -22.2356 C   0  0  0  0  0  0  0  0  0  0  0  0
  -17.5578   16.3410  -23.1455 C   0  0  0  0  0  0  0  0  0  0  0  0
  -16.3501   16.2033  -22.2393 C   0  0  0  0  0  0  0  0  0  0  0  0
  -16.6496   14.8878  -21.5262 C   0  0  0  0  0  0  0  0  0  0  0  0
  -17.0917   14.0930  -22.6419 N   0  0  0  0  0  0  0  0  0  0  0  0
  -18.0707   14.9184  -23.2729 C   0  0  0  0  0  0  0  0  0  0  0  0
  -18.0247   18.4027  -21.9544 C   0  0  0  0  0  0  0  0  0  0  0  0
  -18.4981   17.2890  -22.6876 N   0  0  0  0  0  0  0  0  0  0  0  0
  -19.6823   17.4503  -23.4492 C   0  0  0  0  0  0  0  0  0  0  0  0
 42 43  1  0  0  0
 43 44  1  0  0  0
 43 37  1  0  0  0
 37 38  1  0  0  0
 38 39  1  0  0  0
 39 40  1  0  0  0
 40 36  1  0  0  0
 36 26  1  0  0  0
 26 27  2  0  0  0
 27 28  1  0  0  0
 28 29  2  0  0  0
 29 30  1  0  0  0
 30 31  2  0  0  0
 31 32  1  0  0  0
 32 33  1  0  0  0
 32 34  1  0  0  0
 32 35  1  0  0  0
 29  1  1  0  0  0
  1  2  2  0  0  0
  1  3  1  0  0  0
  3  5  1  0  0  0
  5  6  2  0  0  0
  6  7  1  0  0  0
  7  8  2  0  0  0
  8  9  1  0  0  0
  8 10  1  0  0  0
 10 12  1  0  0  0
 12 14  1  0  0  0
 14 15  2  0  0  0
 15 16  1  0  0  0
 16 17  2  0  0  0
 17 18  1  0  0  0
 18 19  2  0  0  0
 18 20  1  0  0  0
 20 21  2  0  0  0
 21 22  1  0  0  0
 22 23  2  0  0  0
 23 24  1  0  0  0
 24 25  2  0  0  0
 10 11  2  0  0  0
 40 41  1  0  0  0
 41 37  1  0  0  0
 31 26  1  0  0  0
 11  5  1  0  0  0
 19 14  1  0  0  0
 25 20  1  0  0  0
  3  4  1  0  0  0
 12 13  1  0  0  0
M  END
> <minimizedAffinity>
-9.11400

> <CNNscore>
0.0844366699

> <CNNaffinity>
6.1257677078

> <CNN_VS>
0.5172394514

> <CNNaffinity_variance>
0.5349848270

$$$$
[H]c1nc([H])c(-c2nc(N([H])c3c([H])c(N([H])C(=O)c4c([H])c([H])c(C([H])([H])N5C([H])([H])C([H])([H])[C@]([H])(N(C([H])([H])[H])C([H])([H])[H])C5([H])[H])c(C(F)(F)F)c4[H])c([H])c([H])c3C([H])([H])[H])nc([H])c2[H])c([H])n1


 44 48  0  0  0  0  0  0  0  0999 V2000
  -17.6869   11.5163  -19.1897 C   0  0  0  0  0  0  0  0  0  0  0  0
  -16.4553   11.4986  -19.1807 O   0  0  0  0  0  0  0  0  0  0  0  0
  -18.3944   12.2326  -20.1848 N   0  0  0  0  0  0  0  0  0  0  0  0
  -19.4687   12.1824  -20.0686 H   0  0  0  0  0  0  0  0  0  0  0  0
  -17.9182   12.9641  -21.2650 C   0  0  0  0  0  0  0  0  0  0  0  0
  -17.1308   12.2784  -22.2023 C   0  0  0  0  0  0  0  0  0  0  0  0
  -16.6045   12.8865  -23.3062 C   0  0  0  0  0  0  0  0  0  0  0  0
  -16.8470   14.2249  -23.5222 C   0  0  0  0  0  0  0  0  0  0  0  0
  -16.2857   14.9132  -24.7010 C   0  0  0  0  0  0  0  0  0  0  0  0
  -17.6260   14.9780  -22.6276 C   0  0  0  0  0  0  0  0  0  0  0  0
  -18.1309   14.3067  -21.5284 C   0  0  0  0  0  0  0  0  0  0  0  0
  -17.8653   16.3105  -22.9480 N   0  0  0  0  0  0  0  0  0  0  0  0
  -17.1015   16.7777  -23.5887 H   0  0  0  0  0  0  0  0  0  0  0  0
  -18.9163   17.1960  -22.6166 C   0  0  0  0  0  0  0  0  0  0  0  0
  -18.9689   17.7146  -21.3541 N   0  0  0  0  0  0  0  0  0  0  0  0
  -19.9542   18.5185  -20.9967 C   0  0  0  0  0  0  0  0  0  0  0  0
  -20.9515   18.8427  -21.9119 C   0  0  0  0  0  0  0  0  0  0  0  0
  -20.8994   18.3259  -23.1672 C   0  0  0  0  0  0  0  0  0  0  0  0
  -19.8685   17.5118  -23.4736 N   0  0  0  0  0  0  0  0  0  0  0  0
  -21.9618   18.6361  -24.1127 C   0  0  0  0  0  0  0  0  0  0  0  0
  -22.8205   17.7177  -24.6577 C   0  0  0  0  0  0  0  0  0  0  0  0
  -23.7445   18.1506  -25.5417 N   0  0  0  0  0  0  0  0  0  0  0  0
  -23.8712   19.4279  -25.9184 C   0  0  0  0  0  0  0  0  0  0  0  0
  -23.0320   20.3407  -25.3894 N   0  0  0  0  0  0  0  0  0  0  0  0
  -22.0978   19.9692  -24.5094 C   0  0  0  0  0  0  0  0  0  0  0  0
  -19.8593    9.3672  -16.1275 C   0  0  0  0  0  0  0  0  0  0  0  0
  -18.8146    8.7949  -16.8543 C   0  0  0  0  0  0  0  0  0  0  0  0
  -18.1157    9.4713  -17.8342 C   0  0  0  0  0  0  0  0  0  0  0  0
  -18.4280   10.7731  -18.1422 C   0  0  0  0  0  0  0  0  0  0  0  0
  -19.4470   11.3495  -17.4402 C   0  0  0  0  0  0  0  0  0  0  0  0
  -20.1687   10.6749  -16.4397 C   0  0  0  0  0  0  0  0  0  0  0  0
  -21.2371   11.3977  -15.7414 C   0  0  0  0  0  0  0  0  0  0  0  0
  -22.4725   10.8295  -15.7767 F   0  0  0  0  0  0  0  0  0  0  0  0
  -20.8384   11.7765  -14.4493 F   0  0  0  0  0  0  0  0  0  0  0  0
  -21.4150   12.6482  -16.3711 F   0  0  0  0  0  0  0  0  0  0  0  0
  -20.5885    8.6829  -15.0587 C   0  0  0  0  0  0  0  0  0  0  0  0
  -18.7176    8.3145  -11.9391 C   0  0  0  0  0  0  0  0  0  0  0  0
  -19.6029    7.0850  -11.9950 C   0  0  0  0  0  0  0  0  0  0  0  0
  -20.6638    7.5160  -13.0038 C   0  0  0  0  0  0  0  0  0  0  0  0
  -19.8263    8.1259  -14.0030 N   0  0  0  0  0  0  0  0  0  0  0  0
  -19.0065    9.0206  -13.2510 C   0  0  0  0  0  0  0  0  0  0  0  0
  -19.3751   10.4173  -10.9227 C   0  0  0  0  0  0  0  0  0  0  0  0
  -18.9070    9.0903  -10.7751 N   0  0  0  0  0  0  0  0  0  0  0  0
  -19.2312    8.4010   -9.5800 C   0  0  0  0  0  0  0  0  0  0  0  0
 42 43  1  0  0  0
 43 44  1  0  0  0
 43 37  1  0  0  0
 37 38  1  0  0  0
 38 39  1  0  0  0
 39 40  1  0  0  0
 40 36  1  0  0  0
 36 26  1  0  0  0
 26 27  2  0  0  0
 27 28  1  0  0  0
 28 29  2  0  0  0
 29 30  1  0  0  0
 30 31  2  0  0  0
 31 32  1  0  0  0
 32 33  1  0  0  0
 32 34  1  0  0  0
 32 35  1  0  0  0
 29  1  1  0  0  0
  1  2  2  0  0  0
  1  3  1  0  0  0
  3  5  1  0  0  0
  5  6  2  0  0  0
  6  7  1  0  0  0
  7  8  2  0  0  0
  8  9  1  0  0  0
  8 10  1  0  0  0
 10 12  1  0  0  0
 12 14  1  0  0  0
 14 15  2  0  0  0
 15 16  1  0  0  0
 16 17  2  0  0  0
 17 18  1  0  0  0
 18 19  2  0  0  0
 18 20  1  0  0  0
 20 21  2  0  0  0
 21 22  1  0  0  0
 22 23  2  0  0  0
 23 24  1  0  0  0
 24 25  2  0  0  0
 10 11  2  0  0  0
 40 41  1  0  0  0
 41 37  1  0  0  0
 31 26  1  0  0  0
 11  5  1  0  0  0
 19 14  1  0  0  0
 25 20  1  0  0  0
  3  4  1  0  0  0
 12 13  1  0  0  0
M  END
> <minimizedAffinity>
-9.31761

> <CNNscore>
0.0833419710

> <CNNaffinity>
6.6433248520

> <CNN_VS>
0.5536677837

> <CNNaffinity_variance>
0.0818766728

$$$$
[H]c1nc([H])c(-c2nc(N([H])c3c([H])c(N([H])C(=O)c4c([H])c([H])c(C([H])([H])N5C([H])([H])C([H])([H])[C@]([H])(N(C([H])([H])[H])C([H])([H])[H])C5([H])[H])c(C(F)(F)F)c4[H])c([H])c([H])c3C([H])([H])[H])nc([H])c2[H])c([H])n1


 44 48  0  0  0  0  0  0  0  0999 V2000
  -19.8737   12.4583  -17.8198 C   0  0  0  0  0  0  0  0  0  0  0  0
  -20.6884   13.3475  -17.5689 O   0  0  0  0  0  0  0  0  0  0  0  0
  -19.7214   11.3491  -16.9536 N   0  0  0  0  0  0  0  0  0  0  0  0
  -18.9616   10.6511  -17.2785 H   0  0  0  0  0  0  0  0  0  0  0  0
  -20.3965   11.0339  -15.7816 C   0  0  0  0  0  0  0  0  0  0  0  0
  -21.6773   10.4764  -15.9136 C   0  0  0  0  0  0  0  0  0  0  0  0
  -22.4408   10.1244  -14.8372 C   0  0  0  0  0  0  0  0  0  0  0  0
  -21.9485   10.3179  -13.5656 C   0  0  0  0  0  0  0  0  0  0  0  0
  -22.7520    9.9557  -12.3818 C   0  0  0  0  0  0  0  0  0  0  0  0
  -20.6745   10.8714  -13.3538 C   0  0  0  0  0  0  0  0  0  0  0  0
  -19.9494   11.2081  -14.4828 C   0  0  0  0  0  0  0  0  0  0  0  0
  -20.2329   10.9841  -12.0394 N   0  0  0  0  0  0  0  0  0  0  0  0
  -20.6865   11.8079  -11.4668 H   0  0  0  0  0  0  0  0  0  0  0  0
  -19.3091   10.2331  -11.2771 C   0  0  0  0  0  0  0  0  0  0  0  0
  -18.6215   10.8550  -10.2740 N   0  0  0  0  0  0  0  0  0  0  0  0
  -17.7254   10.1955   -9.5622 C   0  0  0  0  0  0  0  0  0  0  0  0
  -17.4751    8.8534   -9.8338 C   0  0  0  0  0  0  0  0  0  0  0  0
  -18.1583    8.2355  -10.8322 C   0  0  0  0  0  0  0  0  0  0  0  0
  -19.0613    8.9608  -11.5235 N   0  0  0  0  0  0  0  0  0  0  0  0
  -17.8703    6.8422  -11.1397 C   0  0  0  0  0  0  0  0  0  0  0  0
  -18.7339    5.9817  -11.7655 C   0  0  0  0  0  0  0  0  0  0  0  0
  -18.3362    4.7069  -11.9639 N   0  0  0  0  0  0  0  0  0  0  0  0
  -17.1444    4.2328  -11.5840 C   0  0  0  0  0  0  0  0  0  0  0  0
  -16.2863    5.0697  -10.9672 N   0  0  0  0  0  0  0  0  0  0  0  0
  -16.6266    6.3423  -10.7444 C   0  0  0  0  0  0  0  0  0  0  0  0
  -17.4541   12.7370  -21.3952 C   0  0  0  0  0  0  0  0  0  0  0  0
  -18.4635   13.6521  -21.0936 C   0  0  0  0  0  0  0  0  0  0  0  0
  -19.2421   13.5717  -19.9563 C   0  0  0  0  0  0  0  0  0  0  0  0
  -19.0490   12.5594  -19.0480 C   0  0  0  0  0  0  0  0  0  0  0  0
  -18.0649   11.6553  -19.3264 C   0  0  0  0  0  0  0  0  0  0  0  0
  -17.2635   11.7227  -20.4798 C   0  0  0  0  0  0  0  0  0  0  0  0
  -16.2269   10.7025  -20.6706 C   0  0  0  0  0  0  0  0  0  0  0  0
  -15.4470   10.8348  -21.7771 F   0  0  0  0  0  0  0  0  0  0  0  0
  -15.4885   10.4974  -19.4939 F   0  0  0  0  0  0  0  0  0  0  0  0
  -16.8581    9.4518  -20.8416 F   0  0  0  0  0  0  0  0  0  0  0  0
  -16.5914   12.8237  -22.5743 C   0  0  0  0  0  0  0  0  0  0  0  0
  -16.6059   15.2058  -25.3480 C   0  0  0  0  0  0  0  0  0  0  0  0
  -17.4661   14.0560  -25.8343 C   0  0  0  0  0  0  0  0  0  0  0  0
  -17.0385   12.9332  -24.8934 C   0  0  0  0  0  0  0  0  0  0  0  0
  -17.0283   13.6449  -23.6424 N   0  0  0  0  0  0  0  0  0  0  0  0
  -16.2523   14.8089  -23.9265 C   0  0  0  0  0  0  0  0  0  0  0  0
  -14.2087   15.1888  -25.7229 C   0  0  0  0  0  0  0  0  0  0  0  0
  -15.5101   15.4838  -26.1934 N   0  0  0  0  0  0  0  0  0  0  0  0
  -15.7381   15.4331  -27.5912 C   0  0  0  0  0  0  0  0  0  0  0  0
 42 43  1  0  0  0
 43 44  1  0  0  0
 43 37  1  0  0  0
 37 38  1  0  0  0
 38 39  1  0  0  0
 39 40  1  0  0  0
 40 36  1  0  0  0
 36 26  1  0  0  0
 26 27  2  0  0  0
 27 28  1  0  0  0
 28 29  2  0  0  0
 29 30  1  0  0  0
 30 31  2  0  0  0
 31 32  1  0  0  0
 32 33  1  0  0  0
 32 34  1  0  0  0
 32 35  1  0  0  0
 29  1  1  0  0  0
  1  2  2  0  0  0
  1  3  1  0  0  0
  3  5  1  0  0  0
  5  6  2  0  0  0
  6  7  1  0  0  0
  7  8  2  0  0  0
  8  9  1  0  0  0
  8 10  1  0  0  0
 10 12  1  0  0  0
 12 14  1  0  0  0
 14 15  2  0  0  0
 15 16  1  0  0  0
 16 17  2  0  0  0
 17 18  1  0  0  0
 18 19  2  0  0  0
 18 20  1  0  0  0
 20 21  2  0  0  0
 21 22  1  0  0  0
 22 23  2  0  0  0
 23 24  1  0  0  0
 24 25  2  0  0  0
 10 11  2  0  0  0
 40 41  1  0  0  0
 41 37  1  0  0  0
 31 26  1  0  0  0
 11  5  1  0  0  0
 19 14  1  0  0  0
 25 20  1  0  0  0
  3  4  1  0  0  0
 12 13  1  0  0  0
M  END
> <minimizedAffinity>
-10.38144

> <CNNscore>
0.0799609199

> <CNNaffinity>
6.2246499062

> <CNN_VS>
0.4977287352

> <CNNaffinity_variance>
0.3554786146

$$$$
[H]c1nc([H])c(-c2nc(N([H])c3c([H])c(N([H])C(=O)c4c([H])c([H])c(C([H])([H])N5C([H])([H])C([H])([H])[C@]([H])(N(C([H])([H])[H])C([H])([H])[H])C5([H])[H])c(C(F)(F)F)c4[H])c([H])c([H])c3C([H])([H])[H])nc([H])c2[H])c([H])n1


 44 48  0  0  0  0  0  0  0  0999 V2000
  -19.2441   10.8284  -17.3253 C   0  0  0  0  0  0  0  0  0  0  0  0
  -19.9139   11.8017  -17.6736 O   0  0  0  0  0  0  0  0  0  0  0  0
  -18.1499   10.3845  -18.1058 N   0  0  0  0  0  0  0  0  0  0  0  0
  -17.6581    9.5110  -17.6993 H   0  0  0  0  0  0  0  0  0  0  0  0
  -17.6267   10.9023  -19.2835 C   0  0  0  0  0  0  0  0  0  0  0  0
  -16.7217   10.0947  -19.9888 C   0  0  0  0  0  0  0  0  0  0  0  0
  -16.1393   10.4912  -21.1588 C   0  0  0  0  0  0  0  0  0  0  0  0
  -16.4417   11.7295  -21.6801 C   0  0  0  0  0  0  0  0  0  0  0  0
  -15.8229   12.1907  -22.9381 C   0  0  0  0  0  0  0  0  0  0  0  0
  -17.3387   12.5943  -21.0306 C   0  0  0  0  0  0  0  0  0  0  0  0
  -17.8957   12.1370  -19.8497 C   0  0  0  0  0  0  0  0  0  0  0  0
  -17.6288   13.8047  -21.6519 N   0  0  0  0  0  0  0  0  0  0  0  0
  -18.1012   13.7160  -22.6425 H   0  0  0  0  0  0  0  0  0  0  0  0
  -17.4428   15.1484  -21.2540 C   0  0  0  0  0  0  0  0  0  0  0  0
  -16.5480   15.9214  -21.9379 N   0  0  0  0  0  0  0  0  0  0  0  0
  -16.3219   17.1711  -21.5748 C   0  0  0  0  0  0  0  0  0  0  0  0
  -16.9992   17.7100  -20.4847 C   0  0  0  0  0  0  0  0  0  0  0  0
  -17.8883   16.9407  -19.8042 C   0  0  0  0  0  0  0  0  0  0  0  0
  -18.0773   15.6724  -20.2226 N   0  0  0  0  0  0  0  0  0  0  0  0
  -18.5693   17.4931  -18.6423 C   0  0  0  0  0  0  0  0  0  0  0  0
  -19.1085   18.7510  -18.5730 C   0  0  0  0  0  0  0  0  0  0  0  0
  -19.6914   19.1351  -17.4174 N   0  0  0  0  0  0  0  0  0  0  0  0
  -19.7734   18.3572  -16.3322 C   0  0  0  0  0  0  0  0  0  0  0  0
  -19.2463   17.1178  -16.3881 N   0  0  0  0  0  0  0  0  0  0  0  0
  -18.6571   16.6842  -17.5061 C   0  0  0  0  0  0  0  0  0  0  0  0
  -20.2725    8.7855  -13.6531 C   0  0  0  0  0  0  0  0  0  0  0  0
  -19.7311    8.1263  -14.7574 C   0  0  0  0  0  0  0  0  0  0  0  0
  -19.4006    8.7683  -15.9342 C   0  0  0  0  0  0  0  0  0  0  0  0
  -19.5954   10.1213  -16.0700 C   0  0  0  0  0  0  0  0  0  0  0  0
  -20.1234   10.7828  -14.9991 C   0  0  0  0  0  0  0  0  0  0  0  0
  -20.4656   10.1442  -13.7940 C   0  0  0  0  0  0  0  0  0  0  0  0
  -21.0156   10.9575  -12.7042 C   0  0  0  0  0  0  0  0  0  0  0  0
  -22.1962   10.5377  -12.1750 F   0  0  0  0  0  0  0  0  0  0  0  0
  -20.0410   11.2365  -11.7324 F   0  0  0  0  0  0  0  0  0  0  0  0
  -21.3024   12.2440  -13.2087 F   0  0  0  0  0  0  0  0  0  0  0  0
  -20.5947    8.1332  -12.3831 C   0  0  0  0  0  0  0  0  0  0  0  0
  -18.5874    7.4475   -9.4052 C   0  0  0  0  0  0  0  0  0  0  0  0
  -17.6035    8.0410  -10.3943 C   0  0  0  0  0  0  0  0  0  0  0  0
  -18.3442    7.8521  -11.7151 C   0  0  0  0  0  0  0  0  0  0  0  0
  -19.6642    8.2725  -11.3245 N   0  0  0  0  0  0  0  0  0  0  0  0
  -19.9154    7.5232  -10.1358 C   0  0  0  0  0  0  0  0  0  0  0  0
  -19.1421    5.1055   -9.0979 C   0  0  0  0  0  0  0  0  0  0  0  0
  -18.2170    6.1652   -8.9457 N   0  0  0  0  0  0  0  0  0  0  0  0
  -16.8360    5.8468   -8.9501 C   0  0  0  0  0  0  0  0  0  0  0  0
 42 43  1  0  0  0
 43 44  1  0  0  0
 43 37  1  0  0  0
 37 38  1  0  0  0
 38 39  1  0  0  0
 39 40  1  0  0  0
 40 36  1  0  0  0
 36 26  1  0  0  0
 26 27  2  0  0  0
 27 28  1  0  0  0
 28 29  2  0  0  0
 29 30  1  0  0  0
 30 31  2  0  0  0
 31 32  1  0  0  0
 32 33  1  0  0  0
 32 34  1  0  0  0
 32 35  1  0  0  0
 29  1  1  0  0  0
  1  2  2  0  0  0
  1  3  1  0  0  0
  3  5  1  0  0  0
  5  6  2  0  0  0
  6  7  1  0  0  0
  7  8  2  0  0  0
  8  9  1  0  0  0
  8 10  1  0  0  0
 10 12  1  0  0  0
 12 14  1  0  0  0
 14 15  2  0  0  0
 15 16  1  0  0  0
 16 17  2  0  0  0
 17 18  1  0  0  0
 18 19  2  0  0  0
 18 20  1  0  0  0
 20 21  2  0  0  0
 21 22  1  0  0  0
 22 23  2  0  0  0
 23 24  1  0  0  0
 24 25  2  0  0  0
 10 11  2  0  0  0
 40 41  1  0  0  0
 41 37  1  0  0  0
 31 26  1  0  0  0
 11  5  1  0  0  0
 19 14  1  0  0  0
 25 20  1  0  0  0
  3  4  1  0  0  0
 12 13  1  0  0  0
M  END
> <minimizedAffinity>
-8.42108

> <CNNscore>
0.0752487183

> <CNNaffinity>
6.6259932518

> <CNN_VS>
0.4985975027

> <CNNaffinity_variance>
0.2562837005

$$$$
[H]c1nc([H])c(-c2nc(N([H])c3c([H])c(N([H])C(=O)c4c([H])c([H])c(C([H])([H])N5C([H])([H])C([H])([H])[C@]([H])(N(C([H])([H])[H])C([H])([H])[H])C5([H])[H])c(C(F)(F)F)c4[H])c([H])c([H])c3C([H])([H])[H])nc([H])c2[H])c([H])n1


 44 48  0  0  0  0  0  0  0  0999 V2000
  -19.3055   10.9544  -17.3621 C   0  0  0  0  0  0  0  0  0  0  0  0
  -19.9688   11.9416  -17.6828 O   0  0  0  0  0  0  0  0  0  0  0  0
  -18.2377   10.5032  -18.1745 N   0  0  0  0  0  0  0  0  0  0  0  0
  -17.7494    9.6179  -17.7901 H   0  0  0  0  0  0  0  0  0  0  0  0
  -17.7360   11.0266  -19.3590 C   0  0  0  0  0  0  0  0  0  0  0  0
  -16.7030   10.3126  -19.9849 C   0  0  0  0  0  0  0  0  0  0  0  0
  -16.1270   10.7242  -21.1528 C   0  0  0  0  0  0  0  0  0  0  0  0
  -16.5661   11.8836  -21.7526 C   0  0  0  0  0  0  0  0  0  0  0  0
  -15.9587   12.3596  -23.0107 C   0  0  0  0  0  0  0  0  0  0  0  0
  -17.5963   12.6524  -21.1853 C   0  0  0  0  0  0  0  0  0  0  0  0
  -18.1395   12.1846  -20.0021 C   0  0  0  0  0  0  0  0  0  0  0  0
  -18.0151   13.7809  -21.8828 N   0  0  0  0  0  0  0  0  0  0  0  0
  -18.4872   13.5757  -22.8561 H   0  0  0  0  0  0  0  0  0  0  0  0
  -17.9624   15.1611  -21.5817 C   0  0  0  0  0  0  0  0  0  0  0  0
  -17.2373   15.5733  -20.5000 N   0  0  0  0  0  0  0  0  0  0  0  0
  -17.1919   16.8506  -20.1667 C   0  0  0  0  0  0  0  0  0  0  0  0
  -17.8888   17.7896  -20.9217 C   0  0  0  0  0  0  0  0  0  0  0  0
  -18.6107   17.3792  -21.9968 C   0  0  0  0  0  0  0  0  0  0  0  0
  -18.6182   16.0622  -22.2880 N   0  0  0  0  0  0  0  0  0  0  0  0
  -19.3685   18.3566  -22.7645 C   0  0  0  0  0  0  0  0  0  0  0  0
  -18.8386   19.4760  -23.3509 C   0  0  0  0  0  0  0  0  0  0  0  0
  -19.6709   20.3066  -24.0143 N   0  0  0  0  0  0  0  0  0  0  0  0
  -20.9873   20.1002  -24.1329 C   0  0  0  0  0  0  0  0  0  0  0  0
  -21.5204   19.0026  -23.5601 N   0  0  0  0  0  0  0  0  0  0  0  0
  -20.7442   18.1454  -22.8909 C   0  0  0  0  0  0  0  0  0  0  0  0
  -20.2753    8.8851  -13.6888 C   0  0  0  0  0  0  0  0  0  0  0  0
  -19.6940    8.2457  -14.7845 C   0  0  0  0  0  0  0  0  0  0  0  0
  -19.3816    8.8962  -15.9615 C   0  0  0  0  0  0  0  0  0  0  0  0
  -19.6363   10.2383  -16.1064 C   0  0  0  0  0  0  0  0  0  0  0  0
  -20.2041   10.8804  -15.0440 C   0  0  0  0  0  0  0  0  0  0  0  0
  -20.5285   10.2329  -13.8388 C   0  0  0  0  0  0  0  0  0  0  0  0
  -21.1252   11.0258  -12.7586 C   0  0  0  0  0  0  0  0  0  0  0  0
  -22.2906   10.5554  -12.2382 F   0  0  0  0  0  0  0  0  0  0  0  0
  -20.1737   11.3536  -11.7792 F   0  0  0  0  0  0  0  0  0  0  0  0
  -21.4653   12.2954  -13.2727 F   0  0  0  0  0  0  0  0  0  0  0  0
  -20.5798    8.2252  -12.4184 C   0  0  0  0  0  0  0  0  0  0  0  0
  -18.5974    7.6264   -9.4052 C   0  0  0  0  0  0  0  0  0  0  0  0
  -17.6028    8.1796  -10.4069 C   0  0  0  0  0  0  0  0  0  0  0  0
  -18.3358    7.9513  -11.7257 C   0  0  0  0  0  0  0  0  0  0  0  0
  -19.6555    8.3937  -11.3586 N   0  0  0  0  0  0  0  0  0  0  0  0
  -19.9199    7.6865  -10.1471 C   0  0  0  0  0  0  0  0  0  0  0  0
  -19.1932    5.3151   -8.9690 C   0  0  0  0  0  0  0  0  0  0  0  0
  -18.2392    6.3578   -8.9003 N   0  0  0  0  0  0  0  0  0  0  0  0
  -16.8670    6.0058   -8.9405 C   0  0  0  0  0  0  0  0  0  0  0  0
 42 43  1  0  0  0
 43 44  1  0  0  0
 43 37  1  0  0  0
 37 38  1  0  0  0
 38 39  1  0  0  0
 39 40  1  0  0  0
 40 36  1  0  0  0
 36 26  1  0  0  0
 26 27  2  0  0  0
 27 28  1  0  0  0
 28 29  2  0  0  0
 29 30  1  0  0  0
 30 31  2  0  0  0
 31 32  1  0  0  0
 32 33  1  0  0  0
 32 34  1  0  0  0
 32 35  1  0  0  0
 29  1  1  0  0  0
  1  2  2  0  0  0
  1  3  1  0  0  0
  3  5  1  0  0  0
  5  6  2  0  0  0
  6  7  1  0  0  0
  7  8  2  0  0  0
  8  9  1  0  0  0
  8 10  1  0  0  0
 10 12  1  0  0  0
 12 14  1  0  0  0
 14 15  2  0  0  0
 15 16  1  0  0  0
 16 17  2  0  0  0
 17 18  1  0  0  0
 18 19  2  0  0  0
 18 20  1  0  0  0
 20 21  2  0  0  0
 21 22  1  0  0  0
 22 23  2  0  0  0
 23 24  1  0  0  0
 24 25  2  0  0  0
 10 11  2  0  0  0
 40 41  1  0  0  0
 41 37  1  0  0  0
 31 26  1  0  0  0
 11  5  1  0  0  0
 19 14  1  0  0  0
 25 20  1  0  0  0
  3  4  1  0  0  0
 12 13  1  0  0  0
M  END
> <minimizedAffinity>
-8.42353

> <CNNscore>
0.0726900250

> <CNNaffinity>
6.3343267441

> <CNN_VS>
0.4604423642

> <CNNaffinity_variance>
0.1130885705

$$$$
[H]c1nc(N([H])[H])c2c(-c3c([H])nc4c(c3[H])c([H])c([H])n4[H])nn(C([H])([H])C([H])([H])N3C([H])([H])C([H])([H])C([H])(N(C([H])([H])[H])C([H])([H])[H])C([H])([H])C3([H])[H])c2n1


 33 37  0  0  0  0  0  0  0  0999 V2000
  -18.4578   12.8235  -20.9330 N   0  0  0  0  0  0  0  0  0  0  0  0
  -18.2086   13.6524  -21.9201 N   0  0  0  0  0  0  0  0  0  0  0  0
  -17.0827   13.2687  -22.5930 C   0  0  0  0  0  0  0  0  0  0  0  0
  -16.6426   12.1410  -21.9553 C   0  0  0  0  0  0  0  0  0  0  0  0
  -15.5807   11.2654  -22.0886 C   0  0  0  0  0  0  0  0  0  0  0  0
  -14.6331   11.5249  -23.1166 N   0  0  0  0  0  0  0  0  0  0  0  0
  -15.4072   10.2139  -21.2635 N   0  0  0  0  0  0  0  0  0  0  0  0
  -16.2657    9.9729  -20.2685 C   0  0  0  0  0  0  0  0  0  0  0  0
  -17.3048   10.8030  -20.1088 N   0  0  0  0  0  0  0  0  0  0  0  0
  -17.5081   11.8426  -20.8957 C   0  0  0  0  0  0  0  0  0  0  0  0
  -13.9995   12.3339  -23.0204 H   0  0  0  0  0  0  0  0  0  0  0  0
  -14.5862   10.9149  -23.9362 H   0  0  0  0  0  0  0  0  0  0  0  0
  -16.4872   13.9632  -23.7338 C   0  0  0  0  0  0  0  0  0  0  0  0
  -15.4825   14.9159  -23.5048 C   0  0  0  0  0  0  0  0  0  0  0  0
  -14.9256   15.6251  -24.4686 N   0  0  0  0  0  0  0  0  0  0  0  0
  -15.3145   15.4513  -25.7325 C   0  0  0  0  0  0  0  0  0  0  0  0
  -14.8851   16.0626  -26.8738 N   0  0  0  0  0  0  0  0  0  0  0  0
  -15.5695   15.5591  -27.9071 C   0  0  0  0  0  0  0  0  0  0  0  0
  -16.4406   14.6203  -27.4185 C   0  0  0  0  0  0  0  0  0  0  0  0
  -16.3027   14.5291  -26.0430 C   0  0  0  0  0  0  0  0  0  0  0  0
  -16.8769   13.7964  -25.0359 C   0  0  0  0  0  0  0  0  0  0  0  0
  -14.1415   16.7994  -26.8981 H   0  0  0  0  0  0  0  0  0  0  0  0
  -19.5590   12.9130  -20.0203 C   0  0  0  0  0  0  0  0  0  0  0  0
  -19.1107   13.1108  -18.6120 C   0  0  0  0  0  0  0  0  0  0  0  0
  -20.5719   10.5605  -15.5300 C   0  0  0  0  0  0  0  0  0  0  0  0
  -19.7272   10.0015  -16.6497 C   0  0  0  0  0  0  0  0  0  0  0  0
  -18.9183   11.0808  -17.3388 C   0  0  0  0  0  0  0  0  0  0  0  0
  -19.6858   12.2274  -17.6601 N   0  0  0  0  0  0  0  0  0  0  0  0
  -20.4768   12.8034  -16.6480 C   0  0  0  0  0  0  0  0  0  0  0  0
  -20.2505   12.0490  -15.3586 C   0  0  0  0  0  0  0  0  0  0  0  0
  -19.6316   10.7492  -13.3928 C   0  0  0  0  0  0  0  0  0  0  0  0
  -20.2377    9.8314  -14.3241 N   0  0  0  0  0  0  0  0  0  0  0  0
  -19.3857    8.6964  -14.5565 C   0  0  0  0  0  0  0  0  0  0  0  0
 31 32  1  0  0  0
 32 33  1  0  0  0
 32 25  1  0  0  0
 25 26  1  0  0  0
 26 27  1  0  0  0
 27 28  1  0  0  0
 28 24  1  0  0  0
 24 23  1  0  0  0
 23  1  1  0  0  0
  1  2  1  0  0  0
  2  3  2  0  0  0
  3 13  1  0  0  0
 13 14  2  0  0  0
 14 15  1  0  0  0
 15 16  2  0  0  0
 16 17  1  0  0  0
 17 18  1  0  0  0
 18 19  2  0  0  0
 19 20  1  0  0  0
 20 21  2  0  0  0
  3  4  1  0  0  0
  4  5  2  0  0  0
  5  6  1  0  0  0
  5  7  1  0  0  0
  7  8  2  0  0  0
  8  9  1  0  0  0
  9 10  2  0  0  0
 28 29  1  0  0  0
 29 30  1  0  0  0
 30 25  1  0  0  0
 10  1  1  0  0  0
 21 13  1  0  0  0
 10  4  1  0  0  0
 20 16  1  0  0  0
 17 22  1  0  0  0
  6 11  1  0  0  0
  6 12  1  0  0  0
M  END
> <minimizedAffinity>
-9.64058

> <CNNscore>
0.9915869236

> <CNNaffinity>
7.7785811424

> <CNN_VS>
7.7131395340

> <CNNaffinity_variance>
0.0228618495

$$$$
[H]c1nc(N([H])[H])c2c(-c3c([H])nc4c(c3[H])c([H])c([H])n4[H])nn(C([H])([H])C([H])([H])N3C([H])([H])C([H])([H])C([H])(N(C([H])([H])[H])C([H])([H])[H])C([H])([H])C3([H])[H])c2n1


 33 37  0  0  0  0  0  0  0  0999 V2000
  -18.4598   12.8508  -20.8549 N   0  0  0  0  0  0  0  0  0  0  0  0
  -18.2166   13.6773  -21.8455 N   0  0  0  0  0  0  0  0  0  0  0  0
  -17.1050   13.2820  -22.5352 C   0  0  0  0  0  0  0  0  0  0  0  0
  -16.6673   12.1495  -21.9043 C   0  0  0  0  0  0  0  0  0  0  0  0
  -15.6168   11.2628  -22.0537 C   0  0  0  0  0  0  0  0  0  0  0  0
  -14.6820   11.5126  -23.0956 N   0  0  0  0  0  0  0  0  0  0  0  0
  -15.4422   10.2092  -21.2315 N   0  0  0  0  0  0  0  0  0  0  0  0
  -16.2882    9.9769  -20.2238 C   0  0  0  0  0  0  0  0  0  0  0  0
  -17.3160   10.8179  -20.0485 N   0  0  0  0  0  0  0  0  0  0  0  0
  -17.5200   11.8598  -20.8320 C   0  0  0  0  0  0  0  0  0  0  0  0
  -14.0386   12.3149  -23.0087 H   0  0  0  0  0  0  0  0  0  0  0  0
  -14.6538   10.9025  -23.9160 H   0  0  0  0  0  0  0  0  0  0  0  0
  -16.5192   13.9706  -23.6846 C   0  0  0  0  0  0  0  0  0  0  0  0
  -15.5307   14.9428  -23.4674 C   0  0  0  0  0  0  0  0  0  0  0  0
  -14.9841   15.6479  -24.4400 N   0  0  0  0  0  0  0  0  0  0  0  0
  -15.3681   15.4504  -25.7019 C   0  0  0  0  0  0  0  0  0  0  0  0
  -14.9471   16.0531  -26.8509 N   0  0  0  0  0  0  0  0  0  0  0  0
  -15.6216   15.5244  -27.8781 C   0  0  0  0  0  0  0  0  0  0  0  0
  -16.4778   14.5781  -27.3778 C   0  0  0  0  0  0  0  0  0  0  0  0
  -16.3406   14.5079  -26.0011 C   0  0  0  0  0  0  0  0  0  0  0  0
  -16.9042   13.7797  -24.9848 C   0  0  0  0  0  0  0  0  0  0  0  0
  -14.2158   16.8017  -26.8843 H   0  0  0  0  0  0  0  0  0  0  0  0
  -19.5463   12.9516  -19.9259 C   0  0  0  0  0  0  0  0  0  0  0  0
  -19.1509   13.6477  -18.6679 C   0  0  0  0  0  0  0  0  0  0  0  0
  -20.8162   11.6887  -15.2728 C   0  0  0  0  0  0  0  0  0  0  0  0
  -21.2182   13.1037  -15.6136 C   0  0  0  0  0  0  0  0  0  0  0  0
  -20.9272   13.4393  -17.0617 C   0  0  0  0  0  0  0  0  0  0  0  0
  -19.6259   13.0541  -17.4683 N   0  0  0  0  0  0  0  0  0  0  0  0
  -19.2056   11.7387  -17.1946 C   0  0  0  0  0  0  0  0  0  0  0  0
  -20.3439   10.9837  -16.5488 C   0  0  0  0  0  0  0  0  0  0  0  0
  -22.4509   10.0673  -15.7041 C   0  0  0  0  0  0  0  0  0  0  0  0
  -21.9818   11.0214  -14.7311 N   0  0  0  0  0  0  0  0  0  0  0  0
  -23.0335   11.9236  -14.3466 C   0  0  0  0  0  0  0  0  0  0  0  0
 31 32  1  0  0  0
 32 33  1  0  0  0
 32 25  1  0  0  0
 25 26  1  0  0  0
 26 27  1  0  0  0
 27 28  1  0  0  0
 28 24  1  0  0  0
 24 23  1  0  0  0
 23  1  1  0  0  0
  1  2  1  0  0  0
  2  3  2  0  0  0
  3 13  1  0  0  0
 13 14  2  0  0  0
 14 15  1  0  0  0
 15 16  2  0  0  0
 16 17  1  0  0  0
 17 18  1  0  0  0
 18 19  2  0  0  0
 19 20  1  0  0  0
 20 21  2  0  0  0
  3  4  1  0  0  0
  4  5  2  0  0  0
  5  6  1  0  0  0
  5  7  1  0  0  0
  7  8  2  0  0  0
  8  9  1  0  0  0
  9 10  2  0  0  0
 28 29  1  0  0  0
 29 30  1  0  0  0
 30 25  1  0  0  0
 10  1  1  0  0  0
 21 13  1  0  0  0
 10  4  1  0  0  0
 20 16  1  0  0  0
 17 22  1  0  0  0
  6 11  1  0  0  0
  6 12  1  0  0  0
M  END
> <minimizedAffinity>
-9.34615

> <CNNscore>
0.9909049869

> <CNNaffinity>
7.7140250206

> <CNN_VS>
7.6438660622

> <CNNaffinity_variance>
0.0268379301

$$$$
[H]c1nc(N([H])[H])c2c(-c3c([H])nc4c(c3[H])c([H])c([H])n4[H])nn(C([H])([H])C([H])([H])N3C([H])([H])C([H])([H])C([H])(N(C([H])([H])[H])C([H])([H])[H])C([H])([H])C3([H])[H])c2n1


 33 37  0  0  0  0  0  0  0  0999 V2000
  -18.4139   12.8614  -20.8605 N   0  0  0  0  0  0  0  0  0  0  0  0
  -18.1706   13.6809  -21.8569 N   0  0  0  0  0  0  0  0  0  0  0  0
  -17.0628   13.2770  -22.5477 C   0  0  0  0  0  0  0  0  0  0  0  0
  -16.6276   12.1465  -21.9114 C   0  0  0  0  0  0  0  0  0  0  0  0
  -15.5811   11.2548  -22.0587 C   0  0  0  0  0  0  0  0  0  0  0  0
  -14.6487   11.4945  -23.1051 N   0  0  0  0  0  0  0  0  0  0  0  0
  -15.4081   10.2055  -21.2306 N   0  0  0  0  0  0  0  0  0  0  0  0
  -16.2518    9.9828  -20.2189 C   0  0  0  0  0  0  0  0  0  0  0  0
  -17.2757   10.8289  -20.0454 N   0  0  0  0  0  0  0  0  0  0  0  0
  -17.4780   11.8669  -20.8346 C   0  0  0  0  0  0  0  0  0  0  0  0
  -14.0018   12.2947  -23.0251 H   0  0  0  0  0  0  0  0  0  0  0  0
  -14.6255   10.8793  -23.9218 H   0  0  0  0  0  0  0  0  0  0  0  0
  -16.4779   13.9562  -23.7032 C   0  0  0  0  0  0  0  0  0  0  0  0
  -15.4613   14.9015  -23.4973 C   0  0  0  0  0  0  0  0  0  0  0  0
  -14.9123   15.5973  -24.4753 N   0  0  0  0  0  0  0  0  0  0  0  0
  -15.3216   15.4163  -25.7318 C   0  0  0  0  0  0  0  0  0  0  0  0
  -14.9036   16.0139  -26.8846 N   0  0  0  0  0  0  0  0  0  0  0  0
  -15.6079   15.5081  -27.9032 C   0  0  0  0  0  0  0  0  0  0  0  0
  -16.4802   14.5815  -27.3936 C   0  0  0  0  0  0  0  0  0  0  0  0
  -16.3227   14.5007  -26.0197 C   0  0  0  0  0  0  0  0  0  0  0  0
  -16.8885   13.7820  -24.9979 C   0  0  0  0  0  0  0  0  0  0  0  0
  -14.1538   16.7436  -26.9262 H   0  0  0  0  0  0  0  0  0  0  0  0
  -19.4970   12.9722  -19.9287 C   0  0  0  0  0  0  0  0  0  0  0  0
  -20.1694   14.3011  -19.9998 C   0  0  0  0  0  0  0  0  0  0  0  0
  -18.9072   17.2118  -17.1586 C   0  0  0  0  0  0  0  0  0  0  0  0
  -19.6310   17.6324  -18.4152 C   0  0  0  0  0  0  0  0  0  0  0  0
  -20.4094   16.4867  -19.0279 C   0  0  0  0  0  0  0  0  0  0  0  0
  -19.6532   15.2925  -19.1234 N   0  0  0  0  0  0  0  0  0  0  0  0
  -18.9740   14.8417  -17.9757 C   0  0  0  0  0  0  0  0  0  0  0  0
  -19.2897   15.7663  -16.8232 C   0  0  0  0  0  0  0  0  0  0  0  0
  -20.2152   17.3804  -15.2226 C   0  0  0  0  0  0  0  0  0  0  0  0
  -19.3238   18.1023  -16.0951 N   0  0  0  0  0  0  0  0  0  0  0  0
  -19.9361   19.3146  -16.5676 C   0  0  0  0  0  0  0  0  0  0  0  0
 31 32  1  0  0  0
 32 33  1  0  0  0
 32 25  1  0  0  0
 25 26  1  0  0  0
 26 27  1  0  0  0
 27 28  1  0  0  0
 28 24  1  0  0  0
 24 23  1  0  0  0
 23  1  1  0  0  0
  1  2  1  0  0  0
  2  3  2  0  0  0
  3 13  1  0  0  0
 13 14  2  0  0  0
 14 15  1  0  0  0
 15 16  2  0  0  0
 16 17  1  0  0  0
 17 18  1  0  0  0
 18 19  2  0  0  0
 19 20  1  0  0  0
 20 21  2  0  0  0
  3  4  1  0  0  0
  4  5  2  0  0  0
  5  6  1  0  0  0
  5  7  1  0  0  0
  7  8  2  0  0  0
  8  9  1  0  0  0
  9 10  2  0  0  0
 28 29  1  0  0  0
 29 30  1  0  0  0
 30 25  1  0  0  0
 10  1  1  0  0  0
 21 13  1  0  0  0
 10  4  1  0  0  0
 20 16  1  0  0  0
 17 22  1  0  0  0
  6 11  1  0  0  0
  6 12  1  0  0  0
M  END
> <minimizedAffinity>
-9.42086

> <CNNscore>
0.9907599092

> <CNNaffinity>
7.9612016678

> <CNN_VS>
7.8876395226

> <CNNaffinity_variance>
0.0126694990

$$$$
[H]c1nc(N([H])[H])c2c(-c3c([H])nc4c(c3[H])c([H])c([H])n4[H])nn(C([H])([H])C([H])([H])N3C([H])([H])C([H])([H])C([H])(N(C([H])([H])[H])C([H])([H])[H])C([H])([H])C3([H])[H])c2n1


 33 37  0  0  0  0  0  0  0  0999 V2000
  -18.4037   12.8324  -20.7567 N   0  0  0  0  0  0  0  0  0  0  0  0
  -18.1739   13.6661  -21.7445 N   0  0  0  0  0  0  0  0  0  0  0  0
  -17.0846   13.2639  -22.4651 C   0  0  0  0  0  0  0  0  0  0  0  0
  -16.6466   12.1192  -21.8568 C   0  0  0  0  0  0  0  0  0  0  0  0
  -15.6117   11.2207  -22.0408 C   0  0  0  0  0  0  0  0  0  0  0  0
  -14.6994   11.4695  -23.1027 N   0  0  0  0  0  0  0  0  0  0  0  0
  -15.4310   10.1564  -21.2339 N   0  0  0  0  0  0  0  0  0  0  0  0
  -16.2552    9.9245  -20.2083 C   0  0  0  0  0  0  0  0  0  0  0  0
  -17.2673   10.7767  -19.9993 N   0  0  0  0  0  0  0  0  0  0  0  0
  -17.4767   11.8293  -20.7669 C   0  0  0  0  0  0  0  0  0  0  0  0
  -14.0435   12.2624  -23.0233 H   0  0  0  0  0  0  0  0  0  0  0  0
  -14.6991   10.8677  -23.9297 H   0  0  0  0  0  0  0  0  0  0  0  0
  -16.5180   13.9569  -23.6215 C   0  0  0  0  0  0  0  0  0  0  0  0
  -15.5468   14.9487  -23.4149 C   0  0  0  0  0  0  0  0  0  0  0  0
  -15.0188   15.6585  -24.3943 N   0  0  0  0  0  0  0  0  0  0  0  0
  -15.4057   15.4468  -25.6530 C   0  0  0  0  0  0  0  0  0  0  0  0
  -15.0022   16.0509  -26.8076 N   0  0  0  0  0  0  0  0  0  0  0  0
  -15.6720   15.5039  -27.8282 C   0  0  0  0  0  0  0  0  0  0  0  0
  -16.5077   14.5445  -27.3181 C   0  0  0  0  0  0  0  0  0  0  0  0
  -16.3618   14.4846  -25.9418 C   0  0  0  0  0  0  0  0  0  0  0  0
  -16.9062   13.7516  -24.9185 C   0  0  0  0  0  0  0  0  0  0  0  0
  -14.2852   16.8129  -26.8490 H   0  0  0  0  0  0  0  0  0  0  0  0
  -19.4658   12.9373  -19.8004 C   0  0  0  0  0  0  0  0  0  0  0  0
  -20.4065   14.0489  -20.1210 C   0  0  0  0  0  0  0  0  0  0  0  0
  -22.0998   15.9321  -16.6969 C   0  0  0  0  0  0  0  0  0  0  0  0
  -21.6329   14.4979  -16.6291 C   0  0  0  0  0  0  0  0  0  0  0  0
  -20.6473   14.1730  -17.7323 C   0  0  0  0  0  0  0  0  0  0  0  0
  -21.0749   14.6216  -19.0063 N   0  0  0  0  0  0  0  0  0  0  0  0
  -21.5017   15.9572  -19.1324 C   0  0  0  0  0  0  0  0  0  0  0  0
  -21.3267   16.6562  -17.8043 C   0  0  0  0  0  0  0  0  0  0  0  0
  -22.5996   15.8513  -14.4098 C   0  0  0  0  0  0  0  0  0  0  0  0
  -21.8276   16.5419  -15.4118 N   0  0  0  0  0  0  0  0  0  0  0  0
  -22.0898   17.9555  -15.3796 C   0  0  0  0  0  0  0  0  0  0  0  0
 31 32  1  0  0  0
 32 33  1  0  0  0
 32 25  1  0  0  0
 25 26  1  0  0  0
 26 27  1  0  0  0
 27 28  1  0  0  0
 28 24  1  0  0  0
 24 23  1  0  0  0
 23  1  1  0  0  0
  1  2  1  0  0  0
  2  3  2  0  0  0
  3 13  1  0  0  0
 13 14  2  0  0  0
 14 15  1  0  0  0
 15 16  2  0  0  0
 16 17  1  0  0  0
 17 18  1  0  0  0
 18 19  2  0  0  0
 19 20  1  0  0  0
 20 21  2  0  0  0
  3  4  1  0  0  0
  4  5  2  0  0  0
  5  6  1  0  0  0
  5  7  1  0  0  0
  7  8  2  0  0  0
  8  9  1  0  0  0
  9 10  2  0  0  0
 28 29  1  0  0  0
 29 30  1  0  0  0
 30 25  1  0  0  0
 10  1  1  0  0  0
 21 13  1  0  0  0
 10  4  1  0  0  0
 20 16  1  0  0  0
 17 22  1  0  0  0
  6 11  1  0  0  0
  6 12  1  0  0  0
M  END
> <minimizedAffinity>
-9.02792

> <CNNscore>
0.9873790145

> <CNNaffinity>
7.7201704979

> <CNN_VS>
7.6227345467

> <CNNaffinity_variance>
0.0112369861

$$$$
[H]c1nc(N([H])[H])c2c(-c3c([H])nc4c(c3[H])c([H])c([H])n4[H])nn(C([H])([H])C([H])([H])N3C([H])([H])C([H])([H])C([H])(N(C([H])([H])[H])C([H])([H])[H])C([H])([H])C3([H])[H])c2n1


 33 37  0  0  0  0  0  0  0  0999 V2000
  -18.4011   12.9140  -20.8266 N   0  0  0  0  0  0  0  0  0  0  0  0
  -18.1524   13.7289  -21.8255 N   0  0  0  0  0  0  0  0  0  0  0  0
  -17.0574   13.3060  -22.5254 C   0  0  0  0  0  0  0  0  0  0  0  0
  -16.6360   12.1687  -21.8920 C   0  0  0  0  0  0  0  0  0  0  0  0
  -15.6060   11.2594  -22.0476 C   0  0  0  0  0  0  0  0  0  0  0  0
  -14.6785   11.4829  -23.1020 N   0  0  0  0  0  0  0  0  0  0  0  0
  -15.4436   10.2077  -21.2204 N   0  0  0  0  0  0  0  0  0  0  0  0
  -16.2824    9.9997  -20.2015 C   0  0  0  0  0  0  0  0  0  0  0  0
  -17.2904   10.8630  -20.0199 N   0  0  0  0  0  0  0  0  0  0  0  0
  -17.4819   11.9039  -20.8080 C   0  0  0  0  0  0  0  0  0  0  0  0
  -14.0175   12.2721  -23.0279 H   0  0  0  0  0  0  0  0  0  0  0  0
  -14.6725   10.8670  -23.9185 H   0  0  0  0  0  0  0  0  0  0  0  0
  -16.4710   13.9748  -23.6861 C   0  0  0  0  0  0  0  0  0  0  0  0
  -15.4379   14.9041  -23.4892 C   0  0  0  0  0  0  0  0  0  0  0  0
  -14.8857   15.5902  -24.4722 N   0  0  0  0  0  0  0  0  0  0  0  0
  -15.3075   15.4145  -25.7252 C   0  0  0  0  0  0  0  0  0  0  0  0
  -14.8892   16.0043  -26.8819 N   0  0  0  0  0  0  0  0  0  0  0  0
  -15.6094   15.5086  -27.8945 C   0  0  0  0  0  0  0  0  0  0  0  0
  -16.4922   14.5965  -27.3771 C   0  0  0  0  0  0  0  0  0  0  0  0
  -16.3253   14.5146  -26.0043 C   0  0  0  0  0  0  0  0  0  0  0  0
  -16.8943   13.8059  -24.9773 C   0  0  0  0  0  0  0  0  0  0  0  0
  -14.1283   16.7220  -26.9302 H   0  0  0  0  0  0  0  0  0  0  0  0
  -19.4742   13.0435  -19.8858 C   0  0  0  0  0  0  0  0  0  0  0  0
  -19.0692   13.8028  -18.6681 C   0  0  0  0  0  0  0  0  0  0  0  0
  -19.1718   18.0552  -18.8797 C   0  0  0  0  0  0  0  0  0  0  0  0
  -19.8737   17.2198  -19.9234 C   0  0  0  0  0  0  0  0  0  0  0  0
  -20.1441   15.8130  -19.4314 C   0  0  0  0  0  0  0  0  0  0  0  0
  -19.0150   15.2138  -18.8205 N   0  0  0  0  0  0  0  0  0  0  0  0
  -18.3338   15.9397  -17.8250 C   0  0  0  0  0  0  0  0  0  0  0  0
  -19.0589   17.2434  -17.5849 C   0  0  0  0  0  0  0  0  0  0  0  0
  -19.0842   20.3315  -18.3337 C   0  0  0  0  0  0  0  0  0  0  0  0
  -19.9706   19.2432  -18.6608 N   0  0  0  0  0  0  0  0  0  0  0  0
  -20.9791   19.0790  -17.6489 C   0  0  0  0  0  0  0  0  0  0  0  0
 31 32  1  0  0  0
 32 33  1  0  0  0
 32 25  1  0  0  0
 25 26  1  0  0  0
 26 27  1  0  0  0
 27 28  1  0  0  0
 28 24  1  0  0  0
 24 23  1  0  0  0
 23  1  1  0  0  0
  1  2  1  0  0  0
  2  3  2  0  0  0
  3 13  1  0  0  0
 13 14  2  0  0  0
 14 15  1  0  0  0
 15 16  2  0  0  0
 16 17  1  0  0  0
 17 18  1  0  0  0
 18 19  2  0  0  0
 19 20  1  0  0  0
 20 21  2  0  0  0
  3  4  1  0  0  0
  4  5  2  0  0  0
  5  6  1  0  0  0
  5  7  1  0  0  0
  7  8  2  0  0  0
  8  9  1  0  0  0
  9 10  2  0  0  0
 28 29  1  0  0  0
 29 30  1  0  0  0
 30 25  1  0  0  0
 10  1  1  0  0  0
 21 13  1  0  0  0
 10  4  1  0  0  0
 20 16  1  0  0  0
 17 22  1  0  0  0
  6 11  1  0  0  0
  6 12  1  0  0  0
M  END
> <minimizedAffinity>
-9.26606

> <CNNscore>
0.9872599244

> <CNNaffinity>
8.0485019684

> <CNN_VS>
7.9459633827

> <CNNaffinity_variance>
0.0089542987

$$$$
[H]c1nc(N([H])[H])c2c(-c3c([H])nc4c(c3[H])c([H])c([H])n4[H])nn(C([H])([H])C([H])([H])N3C([H])([H])C([H])([H])C([H])(N(C([H])([H])[H])C([H])([H])[H])C([H])([H])C3([H])[H])c2n1


 33 37  0  0  0  0  0  0  0  0999 V2000
  -18.3902   12.9298  -20.8026 N   0  0  0  0  0  0  0  0  0  0  0  0
  -18.1457   13.7430  -21.8038 N   0  0  0  0  0  0  0  0  0  0  0  0
  -17.0571   13.3157  -22.5110 C   0  0  0  0  0  0  0  0  0  0  0  0
  -16.6353   12.1774  -21.8797 C   0  0  0  0  0  0  0  0  0  0  0  0
  -15.6096   11.2643  -22.0418 C   0  0  0  0  0  0  0  0  0  0  0  0
  -14.6887   11.4837  -23.1028 N   0  0  0  0  0  0  0  0  0  0  0  0
  -15.4451   10.2127  -21.2149 N   0  0  0  0  0  0  0  0  0  0  0  0
  -16.2775   10.0085  -20.1899 C   0  0  0  0  0  0  0  0  0  0  0  0
  -17.2811   10.8755  -20.0020 N   0  0  0  0  0  0  0  0  0  0  0  0
  -17.4744   11.9164  -20.7896 C   0  0  0  0  0  0  0  0  0  0  0  0
  -14.0245   12.2706  -23.0340 H   0  0  0  0  0  0  0  0  0  0  0  0
  -14.6907   10.8672  -23.9189 H   0  0  0  0  0  0  0  0  0  0  0  0
  -16.4765   13.9814  -23.6764 C   0  0  0  0  0  0  0  0  0  0  0  0
  -15.4588   14.9287  -23.4852 C   0  0  0  0  0  0  0  0  0  0  0  0
  -14.9134   15.6131  -24.4732 N   0  0  0  0  0  0  0  0  0  0  0  0
  -15.3274   15.4179  -25.7259 C   0  0  0  0  0  0  0  0  0  0  0  0
  -14.9137   16.0021  -26.8871 N   0  0  0  0  0  0  0  0  0  0  0  0
  -15.6220   15.4849  -27.8972 C   0  0  0  0  0  0  0  0  0  0  0  0
  -16.4926   14.5645  -27.3737 C   0  0  0  0  0  0  0  0  0  0  0  0
  -16.3299   14.4994  -25.9995 C   0  0  0  0  0  0  0  0  0  0  0  0
  -16.8920   13.7926  -24.9674 C   0  0  0  0  0  0  0  0  0  0  0  0
  -14.1638   16.7311  -26.9399 H   0  0  0  0  0  0  0  0  0  0  0  0
  -19.4562   13.0637  -19.8543 C   0  0  0  0  0  0  0  0  0  0  0  0
  -19.1655   14.0977  -18.8201 C   0  0  0  0  0  0  0  0  0  0  0  0
  -20.2300   18.0039  -20.1414 C   0  0  0  0  0  0  0  0  0  0  0  0
  -18.9835   17.7880  -19.3171 C   0  0  0  0  0  0  0  0  0  0  0  0
  -18.5179   16.3476  -19.3656 C   0  0  0  0  0  0  0  0  0  0  0  0
  -19.5665   15.4195  -19.1508 N   0  0  0  0  0  0  0  0  0  0  0  0
  -20.7451   15.5606  -19.9076 C   0  0  0  0  0  0  0  0  0  0  0  0
  -20.5710   16.7047  -20.8791 C   0  0  0  0  0  0  0  0  0  0  0  0
  -20.1280   18.5377  -22.4200 C   0  0  0  0  0  0  0  0  0  0  0  0
  -19.9494   19.0622  -21.0896 N   0  0  0  0  0  0  0  0  0  0  0  0
  -18.6415   19.6398  -20.9354 C   0  0  0  0  0  0  0  0  0  0  0  0
 31 32  1  0  0  0
 32 33  1  0  0  0
 32 25  1  0  0  0
 25 26  1  0  0  0
 26 27  1  0  0  0
 27 28  1  0  0  0
 28 24  1  0  0  0
 24 23  1  0  0  0
 23  1  1  0  0  0
  1  2  1  0  0  0
  2  3  2  0  0  0
  3 13  1  0  0  0
 13 14  2  0  0  0
 14 15  1  0  0  0
 15 16  2  0  0  0
 16 17  1  0  0  0
 17 18  1  0  0  0
 18 19  2  0  0  0
 19 20  1  0  0  0
 20 21  2  0  0  0
  3  4  1  0  0  0
  4  5  2  0  0  0
  5  6  1  0  0  0
  5  7  1  0  0  0
  7  8  2  0  0  0
  8  9  1  0  0  0
  9 10  2  0  0  0
 28 29  1  0  0  0
 29 30  1  0  0  0
 30 25  1  0  0  0
 10  1  1  0  0  0
 21 13  1  0  0  0
 10  4  1  0  0  0
 20 16  1  0  0  0
 17 22  1  0  0  0
  6 11  1  0  0  0
  6 12  1  0  0  0
M  END
> <minimizedAffinity>
-9.22149

> <CNNscore>
0.9823179841

> <CNNaffinity>
8.0342426300

> <CNN_VS>
7.8921809196

> <CNNaffinity_variance>
0.0619220659

$$$$
[H]c1nc(N([H])[H])c2c(-c3c([H])nc4c(c3[H])c([H])c([H])n4[H])nn(C([H])([H])C([H])([H])N3C([H])([H])C([H])([H])C([H])(N(C([H])([H])[H])C([H])([H])[H])C([H])([H])C3([H])[H])c2n1


 33 37  0  0  0  0  0  0  0  0999 V2000
  -18.4939   12.8439  -20.3366 N   0  0  0  0  0  0  0  0  0  0  0  0
  -18.3974   13.5512  -21.4384 N   0  0  0  0  0  0  0  0  0  0  0  0
  -17.3869   13.0741  -22.2250 C   0  0  0  0  0  0  0  0  0  0  0  0
  -16.8552   12.0182  -21.5361 C   0  0  0  0  0  0  0  0  0  0  0  0
  -15.8260   11.1146  -21.7270 C   0  0  0  0  0  0  0  0  0  0  0  0
  -15.0456   11.2393  -22.9091 N   0  0  0  0  0  0  0  0  0  0  0  0
  -15.5294   10.1603  -20.8226 N   0  0  0  0  0  0  0  0  0  0  0  0
  -16.2269   10.0486  -19.6885 C   0  0  0  0  0  0  0  0  0  0  0  0
  -17.2295   10.9096  -19.4700 N   0  0  0  0  0  0  0  0  0  0  0  0
  -17.5497   11.8569  -20.3310 C   0  0  0  0  0  0  0  0  0  0  0  0
  -14.4045   12.0427  -23.0028 H   0  0  0  0  0  0  0  0  0  0  0  0
  -15.1238   10.5398  -23.6511 H   0  0  0  0  0  0  0  0  0  0  0  0
  -16.9713   13.6244  -23.5146 C   0  0  0  0  0  0  0  0  0  0  0  0
  -17.6543   13.2327  -24.6764 C   0  0  0  0  0  0  0  0  0  0  0  0
  -17.3161   13.6393  -25.8855 N   0  0  0  0  0  0  0  0  0  0  0  0
  -16.2795   14.4633  -26.0448 C   0  0  0  0  0  0  0  0  0  0  0  0
  -15.7574   15.0057  -27.1824 N   0  0  0  0  0  0  0  0  0  0  0  0
  -14.7157   15.7744  -26.8455 C   0  0  0  0  0  0  0  0  0  0  0  0
  -14.5748   15.7201  -25.4831 C   0  0  0  0  0  0  0  0  0  0  0  0
  -15.5515   14.8969  -24.9469 C   0  0  0  0  0  0  0  0  0  0  0  0
  -15.9088   14.4694  -23.6938 C   0  0  0  0  0  0  0  0  0  0  0  0
  -16.1357   14.8269  -28.1422 H   0  0  0  0  0  0  0  0  0  0  0  0
  -19.4436   13.0554  -19.2845 C   0  0  0  0  0  0  0  0  0  0  0  0
  -19.0494   14.1775  -18.3851 C   0  0  0  0  0  0  0  0  0  0  0  0
  -20.0420   17.9624  -20.0664 C   0  0  0  0  0  0  0  0  0  0  0  0
  -18.7236   17.7615  -19.3584 C   0  0  0  0  0  0  0  0  0  0  0  0
  -18.3460   16.2971  -19.2747 C   0  0  0  0  0  0  0  0  0  0  0  0
  -19.4125   15.4748  -18.8349 N   0  0  0  0  0  0  0  0  0  0  0  0
  -20.6601   15.6051  -19.4740 C   0  0  0  0  0  0  0  0  0  0  0  0
  -20.5353   16.6111  -20.5945 C   0  0  0  0  0  0  0  0  0  0  0  0
  -19.8357   18.1273  -22.3940 C   0  0  0  0  0  0  0  0  0  0  0  0
  -19.8136   18.8788  -21.1644 N   0  0  0  0  0  0  0  0  0  0  0  0
  -18.5931   19.6294  -21.0419 C   0  0  0  0  0  0  0  0  0  0  0  0
 31 32  1  0  0  0
 32 33  1  0  0  0
 32 25  1  0  0  0
 25 26  1  0  0  0
 26 27  1  0  0  0
 27 28  1  0  0  0
 28 24  1  0  0  0
 24 23  1  0  0  0
 23  1  1  0  0  0
  1  2  1  0  0  0
  2  3  2  0  0  0
  3 13  1  0  0  0
 13 14  2  0  0  0
 14 15  1  0  0  0
 15 16  2  0  0  0
 16 17  1  0  0  0
 17 18  1  0  0  0
 18 19  2  0  0  0
 19 20  1  0  0  0
 20 21  2  0  0  0
  3  4  1  0  0  0
  4  5  2  0  0  0
  5  6  1  0  0  0
  5  7  1  0  0  0
  7  8  2  0  0  0
  8  9  1  0  0  0
  9 10  2  0  0  0
 28 29  1  0  0  0
 29 30  1  0  0  0
 30 25  1  0  0  0
 10  1  1  0  0  0
 21 13  1  0  0  0
 10  4  1  0  0  0
 20 16  1  0  0  0
 17 22  1  0  0  0
  6 11  1  0  0  0
  6 12  1  0  0  0
M  END
> <minimizedAffinity>
-8.44433

> <CNNscore>
0.9740805626

> <CNNaffinity>
7.9823236465

> <CNN_VS>
7.7754263878

> <CNNaffinity_variance>
0.0106536103

$$$$
[H]c1nc(N([H])[H])c2c(-c3c([H])nc4c(c3[H])c([H])c([H])n4[H])nn(C([H])([H])C([H])([H])N3C([H])([H])C([H])([H])C([H])(N(C([H])([H])[H])C([H])([H])[H])C([H])([H])C3([H])[H])c2n1


 33 37  0  0  0  0  0  0  0  0999 V2000
  -18.5701   12.8723  -20.1875 N   0  0  0  0  0  0  0  0  0  0  0  0
  -18.4145   13.6283  -21.2494 N   0  0  0  0  0  0  0  0  0  0  0  0
  -17.4130   13.1398  -22.0407 C   0  0  0  0  0  0  0  0  0  0  0  0
  -16.9503   12.0244  -21.3973 C   0  0  0  0  0  0  0  0  0  0  0  0
  -15.9646   11.0796  -21.6154 C   0  0  0  0  0  0  0  0  0  0  0  0
  -15.1539   11.2232  -22.7748 N   0  0  0  0  0  0  0  0  0  0  0  0
  -15.7360   10.0668  -20.7559 N   0  0  0  0  0  0  0  0  0  0  0  0
  -16.4621    9.9343  -19.6422 C   0  0  0  0  0  0  0  0  0  0  0  0
  -17.4241   10.8339  -19.3983 N   0  0  0  0  0  0  0  0  0  0  0  0
  -17.6775   11.8387  -20.2152 C   0  0  0  0  0  0  0  0  0  0  0  0
  -14.4711   11.9961  -22.8151 H   0  0  0  0  0  0  0  0  0  0  0  0
  -15.2519   10.5670  -23.5531 H   0  0  0  0  0  0  0  0  0  0  0  0
  -16.9429   13.7323  -23.2923 C   0  0  0  0  0  0  0  0  0  0  0  0
  -17.7549   13.6504  -24.4341 C   0  0  0  0  0  0  0  0  0  0  0  0
  -17.3898   14.1120  -25.6154 N   0  0  0  0  0  0  0  0  0  0  0  0
  -16.1971   14.6903  -25.7642 C   0  0  0  0  0  0  0  0  0  0  0  0
  -15.6180   15.2323  -26.8740 N   0  0  0  0  0  0  0  0  0  0  0  0
  -14.4093   15.6960  -26.5373 C   0  0  0  0  0  0  0  0  0  0  0  0
  -14.2189   15.4468  -25.2029 C   0  0  0  0  0  0  0  0  0  0  0  0
  -15.3347   14.8100  -24.6847 C   0  0  0  0  0  0  0  0  0  0  0  0
  -15.7212   14.3273  -23.4606 C   0  0  0  0  0  0  0  0  0  0  0  0
  -16.0742   15.2620  -27.8161 H   0  0  0  0  0  0  0  0  0  0  0  0
  -19.5299   13.0794  -19.1437 C   0  0  0  0  0  0  0  0  0  0  0  0
  -18.9045   13.0638  -17.7902 C   0  0  0  0  0  0  0  0  0  0  0  0
  -21.8426   12.8786  -14.7126 C   0  0  0  0  0  0  0  0  0  0  0  0
  -21.7934   14.0582  -15.6539 C   0  0  0  0  0  0  0  0  0  0  0  0
  -21.0487   13.7298  -16.9312 C   0  0  0  0  0  0  0  0  0  0  0  0
  -19.8138   13.0755  -16.6992 N   0  0  0  0  0  0  0  0  0  0  0  0
  -19.8042   11.9560  -15.8457 C   0  0  0  0  0  0  0  0  0  0  0  0
  -21.2193   11.6620  -15.4053 C   0  0  0  0  0  0  0  0  0  0  0  0
  -23.8076   13.8312  -13.8651 C   0  0  0  0  0  0  0  0  0  0  0  0
  -23.2343   12.6235  -14.4034 N   0  0  0  0  0  0  0  0  0  0  0  0
  -23.4300   11.5166  -13.5065 C   0  0  0  0  0  0  0  0  0  0  0  0
 31 32  1  0  0  0
 32 33  1  0  0  0
 32 25  1  0  0  0
 25 26  1  0  0  0
 26 27  1  0  0  0
 27 28  1  0  0  0
 28 24  1  0  0  0
 24 23  1  0  0  0
 23  1  1  0  0  0
  1  2  1  0  0  0
  2  3  2  0  0  0
  3 13  1  0  0  0
 13 14  2  0  0  0
 14 15  1  0  0  0
 15 16  2  0  0  0
 16 17  1  0  0  0
 17 18  1  0  0  0
 18 19  2  0  0  0
 19 20  1  0  0  0
 20 21  2  0  0  0
  3  4  1  0  0  0
  4  5  2  0  0  0
  5  6  1  0  0  0
  5  7  1  0  0  0
  7  8  2  0  0  0
  8  9  1  0  0  0
  9 10  2  0  0  0
 28 29  1  0  0  0
 29 30  1  0  0  0
 30 25  1  0  0  0
 10  1  1  0  0  0
 21 13  1  0  0  0
 10  4  1  0  0  0
 20 16  1  0  0  0
 17 22  1  0  0  0
  6 11  1  0  0  0
  6 12  1  0  0  0
M  END
> <minimizedAffinity>
-8.26351

> <CNNscore>
0.9728875756

> <CNNaffinity>
7.4794540405

> <CNN_VS>
7.2766680717

> <CNNaffinity_variance>
0.0242465939

$$$$
[H]c1nc(N([H])[H])c2c(-c3c([H])nc4c(c3[H])c([H])c([H])n4[H])nn(C([H])([H])C([H])([H])N3C([H])([H])C([H])([H])C([H])(N(C([H])([H])[H])C([H])([H])[H])C([H])([H])C3([H])[H])c2n1


 33 37  0  0  0  0  0  0  0  0999 V2000
  -18.3881   13.0098  -20.0256 N   0  0  0  0  0  0  0  0  0  0  0  0
  -18.2672   13.7541  -21.1002 N   0  0  0  0  0  0  0  0  0  0  0  0
  -17.3355   13.2224  -21.9469 C   0  0  0  0  0  0  0  0  0  0  0  0
  -16.8792   12.0924  -21.3247 C   0  0  0  0  0  0  0  0  0  0  0  0
  -15.9466   11.1080  -21.5951 C   0  0  0  0  0  0  0  0  0  0  0  0
  -15.2024   11.2138  -22.8021 N   0  0  0  0  0  0  0  0  0  0  0  0
  -15.7067   10.0909  -20.7438 N   0  0  0  0  0  0  0  0  0  0  0  0
  -16.3688    9.9926  -19.5875 C   0  0  0  0  0  0  0  0  0  0  0  0
  -17.2780   10.9310  -19.2925 N   0  0  0  0  0  0  0  0  0  0  0  0
  -17.5405   11.9413  -20.0997 C   0  0  0  0  0  0  0  0  0  0  0  0
  -14.4933   11.9587  -22.8889 H   0  0  0  0  0  0  0  0  0  0  0  0
  -15.3731   10.5585  -23.5686 H   0  0  0  0  0  0  0  0  0  0  0  0
  -16.9188   13.7898  -23.2287 C   0  0  0  0  0  0  0  0  0  0  0  0
  -17.7754   13.6801  -24.3350 C   0  0  0  0  0  0  0  0  0  0  0  0
  -17.4601   14.1178  -25.5395 N   0  0  0  0  0  0  0  0  0  0  0  0
  -16.2773   14.6977  -25.7483 C   0  0  0  0  0  0  0  0  0  0  0  0
  -15.7459   15.2182  -26.8917 N   0  0  0  0  0  0  0  0  0  0  0  0
  -14.5269   15.6941  -26.6136 C   0  0  0  0  0  0  0  0  0  0  0  0
  -14.2820   15.4744  -25.2830 C   0  0  0  0  0  0  0  0  0  0  0  0
  -15.3730   14.8442  -24.7070 C   0  0  0  0  0  0  0  0  0  0  0  0
  -15.7078   14.3863  -23.4584 C   0  0  0  0  0  0  0  0  0  0  0  0
  -16.2395   15.2258  -27.8151 H   0  0  0  0  0  0  0  0  0  0  0  0
  -19.2742   13.2599  -18.9274 C   0  0  0  0  0  0  0  0  0  0  0  0
  -19.0831   14.6195  -18.3459 C   0  0  0  0  0  0  0  0  0  0  0  0
  -22.0009   17.4197  -19.6813 C   0  0  0  0  0  0  0  0  0  0  0  0
  -20.6710   17.8958  -19.1478 C   0  0  0  0  0  0  0  0  0  0  0  0
  -19.6221   16.8040  -19.1922 C   0  0  0  0  0  0  0  0  0  0  0  0
  -20.0863   15.5693  -18.6755 N   0  0  0  0  0  0  0  0  0  0  0  0
  -21.3116   15.0669  -19.1531 C   0  0  0  0  0  0  0  0  0  0  0  0
  -21.8398   15.9950  -20.2221 C   0  0  0  0  0  0  0  0  0  0  0  0
  -23.8271   18.2673  -20.8788 C   0  0  0  0  0  0  0  0  0  0  0  0
  -22.3930   18.3206  -20.7453 N   0  0  0  0  0  0  0  0  0  0  0  0
  -21.7487   18.0422  -22.0005 C   0  0  0  0  0  0  0  0  0  0  0  0
 31 32  1  0  0  0
 32 33  1  0  0  0
 32 25  1  0  0  0
 25 26  1  0  0  0
 26 27  1  0  0  0
 27 28  1  0  0  0
 28 24  1  0  0  0
 24 23  1  0  0  0
 23  1  1  0  0  0
  1  2  1  0  0  0
  2  3  2  0  0  0
  3 13  1  0  0  0
 13 14  2  0  0  0
 14 15  1  0  0  0
 15 16  2  0  0  0
 16 17  1  0  0  0
 17 18  1  0  0  0
 18 19  2  0  0  0
 19 20  1  0  0  0
 20 21  2  0  0  0
  3  4  1  0  0  0
  4  5  2  0  0  0
  5  6  1  0  0  0
  5  7  1  0  0  0
  7  8  2  0  0  0
  8  9  1  0  0  0
  9 10  2  0  0  0
 28 29  1  0  0  0
 29 30  1  0  0  0
 30 25  1  0  0  0
 10  1  1  0  0  0
 21 13  1  0  0  0
 10  4  1  0  0  0
 20 16  1  0  0  0
 17 22  1  0  0  0
  6 11  1  0  0  0
  6 12  1  0  0  0
M  END
> <minimizedAffinity>
-8.30093

> <CNNscore>
0.9480293989

> <CNNaffinity>
7.7372713089

> <CNN_VS>
7.3351607323

> <CNNaffinity_variance>
0.0122507270

$$$$
[H]C(=C([H])C([H])([H])N(C([H])([H])C([H])([H])[H])C([H])([H])C([H])([H])[H])c1c(C([H])([H])[H])c2c([H])c([H])c3nc(N([H])c4c(Cl)c([H])c([H])c([H])c4Cl)n(C([H])([H])[H])c3c2c(=O)n1[H]


 35 38  0  0  0  0  0  0  0  0999 V2000
  -18.7588   10.5477  -17.4814 C   0  0  0  0  0  0  0  0  0  0  0  0
  -17.7837    9.9367  -18.1436 N   0  0  0  0  0  0  0  0  0  0  0  0
  -17.2923   10.4185  -19.3322 C   0  0  0  0  0  0  0  0  0  0  0  0
  -16.4207    9.7272  -19.7736 O   0  0  0  0  0  0  0  0  0  0  0  0
  -17.8262   11.5529  -19.8337 C   0  0  0  0  0  0  0  0  0  0  0  0
  -17.3780   12.0781  -21.0305 C   0  0  0  0  0  0  0  0  0  0  0  0
  -16.4295   11.6840  -21.8730 N   0  0  0  0  0  0  0  0  0  0  0  0
  -15.4881   10.6089  -21.8872 C   0  0  0  0  0  0  0  0  0  0  0  0
  -16.4347   12.6076  -22.8922 C   0  0  0  0  0  0  0  0  0  0  0  0
  -17.3589   13.5310  -22.6657 N   0  0  0  0  0  0  0  0  0  0  0  0
  -17.9699   13.2508  -21.5279 C   0  0  0  0  0  0  0  0  0  0  0  0
  -18.9800   13.8682  -20.8301 C   0  0  0  0  0  0  0  0  0  0  0  0
  -19.4466   13.3764  -19.6390 C   0  0  0  0  0  0  0  0  0  0  0  0
  -18.8583   12.2269  -19.1643 C   0  0  0  0  0  0  0  0  0  0  0  0
  -19.3289   11.7263  -17.9828 C   0  0  0  0  0  0  0  0  0  0  0  0
  -20.3884   12.3538  -17.1918 C   0  0  0  0  0  0  0  0  0  0  0  0
  -17.3713    9.0583  -17.7546 H   0  0  0  0  0  0  0  0  0  0  0  0
  -19.0526    8.8224  -15.8090 C   0  0  0  0  0  0  0  0  0  0  0  0
  -19.2827   10.0385  -16.2239 C   0  0  0  0  0  0  0  0  0  0  0  0
  -19.5667    8.2673  -14.5451 C   0  0  0  0  0  0  0  0  0  0  0  0
  -20.6543    8.9879  -13.9936 N   0  0  0  0  0  0  0  0  0  0  0  0
  -22.6909    8.9474  -15.3320 C   0  0  0  0  0  0  0  0  0  0  0  0
  -21.9214    8.3526  -14.1544 C   0  0  0  0  0  0  0  0  0  0  0  0
  -20.4216    9.4467  -12.6436 C   0  0  0  0  0  0  0  0  0  0  0  0
  -19.4910   10.6220  -12.6218 C   0  0  0  0  0  0  0  0  0  0  0  0
  -15.6148   12.6429  -24.0695 N   0  0  0  0  0  0  0  0  0  0  0  0
  -14.9228   11.9065  -24.2374 H   0  0  0  0  0  0  0  0  0  0  0  0
  -15.7488   13.6862  -25.0180 C   0  0  0  0  0  0  0  0  0  0  0  0
  -14.9415   14.7968  -24.9359 C   0  0  0  0  0  0  0  0  0  0  0  0
  -13.7330   14.9513  -23.6722 Cl  0  0  0  0  0  0  0  0  0  0  0  0
  -15.0385   15.8439  -25.8391 C   0  0  0  0  0  0  0  0  0  0  0  0
  -15.9563   15.7769  -26.8373 C   0  0  0  0  0  0  0  0  0  0  0  0
  -16.7755   14.6734  -26.9385 C   0  0  0  0  0  0  0  0  0  0  0  0
  -16.6801   13.6125  -26.0268 C   0  0  0  0  0  0  0  0  0  0  0  0
  -17.7444   12.2338  -26.2011 Cl  0  0  0  0  0  0  0  0  0  0  0  0
 22 23  1  0  0  0
 23 21  1  0  0  0
 21 24  1  0  0  0
 24 25  1  0  0  0
 21 20  1  0  0  0
 20 18  1  0  0  0
 18 19  2  0  0  0
 19  1  1  0  0  0
  1  2  1  0  0  0
  2  3  1  0  0  0
  3  4  2  0  0  0
  3  5  1  0  0  0
  5  6  2  0  0  0
  6  7  1  0  0  0
  7  8  1  0  0  0
  7  9  1  0  0  0
  9 26  1  0  0  0
 26 28  1  0  0  0
 28 29  2  0  0  0
 29 30  1  0  0  0
 29 31  1  0  0  0
 31 32  2  0  0  0
 32 33  1  0  0  0
 33 34  2  0  0  0
 34 35  1  0  0  0
  9 10  2  0  0  0
 10 11  1  0  0  0
 11 12  2  0  0  0
 12 13  1  0  0  0
 13 14  2  0  0  0
 14 15  1  0  0  0
 15 16  1  0  0  0
 15  1  2  0  0  0
 14  5  1  0  0  0
 11  6  1  0  0  0
 34 28  1  0  0  0
  2 17  1  0  0  0
 26 27  1  0  0  0
M  END
> <minimizedAffinity>
-9.32534

> <CNNscore>
0.9829525352

> <CNNaffinity>
8.3231821060

> <CNN_VS>
8.1812925339

> <CNNaffinity_variance>
0.0812320560

$$$$
[H]C(=C([H])C([H])([H])N(C([H])([H])C([H])([H])[H])C([H])([H])C([H])([H])[H])c1c(C([H])([H])[H])c2c([H])c([H])c3nc(N([H])c4c(Cl)c([H])c([H])c([H])c4Cl)n(C([H])([H])[H])c3c2c(=O)n1[H]


 35 38  0  0  0  0  0  0  0  0999 V2000
  -18.7970   10.4773  -17.4278 C   0  0  0  0  0  0  0  0  0  0  0  0
  -17.8354    9.8564  -18.1003 N   0  0  0  0  0  0  0  0  0  0  0  0
  -17.3375   10.3441  -19.2838 C   0  0  0  0  0  0  0  0  0  0  0  0
  -16.4803    9.6421  -19.7363 O   0  0  0  0  0  0  0  0  0  0  0  0
  -17.8507   11.4950  -19.7691 C   0  0  0  0  0  0  0  0  0  0  0  0
  -17.3952   12.0271  -20.9602 C   0  0  0  0  0  0  0  0  0  0  0  0
  -16.4563   11.6259  -21.8101 N   0  0  0  0  0  0  0  0  0  0  0  0
  -15.5357   10.5333  -21.8406 C   0  0  0  0  0  0  0  0  0  0  0  0
  -16.4462   12.5626  -22.8172 C   0  0  0  0  0  0  0  0  0  0  0  0
  -17.3519   13.5006  -22.5764 N   0  0  0  0  0  0  0  0  0  0  0  0
  -17.9657   13.2173  -21.4409 C   0  0  0  0  0  0  0  0  0  0  0  0
  -18.9622   13.8447  -20.7325 C   0  0  0  0  0  0  0  0  0  0  0  0
  -19.4354   13.3465  -19.5467 C   0  0  0  0  0  0  0  0  0  0  0  0
  -18.8682   12.1798  -19.0885 C   0  0  0  0  0  0  0  0  0  0  0  0
  -19.3456   11.6730  -17.9124 C   0  0  0  0  0  0  0  0  0  0  0  0
  -20.3912   12.3103  -17.1107 C   0  0  0  0  0  0  0  0  0  0  0  0
  -17.4390    8.9653  -17.7238 H   0  0  0  0  0  0  0  0  0  0  0  0
  -19.4980    8.6860  -15.9580 C   0  0  0  0  0  0  0  0  0  0  0  0
  -19.3278    9.9618  -16.1757 C   0  0  0  0  0  0  0  0  0  0  0  0
  -20.0351    8.1237  -14.7070 C   0  0  0  0  0  0  0  0  0  0  0  0
  -20.8794    9.0054  -13.9887 N   0  0  0  0  0  0  0  0  0  0  0  0
  -22.9039    9.5737  -15.2213 C   0  0  0  0  0  0  0  0  0  0  0  0
  -22.2715    8.7236  -14.1213 C   0  0  0  0  0  0  0  0  0  0  0  0
  -20.4740    9.2086  -12.6170 C   0  0  0  0  0  0  0  0  0  0  0  0
  -19.6155   10.4299  -12.4793 C   0  0  0  0  0  0  0  0  0  0  0  0
  -15.6284   12.5976  -23.9960 N   0  0  0  0  0  0  0  0  0  0  0  0
  -14.9545   11.8478  -24.1776 H   0  0  0  0  0  0  0  0  0  0  0  0
  -15.7398   13.6590  -24.9272 C   0  0  0  0  0  0  0  0  0  0  0  0
  -16.6917   13.6056  -25.9186 C   0  0  0  0  0  0  0  0  0  0  0  0
  -17.7864   12.2402  -26.0558 Cl  0  0  0  0  0  0  0  0  0  0  0  0
  -16.8359   14.6184  -26.8540 C   0  0  0  0  0  0  0  0  0  0  0  0
  -16.0157   15.6987  -26.7947 C   0  0  0  0  0  0  0  0  0  0  0  0
  -15.0549   15.7730  -25.8095 C   0  0  0  0  0  0  0  0  0  0  0  0
  -14.9063   14.7504  -24.8620 C   0  0  0  0  0  0  0  0  0  0  0  0
  -13.6701   14.8951  -23.6311 Cl  0  0  0  0  0  0  0  0  0  0  0  0
 22 23  1  0  0  0
 23 21  1  0  0  0
 21 24  1  0  0  0
 24 25  1  0  0  0
 21 20  1  0  0  0
 20 18  1  0  0  0
 18 19  2  0  0  0
 19  1  1  0  0  0
  1  2  1  0  0  0
  2  3  1  0  0  0
  3  4  2  0  0  0
  3  5  1  0  0  0
  5  6  2  0  0  0
  6  7  1  0  0  0
  7  8  1  0  0  0
  7  9  1  0  0  0
  9 26  1  0  0  0
 26 28  1  0  0  0
 28 29  2  0  0  0
 29 30  1  0  0  0
 29 31  1  0  0  0
 31 32  2  0  0  0
 32 33  1  0  0  0
 33 34  2  0  0  0
 34 35  1  0  0  0
  9 10  2  0  0  0
 10 11  1  0  0  0
 11 12  2  0  0  0
 12 13  1  0  0  0
 13 14  2  0  0  0
 14 15  1  0  0  0
 15 16  1  0  0  0
 15  1  2  0  0  0
 14  5  1  0  0  0
 11  6  1  0  0  0
 34 28  1  0  0  0
  2 17  1  0  0  0
 26 27  1  0  0  0
M  END
> <minimizedAffinity>
-9.23045

> <CNNscore>
0.9740245342

> <CNNaffinity>
8.2673063278

> <CNN_VS>
8.0525588989

> <CNNaffinity_variance>
0.0923088565

$$$$
[H]C(=C([H])C([H])([H])N(C([H])([H])C([H])([H])[H])C([H])([H])C([H])([H])[H])c1c(C([H])([H])[H])c2c([H])c([H])c3nc(N([H])c4c(Cl)c([H])c([H])c([H])c4Cl)n(C([H])([H])[H])c3c2c(=O)n1[H]


 35 38  0  0  0  0  0  0  0  0999 V2000
  -19.7006   10.8640  -16.6240 C   0  0  0  0  0  0  0  0  0  0  0  0
  -20.2378   12.0245  -16.9806 N   0  0  0  0  0  0  0  0  0  0  0  0
  -19.8932   12.6632  -18.1466 C   0  0  0  0  0  0  0  0  0  0  0  0
  -20.4829   13.6951  -18.2873 O   0  0  0  0  0  0  0  0  0  0  0  0
  -18.9766   12.0810  -18.9494 C   0  0  0  0  0  0  0  0  0  0  0  0
  -18.5845   12.6829  -20.1297 C   0  0  0  0  0  0  0  0  0  0  0  0
  -18.9612   13.8130  -20.7178 N   0  0  0  0  0  0  0  0  0  0  0  0
  -19.9134   14.8326  -20.4077 C   0  0  0  0  0  0  0  0  0  0  0  0
  -18.2265   13.8875  -21.8781 C   0  0  0  0  0  0  0  0  0  0  0  0
  -17.4333   12.8303  -21.9840 N   0  0  0  0  0  0  0  0  0  0  0  0
  -17.6161   12.0545  -20.9299 C   0  0  0  0  0  0  0  0  0  0  0  0
  -17.0689   10.8546  -20.5434 C   0  0  0  0  0  0  0  0  0  0  0  0
  -17.4369   10.2286  -19.3811 C   0  0  0  0  0  0  0  0  0  0  0  0
  -18.3856   10.8560  -18.6070 C   0  0  0  0  0  0  0  0  0  0  0  0
  -18.7466   10.2411  -17.4410 C   0  0  0  0  0  0  0  0  0  0  0  0
  -18.2089    8.9559  -16.9925 C   0  0  0  0  0  0  0  0  0  0  0  0
  -20.9470   12.4744  -16.3581 H   0  0  0  0  0  0  0  0  0  0  0  0
  -20.0578   10.7895  -14.2308 C   0  0  0  0  0  0  0  0  0  0  0  0
  -20.0618   10.1867  -15.3886 C   0  0  0  0  0  0  0  0  0  0  0  0
  -20.4132   10.1397  -12.9575 C   0  0  0  0  0  0  0  0  0  0  0  0
  -19.3312   10.0002  -12.0543 N   0  0  0  0  0  0  0  0  0  0  0  0
  -18.2935   10.5144   -9.9096 C   0  0  0  0  0  0  0  0  0  0  0  0
  -19.5334   10.6355  -10.7931 C   0  0  0  0  0  0  0  0  0  0  0  0
  -18.8494    8.6438  -11.9307 C   0  0  0  0  0  0  0  0  0  0  0  0
  -19.8527    7.6608  -12.4549 C   0  0  0  0  0  0  0  0  0  0  0  0
  -18.2360   14.9184  -22.8764 N   0  0  0  0  0  0  0  0  0  0  0  0
  -19.0537   15.5264  -22.9811 H   0  0  0  0  0  0  0  0  0  0  0  0
  -17.1210   15.1175  -23.7270 C   0  0  0  0  0  0  0  0  0  0  0  0
  -17.0234   14.4168  -24.9065 C   0  0  0  0  0  0  0  0  0  0  0  0
  -18.2636   13.2726  -25.3900 Cl  0  0  0  0  0  0  0  0  0  0  0  0
  -15.9496   14.5757  -25.7687 C   0  0  0  0  0  0  0  0  0  0  0  0
  -14.9613   15.4482  -25.4445 C   0  0  0  0  0  0  0  0  0  0  0  0
  -15.0388   16.1608  -24.2675 C   0  0  0  0  0  0  0  0  0  0  0  0
  -16.1232   16.0026  -23.3932 C   0  0  0  0  0  0  0  0  0  0  0  0
  -16.1728   16.9329  -21.9112 Cl  0  0  0  0  0  0  0  0  0  0  0  0
 22 23  1  0  0  0
 23 21  1  0  0  0
 21 24  1  0  0  0
 24 25  1  0  0  0
 21 20  1  0  0  0
 20 18  1  0  0  0
 18 19  2  0  0  0
 19  1  1  0  0  0
  1  2  1  0  0  0
  2  3  1  0  0  0
  3  4  2  0  0  0
  3  5  1  0  0  0
  5  6  2  0  0  0
  6  7  1  0  0  0
  7  8  1  0  0  0
  7  9  1  0  0  0
  9 26  1  0  0  0
 26 28  1  0  0  0
 28 29  2  0  0  0
 29 30  1  0  0  0
 29 31  1  0  0  0
 31 32  2  0  0  0
 32 33  1  0  0  0
 33 34  2  0  0  0
 34 35  1  0  0  0
  9 10  2  0  0  0
 10 11  1  0  0  0
 11 12  2  0  0  0
 12 13  1  0  0  0
 13 14  2  0  0  0
 14 15  1  0  0  0
 15 16  1  0  0  0
 15  1  2  0  0  0
 14  5  1  0  0  0
 11  6  1  0  0  0
 34 28  1  0  0  0
  2 17  1  0  0  0
 26 27  1  0  0  0
M  END
> <minimizedAffinity>
-8.60126

> <CNNscore>
0.6692781448

> <CNNaffinity>
7.7169051170

> <CNN_VS>
5.1647558212

> <CNNaffinity_variance>
0.1614903808

$$$$
[H]C(=C([H])C([H])([H])N(C([H])([H])C([H])([H])[H])C([H])([H])C([H])([H])[H])c1c(C([H])([H])[H])c2c([H])c([H])c3nc(N([H])c4c(Cl)c([H])c([H])c([H])c4Cl)n(C([H])([H])[H])c3c2c(=O)n1[H]


 35 38  0  0  0  0  0  0  0  0999 V2000
  -19.4278    9.4665  -16.5949 C   0  0  0  0  0  0  0  0  0  0  0  0
  -18.4408    9.2912  -17.4653 N   0  0  0  0  0  0  0  0  0  0  0  0
  -18.0600   10.2724  -18.3476 C   0  0  0  0  0  0  0  0  0  0  0  0
  -17.1566    9.9219  -19.0500 O   0  0  0  0  0  0  0  0  0  0  0  0
  -18.7185   11.4509  -18.3187 C   0  0  0  0  0  0  0  0  0  0  0  0
  -18.3849   12.4703  -19.1898 C   0  0  0  0  0  0  0  0  0  0  0  0
  -17.4533   12.5634  -20.1322 N   0  0  0  0  0  0  0  0  0  0  0  0
  -16.4231   11.6953  -20.6093 C   0  0  0  0  0  0  0  0  0  0  0  0
  -17.5959   13.8218  -20.6687 C   0  0  0  0  0  0  0  0  0  0  0  0
  -18.5839   14.4661  -20.0629 N   0  0  0  0  0  0  0  0  0  0  0  0
  -19.1042   13.6758  -19.1405 C   0  0  0  0  0  0  0  0  0  0  0  0
  -20.1247   13.8384  -18.2346 C   0  0  0  0  0  0  0  0  0  0  0  0
  -20.4799   12.8496  -17.3545 C   0  0  0  0  0  0  0  0  0  0  0  0
  -19.7674   11.6742  -17.4147 C   0  0  0  0  0  0  0  0  0  0  0  0
  -20.1263   10.6811  -16.5470 C   0  0  0  0  0  0  0  0  0  0  0  0
  -21.1917   10.8089  -15.5517 C   0  0  0  0  0  0  0  0  0  0  0  0
  -17.9319    8.3782  -17.4869 H   0  0  0  0  0  0  0  0  0  0  0  0
  -19.2548    8.2586  -14.5040 C   0  0  0  0  0  0  0  0  0  0  0  0
  -19.8348    8.4283  -15.6611 C   0  0  0  0  0  0  0  0  0  0  0  0
  -19.6339    7.2187  -13.5322 C   0  0  0  0  0  0  0  0  0  0  0  0
  -19.0758    7.3970  -12.2426 N   0  0  0  0  0  0  0  0  0  0  0  0
  -20.1669    9.2415  -11.0815 C   0  0  0  0  0  0  0  0  0  0  0  0
  -18.9359    8.7604  -11.8468 C   0  0  0  0  0  0  0  0  0  0  0  0
  -19.6903    6.5755  -11.2255 C   0  0  0  0  0  0  0  0  0  0  0  0
  -18.6586    5.8361  -10.4276 C   0  0  0  0  0  0  0  0  0  0  0  0
  -16.8484   14.4289  -21.7327 N   0  0  0  0  0  0  0  0  0  0  0  0
  -15.9950   13.9830  -22.0821 H   0  0  0  0  0  0  0  0  0  0  0  0
  -17.2757   15.6451  -22.3198 C   0  0  0  0  0  0  0  0  0  0  0  0
  -17.0227   16.8395  -21.6864 C   0  0  0  0  0  0  0  0  0  0  0  0
  -16.1698   16.8931  -20.1531 Cl  0  0  0  0  0  0  0  0  0  0  0  0
  -17.4244   18.0539  -22.2207 C   0  0  0  0  0  0  0  0  0  0  0  0
  -18.0879   18.0713  -23.4050 C   0  0  0  0  0  0  0  0  0  0  0  0
  -18.3519   16.8862  -24.0570 C   0  0  0  0  0  0  0  0  0  0  0  0
  -17.9472   15.6562  -23.5195 C   0  0  0  0  0  0  0  0  0  0  0  0
  -18.3074   14.1803  -24.3890 Cl  0  0  0  0  0  0  0  0  0  0  0  0
 22 23  1  0  0  0
 23 21  1  0  0  0
 21 24  1  0  0  0
 24 25  1  0  0  0
 21 20  1  0  0  0
 20 18  1  0  0  0
 18 19  2  0  0  0
 19  1  1  0  0  0
  1  2  1  0  0  0
  2  3  1  0  0  0
  3  4  2  0  0  0
  3  5  1  0  0  0
  5  6  2  0  0  0
  6  7  1  0  0  0
  7  8  1  0  0  0
  7  9  1  0  0  0
  9 26  1  0  0  0
 26 28  1  0  0  0
 28 29  2  0  0  0
 29 30  1  0  0  0
 29 31  1  0  0  0
 31 32  2  0  0  0
 32 33  1  0  0  0
 33 34  2  0  0  0
 34 35  1  0  0  0
  9 10  2  0  0  0
 10 11  1  0  0  0
 11 12  2  0  0  0
 12 13  1  0  0  0
 13 14  2  0  0  0
 14 15  1  0  0  0
 15 16  1  0  0  0
 15  1  2  0  0  0
 14  5  1  0  0  0
 11  6  1  0  0  0
 34 28  1  0  0  0
  2 17  1  0  0  0
 26 27  1  0  0  0
M  END
> <minimizedAffinity>
-7.36882

> <CNNscore>
0.6347489357

> <CNNaffinity>
7.3435392380

> <CNN_VS>
4.6613035202

> <CNNaffinity_variance>
0.1694482714

$$$$
[H]C(=C([H])C([H])([H])N(C([H])([H])C([H])([H])[H])C([H])([H])C([H])([H])[H])c1c(C([H])([H])[H])c2c([H])c([H])c3nc(N([H])c4c(Cl)c([H])c([H])c([H])c4Cl)n(C([H])([H])[H])c3c2c(=O)n1[H]


 35 38  0  0  0  0  0  0  0  0999 V2000
  -19.9427   10.8031  -16.2647 C   0  0  0  0  0  0  0  0  0  0  0  0
  -20.4312   11.9549  -16.7089 N   0  0  0  0  0  0  0  0  0  0  0  0
  -20.0194   12.5170  -17.8924 C   0  0  0  0  0  0  0  0  0  0  0  0
  -20.5732   13.5541  -18.1163 O   0  0  0  0  0  0  0  0  0  0  0  0
  -19.0865   11.8665  -18.6204 C   0  0  0  0  0  0  0  0  0  0  0  0
  -18.6277   12.3898  -19.8140 C   0  0  0  0  0  0  0  0  0  0  0  0
  -18.9470   13.4939  -20.4803 N   0  0  0  0  0  0  0  0  0  0  0  0
  -19.8821   14.5538  -20.2698 C   0  0  0  0  0  0  0  0  0  0  0  0
  -18.1618   13.4831  -21.6095 C   0  0  0  0  0  0  0  0  0  0  0  0
  -17.3950   12.4013  -21.6212 N   0  0  0  0  0  0  0  0  0  0  0  0
  -17.6444   11.6919  -20.5345 C   0  0  0  0  0  0  0  0  0  0  0  0
  -17.1483   10.5022  -20.0580 C   0  0  0  0  0  0  0  0  0  0  0  0
  -17.5829    9.9533  -18.8798 C   0  0  0  0  0  0  0  0  0  0  0  0
  -18.5454   10.6481  -18.1844 C   0  0  0  0  0  0  0  0  0  0  0  0
  -18.9729   10.1102  -17.0029 C   0  0  0  0  0  0  0  0  0  0  0  0
  -18.4913    8.8392  -16.4601 C   0  0  0  0  0  0  0  0  0  0  0  0
  -21.1532   12.4578  -16.1442 H   0  0  0  0  0  0  0  0  0  0  0  0
  -20.1282   10.7542  -13.8515 C   0  0  0  0  0  0  0  0  0  0  0  0
  -20.3751   10.2069  -15.0106 C   0  0  0  0  0  0  0  0  0  0  0  0
  -20.5449   10.1820  -12.5598 C   0  0  0  0  0  0  0  0  0  0  0  0
  -19.8410   10.6946  -11.4427 N   0  0  0  0  0  0  0  0  0  0  0  0
  -21.8048   12.0920  -11.0802 C   0  0  0  0  0  0  0  0  0  0  0  0
  -20.6723   11.2871  -10.4462 C   0  0  0  0  0  0  0  0  0  0  0  0
  -18.8732    9.7731  -10.8937 C   0  0  0  0  0  0  0  0  0  0  0  0
  -18.0624   10.4183   -9.8101 C   0  0  0  0  0  0  0  0  0  0  0  0
  -18.0997   14.4553  -22.6633 N   0  0  0  0  0  0  0  0  0  0  0  0
  -18.8970   15.0732  -22.8414 H   0  0  0  0  0  0  0  0  0  0  0  0
  -16.9413   14.5821  -23.4685 C   0  0  0  0  0  0  0  0  0  0  0  0
  -15.8982   15.3754  -23.0508 C   0  0  0  0  0  0  0  0  0  0  0  0
  -15.9676   16.2402  -21.5249 Cl  0  0  0  0  0  0  0  0  0  0  0  0
  -14.7466   15.5325  -23.8062 C   0  0  0  0  0  0  0  0  0  0  0  0
  -14.6391   14.8862  -24.9953 C   0  0  0  0  0  0  0  0  0  0  0  0
  -15.6722   14.0861  -25.4331 C   0  0  0  0  0  0  0  0  0  0  0  0
  -16.8383   13.9249  -24.6717 C   0  0  0  0  0  0  0  0  0  0  0  0
  -18.1203   12.8964  -25.2740 Cl  0  0  0  0  0  0  0  0  0  0  0  0
 22 23  1  0  0  0
 23 21  1  0  0  0
 21 24  1  0  0  0
 24 25  1  0  0  0
 21 20  1  0  0  0
 20 18  1  0  0  0
 18 19  2  0  0  0
 19  1  1  0  0  0
  1  2  1  0  0  0
  2  3  1  0  0  0
  3  4  2  0  0  0
  3  5  1  0  0  0
  5  6  2  0  0  0
  6  7  1  0  0  0
  7  8  1  0  0  0
  7  9  1  0  0  0
  9 26  1  0  0  0
 26 28  1  0  0  0
 28 29  2  0  0  0
 29 30  1  0  0  0
 29 31  1  0  0  0
 31 32  2  0  0  0
 32 33  1  0  0  0
 33 34  2  0  0  0
 34 35  1  0  0  0
  9 10  2  0  0  0
 10 11  1  0  0  0
 11 12  2  0  0  0
 12 13  1  0  0  0
 13 14  2  0  0  0
 14 15  1  0  0  0
 15 16  1  0  0  0
 15  1  2  0  0  0
 14  5  1  0  0  0
 11  6  1  0  0  0
 34 28  1  0  0  0
  2 17  1  0  0  0
 26 27  1  0  0  0
M  END
> <minimizedAffinity>
-8.54982

> <CNNscore>
0.6346506476

> <CNNaffinity>
7.6027078629

> <CNN_VS>
4.8250637054

> <CNNaffinity_variance>
0.0946379751

$$$$
[H]C(=C([H])C([H])([H])N(C([H])([H])C([H])([H])[H])C([H])([H])C([H])([H])[H])c1c(C([H])([H])[H])c2c([H])c([H])c3nc(N([H])c4c(Cl)c([H])c([H])c([H])c4Cl)n(C([H])([H])[H])c3c2c(=O)n1[H]


 35 38  0  0  0  0  0  0  0  0999 V2000
  -19.1788   10.4159  -16.9241 C   0  0  0  0  0  0  0  0  0  0  0  0
  -18.3814   10.2428  -17.9713 N   0  0  0  0  0  0  0  0  0  0  0  0
  -18.3226   11.1463  -19.0040 C   0  0  0  0  0  0  0  0  0  0  0  0
  -17.5486   10.8114  -19.8532 O   0  0  0  0  0  0  0  0  0  0  0  0
  -19.1064   12.2441  -18.9404 C   0  0  0  0  0  0  0  0  0  0  0  0
  -19.0960   13.1817  -19.9552 C   0  0  0  0  0  0  0  0  0  0  0  0
  -18.4017   13.2591  -21.0852 N   0  0  0  0  0  0  0  0  0  0  0  0
  -17.3913   12.4535  -21.6954 C   0  0  0  0  0  0  0  0  0  0  0  0
  -18.8138   14.4225  -21.6922 C   0  0  0  0  0  0  0  0  0  0  0  0
  -19.7277   15.0271  -20.9455 N   0  0  0  0  0  0  0  0  0  0  0  0
  -19.9378   14.3022  -19.8608 C   0  0  0  0  0  0  0  0  0  0  0  0
  -20.7587   14.4635  -18.7705 C   0  0  0  0  0  0  0  0  0  0  0  0
  -20.7920   13.5549  -17.7450 C   0  0  0  0  0  0  0  0  0  0  0  0
  -19.9630   12.4622  -17.8513 C   0  0  0  0  0  0  0  0  0  0  0  0
  -20.0019   11.5475  -16.8365 C   0  0  0  0  0  0  0  0  0  0  0  0
  -20.8432   11.6804  -15.6462 C   0  0  0  0  0  0  0  0  0  0  0  0
  -17.7753    9.3923  -18.0196 H   0  0  0  0  0  0  0  0  0  0  0  0
  -19.7619    8.2691  -15.9694 C   0  0  0  0  0  0  0  0  0  0  0  0
  -19.2449    9.4596  -15.8303 C   0  0  0  0  0  0  0  0  0  0  0  0
  -19.8510    7.2732  -14.8877 C   0  0  0  0  0  0  0  0  0  0  0  0
  -20.3093    7.7953  -13.6534 N   0  0  0  0  0  0  0  0  0  0  0  0
  -22.4456    8.8219  -13.0847 C   0  0  0  0  0  0  0  0  0  0  0  0
  -21.6840    7.5311  -13.3783 C   0  0  0  0  0  0  0  0  0  0  0  0
  -19.4433    7.4921  -12.5375 C   0  0  0  0  0  0  0  0  0  0  0  0
  -18.7920    8.7321  -12.0025 C   0  0  0  0  0  0  0  0  0  0  0  0
  -18.3895   14.9736  -22.9475 N   0  0  0  0  0  0  0  0  0  0  0  0
  -19.0483   15.5029  -23.5264 H   0  0  0  0  0  0  0  0  0  0  0  0
  -17.0600   14.8022  -23.4048 C   0  0  0  0  0  0  0  0  0  0  0  0
  -16.0227   15.4231  -22.7486 C   0  0  0  0  0  0  0  0  0  0  0  0
  -16.3105   16.4301  -21.3401 Cl  0  0  0  0  0  0  0  0  0  0  0  0
  -14.7064   15.2874  -23.1613 C   0  0  0  0  0  0  0  0  0  0  0  0
  -14.4261   14.5196  -24.2454 C   0  0  0  0  0  0  0  0  0  0  0  0
  -15.4500   13.8883  -24.9178 C   0  0  0  0  0  0  0  0  0  0  0  0
  -16.7825   14.0233  -24.5032 C   0  0  0  0  0  0  0  0  0  0  0  0
  -18.0450   13.1993  -25.3928 Cl  0  0  0  0  0  0  0  0  0  0  0  0
 22 23  1  0  0  0
 23 21  1  0  0  0
 21 24  1  0  0  0
 24 25  1  0  0  0
 21 20  1  0  0  0
 20 18  1  0  0  0
 18 19  2  0  0  0
 19  1  1  0  0  0
  1  2  1  0  0  0
  2  3  1  0  0  0
  3  4  2  0  0  0
  3  5  1  0  0  0
  5  6  2  0  0  0
  6  7  1  0  0  0
  7  8  1  0  0  0
  7  9  1  0  0  0
  9 26  1  0  0  0
 26 28  1  0  0  0
 28 29  2  0  0  0
 29 30  1  0  0  0
 29 31  1  0  0  0
 31 32  2  0  0  0
 32 33  1  0  0  0
 33 34  2  0  0  0
 34 35  1  0  0  0
  9 10  2  0  0  0
 10 11  1  0  0  0
 11 12  2  0  0  0
 12 13  1  0  0  0
 13 14  2  0  0  0
 14 15  1  0  0  0
 15 16  1  0  0  0
 15  1  2  0  0  0
 14  5  1  0  0  0
 11  6  1  0  0  0
 34 28  1  0  0  0
  2 17  1  0  0  0
 26 27  1  0  0  0
M  END
> <minimizedAffinity>
-7.65835

> <CNNscore>
0.5765959024

> <CNNaffinity>
7.6010828018

> <CNN_VS>
4.3827533722

> <CNNaffinity_variance>
0.3202912509

$$$$
[H]C(=C([H])C([H])([H])N(C([H])([H])C([H])([H])[H])C([H])([H])C([H])([H])[H])c1c(C([H])([H])[H])c2c([H])c([H])c3nc(N([H])c4c(Cl)c([H])c([H])c([H])c4Cl)n(C([H])([H])[H])c3c2c(=O)n1[H]


 35 38  0  0  0  0  0  0  0  0999 V2000
  -17.6279   13.2814  -21.4495 C   0  0  0  0  0  0  0  0  0  0  0  0
  -17.2603   12.1099  -20.9444 N   0  0  0  0  0  0  0  0  0  0  0  0
  -17.8520   11.5771  -19.8254 C   0  0  0  0  0  0  0  0  0  0  0  0
  -17.3807   10.5184  -19.5263 O   0  0  0  0  0  0  0  0  0  0  0  0
  -18.8403   12.2771  -19.2281 C   0  0  0  0  0  0  0  0  0  0  0  0
  -19.4646   11.7946  -18.0938 C   0  0  0  0  0  0  0  0  0  0  0  0
  -19.3039   10.6722  -17.4015 N   0  0  0  0  0  0  0  0  0  0  0  0
  -18.4706    9.5199  -17.5440 C   0  0  0  0  0  0  0  0  0  0  0  0
  -20.2115   10.7418  -16.3705 C   0  0  0  0  0  0  0  0  0  0  0  0
  -20.8990   11.8732  -16.4442 N   0  0  0  0  0  0  0  0  0  0  0  0
  -20.4769   12.5597  -17.4915 C   0  0  0  0  0  0  0  0  0  0  0  0
  -20.8425   13.7714  -18.0268 C   0  0  0  0  0  0  0  0  0  0  0  0
  -20.2466   14.2785  -19.1521 C   0  0  0  0  0  0  0  0  0  0  0  0
  -19.2562   13.5188  -19.7308 C   0  0  0  0  0  0  0  0  0  0  0  0
  -18.6510   14.0263  -20.8462 C   0  0  0  0  0  0  0  0  0  0  0  0
  -19.0143   15.3011  -21.4666 C   0  0  0  0  0  0  0  0  0  0  0  0
  -16.4949   11.5690  -21.4075 H   0  0  0  0  0  0  0  0  0  0  0  0
  -15.9901   13.2815  -23.2321 C   0  0  0  0  0  0  0  0  0  0  0  0
  -17.0014   13.8491  -22.6329 C   0  0  0  0  0  0  0  0  0  0  0  0
  -15.3256   13.8247  -24.4293 C   0  0  0  0  0  0  0  0  0  0  0  0
  -16.0365   14.8728  -25.0636 N   0  0  0  0  0  0  0  0  0  0  0  0
  -16.2103   17.1707  -24.2697 C   0  0  0  0  0  0  0  0  0  0  0  0
  -15.3770   16.1371  -25.0246 C   0  0  0  0  0  0  0  0  0  0  0  0
  -16.5217   14.5311  -26.3807 C   0  0  0  0  0  0  0  0  0  0  0  0
  -15.8327   15.3380  -27.4399 C   0  0  0  0  0  0  0  0  0  0  0  0
  -20.4429    9.7931  -15.3189 N   0  0  0  0  0  0  0  0  0  0  0  0
  -19.9576    8.8910  -15.3232 H   0  0  0  0  0  0  0  0  0  0  0  0
  -21.3364   10.0853  -14.2594 C   0  0  0  0  0  0  0  0  0  0  0  0
  -22.6742    9.7931  -14.3890 C   0  0  0  0  0  0  0  0  0  0  0  0
  -23.3064    9.0547  -15.8505 Cl  0  0  0  0  0  0  0  0  0  0  0  0
  -23.5863   10.0639  -13.3809 C   0  0  0  0  0  0  0  0  0  0  0  0
  -23.1519   10.6347  -12.2282 C   0  0  0  0  0  0  0  0  0  0  0  0
  -21.8156   10.9358  -12.0769 C   0  0  0  0  0  0  0  0  0  0  0  0
  -20.8904   10.6633  -13.0943 C   0  0  0  0  0  0  0  0  0  0  0  0
  -19.2043   11.0652  -12.8503 Cl  0  0  0  0  0  0  0  0  0  0  0  0
 22 23  1  0  0  0
 23 21  1  0  0  0
 21 24  1  0  0  0
 24 25  1  0  0  0
 21 20  1  0  0  0
 20 18  1  0  0  0
 18 19  2  0  0  0
 19  1  1  0  0  0
  1  2  1  0  0  0
  2  3  1  0  0  0
  3  4  2  0  0  0
  3  5  1  0  0  0
  5  6  2  0  0  0
  6  7  1  0  0  0
  7  8  1  0  0  0
  7  9  1  0  0  0
  9 26  1  0  0  0
 26 28  1  0  0  0
 28 29  2  0  0  0
 29 30  1  0  0  0
 29 31  1  0  0  0
 31 32  2  0  0  0
 32 33  1  0  0  0
 33 34  2  0  0  0
 34 35  1  0  0  0
  9 10  2  0  0  0
 10 11  1  0  0  0
 11 12  2  0  0  0
 12 13  1  0  0  0
 13 14  2  0  0  0
 14 15  1  0  0  0
 15 16  1  0  0  0
 15  1  2  0  0  0
 14  5  1  0  0  0
 11  6  1  0  0  0
 34 28  1  0  0  0
  2 17  1  0  0  0
 26 27  1  0  0  0
M  END
> <minimizedAffinity>
-8.32355

> <CNNscore>
0.4418107867

> <CNNaffinity>
7.1846475601

> <CNN_VS>
3.1742548943

> <CNNaffinity_variance>
0.1896212101

$$$$
[H]C(=C([H])C([H])([H])N(C([H])([H])C([H])([H])[H])C([H])([H])C([H])([H])[H])c1c(C([H])([H])[H])c2c([H])c([H])c3nc(N([H])c4c(Cl)c([H])c([H])c([H])c4Cl)n(C([H])([H])[H])c3c2c(=O)n1[H]


 35 38  0  0  0  0  0  0  0  0999 V2000
  -20.0165    9.8429  -16.1935 C   0  0  0  0  0  0  0  0  0  0  0  0
  -19.0385    9.4728  -17.0114 N   0  0  0  0  0  0  0  0  0  0  0  0
  -18.5324   10.3114  -17.9741 C   0  0  0  0  0  0  0  0  0  0  0  0
  -17.6605    9.7943  -18.6102 O   0  0  0  0  0  0  0  0  0  0  0  0
  -19.0547   11.5520  -18.0821 C   0  0  0  0  0  0  0  0  0  0  0  0
  -18.5914   12.4348  -19.0388 C   0  0  0  0  0  0  0  0  0  0  0  0
  -17.6369   12.3287  -19.9566 N   0  0  0  0  0  0  0  0  0  0  0  0
  -16.7016   11.3088  -20.3136 C   0  0  0  0  0  0  0  0  0  0  0  0
  -17.6265   13.5341  -20.6188 C   0  0  0  0  0  0  0  0  0  0  0  0
  -18.5475   14.3414  -20.1104 N   0  0  0  0  0  0  0  0  0  0  0  0
  -19.1714   13.7108  -19.1310 C   0  0  0  0  0  0  0  0  0  0  0  0
  -20.1848   14.0757  -18.2775 C   0  0  0  0  0  0  0  0  0  0  0  0
  -20.6662   13.2265  -17.3155 C   0  0  0  0  0  0  0  0  0  0  0  0
  -20.0894   11.9799  -17.2374 C   0  0  0  0  0  0  0  0  0  0  0  0
  -20.5747   11.1256  -16.2873 C   0  0  0  0  0  0  0  0  0  0  0  0
  -21.6384   11.4701  -15.3429 C   0  0  0  0  0  0  0  0  0  0  0  0
  -18.6352    8.5119  -16.9271 H   0  0  0  0  0  0  0  0  0  0  0  0
  -21.7344    8.4039  -15.2778 C   0  0  0  0  0  0  0  0  0  0  0  0
  -20.5560    8.9561  -15.1748 C   0  0  0  0  0  0  0  0  0  0  0  0
  -22.3183    7.5039  -14.2685 C   0  0  0  0  0  0  0  0  0  0  0  0
  -23.0891    8.1620  -13.2792 N   0  0  0  0  0  0  0  0  0  0  0  0
  -21.5130    7.4314  -11.5695 C   0  0  0  0  0  0  0  0  0  0  0  0
  -22.3445    8.5802  -12.1366 C   0  0  0  0  0  0  0  0  0  0  0  0
  -23.9441    9.2009  -13.8054 C   0  0  0  0  0  0  0  0  0  0  0  0
  -25.3887    8.9050  -13.5346 C   0  0  0  0  0  0  0  0  0  0  0  0
  -16.7946   13.9443  -21.7140 N   0  0  0  0  0  0  0  0  0  0  0  0
  -15.9462   13.4174  -21.9416 H   0  0  0  0  0  0  0  0  0  0  0  0
  -17.1307   15.0743  -22.4991 C   0  0  0  0  0  0  0  0  0  0  0  0
  -16.8957   16.3405  -22.0160 C   0  0  0  0  0  0  0  0  0  0  0  0
  -16.1774   16.5917  -20.4342 Cl  0  0  0  0  0  0  0  0  0  0  0  0
  -17.2109   17.4756  -22.7465 C   0  0  0  0  0  0  0  0  0  0  0  0
  -17.7685   17.3399  -23.9769 C   0  0  0  0  0  0  0  0  0  0  0  0
  -18.0126   16.0805  -24.4805 C   0  0  0  0  0  0  0  0  0  0  0  0
  -17.6951   14.9303  -23.7445 C   0  0  0  0  0  0  0  0  0  0  0  0
  -18.0254   13.3544  -24.4313 Cl  0  0  0  0  0  0  0  0  0  0  0  0
 22 23  1  0  0  0
 23 21  1  0  0  0
 21 24  1  0  0  0
 24 25  1  0  0  0
 21 20  1  0  0  0
 20 18  1  0  0  0
 18 19  2  0  0  0
 19  1  1  0  0  0
  1  2  1  0  0  0
  2  3  1  0  0  0
  3  4  2  0  0  0
  3  5  1  0  0  0
  5  6  2  0  0  0
  6  7  1  0  0  0
  7  8  1  0  0  0
  7  9  1  0  0  0
  9 26  1  0  0  0
 26 28  1  0  0  0
 28 29  2  0  0  0
 29 30  1  0  0  0
 29 31  1  0  0  0
 31 32  2  0  0  0
 32 33  1  0  0  0
 33 34  2  0  0  0
 34 35  1  0  0  0
  9 10  2  0  0  0
 10 11  1  0  0  0
 11 12  2  0  0  0
 12 13  1  0  0  0
 13 14  2  0  0  0
 14 15  1  0  0  0
 15 16  1  0  0  0
 15  1  2  0  0  0
 14  5  1  0  0  0
 11  6  1  0  0  0
 34 28  1  0  0  0
  2 17  1  0  0  0
 26 27  1  0  0  0
M  END
> <minimizedAffinity>
-7.08689

> <CNNscore>
0.4403351247

> <CNNaffinity>
7.0781922340

> <CNN_VS>
3.1167767048

> <CNNaffinity_variance>
0.1460795999

$$$$
[H]C(=C([H])C([H])([H])N(C([H])([H])C([H])([H])[H])C([H])([H])C([H])([H])[H])c1c(C([H])([H])[H])c2c([H])c([H])c3nc(N([H])c4c(Cl)c([H])c([H])c([H])c4Cl)n(C([H])([H])[H])c3c2c(=O)n1[H]


 35 38  0  0  0  0  0  0  0  0999 V2000
  -20.0254    9.4926  -16.1475 C   0  0  0  0  0  0  0  0  0  0  0  0
  -18.9951    9.2454  -16.9475 N   0  0  0  0  0  0  0  0  0  0  0  0
  -18.5129   10.1805  -17.8303 C   0  0  0  0  0  0  0  0  0  0  0  0
  -17.5849    9.7675  -18.4632 O   0  0  0  0  0  0  0  0  0  0  0  0
  -19.1148   11.3885  -17.8765 C   0  0  0  0  0  0  0  0  0  0  0  0
  -18.6786   12.3643  -18.7521 C   0  0  0  0  0  0  0  0  0  0  0  0
  -17.6861   12.3854  -19.6350 N   0  0  0  0  0  0  0  0  0  0  0  0
  -16.6707   11.4567  -20.0206 C   0  0  0  0  0  0  0  0  0  0  0  0
  -17.7344   13.6320  -20.2141 C   0  0  0  0  0  0  0  0  0  0  0  0
  -18.7265   14.3394  -19.6912 N   0  0  0  0  0  0  0  0  0  0  0  0
  -19.3411   13.6025  -18.7825 C   0  0  0  0  0  0  0  0  0  0  0  0
  -20.4076   13.8396  -17.9490 C   0  0  0  0  0  0  0  0  0  0  0  0
  -20.8644   12.8957  -17.0666 C   0  0  0  0  0  0  0  0  0  0  0  0
  -20.2066   11.6875  -17.0483 C   0  0  0  0  0  0  0  0  0  0  0  0
  -20.6665   10.7390  -16.1782 C   0  0  0  0  0  0  0  0  0  0  0  0
  -21.7851   10.9461  -15.2574 C   0  0  0  0  0  0  0  0  0  0  0  0
  -18.5301    8.3098  -16.9111 H   0  0  0  0  0  0  0  0  0  0  0  0
  -20.7934    7.2720  -15.5647 C   0  0  0  0  0  0  0  0  0  0  0  0
  -20.5396    8.5034  -15.2135 C   0  0  0  0  0  0  0  0  0  0  0  0
  -21.3174    6.2416  -14.6517 C   0  0  0  0  0  0  0  0  0  0  0  0
  -21.5013    6.6850  -13.3191 N   0  0  0  0  0  0  0  0  0  0  0  0
  -23.0337    6.7440  -11.4247 C   0  0  0  0  0  0  0  0  0  0  0  0
  -22.8660    6.8517  -12.9389 C   0  0  0  0  0  0  0  0  0  0  0  0
  -20.7331    5.9401  -12.3483 C   0  0  0  0  0  0  0  0  0  0  0  0
  -19.3829    6.5560  -12.1354 C   0  0  0  0  0  0  0  0  0  0  0  0
  -16.8932   14.1712  -21.2443 N   0  0  0  0  0  0  0  0  0  0  0  0
  -16.0021   14.6145  -21.0019 H   0  0  0  0  0  0  0  0  0  0  0  0
  -17.2733   14.0969  -22.6067 C   0  0  0  0  0  0  0  0  0  0  0  0
  -16.7492   13.1137  -23.4132 C   0  0  0  0  0  0  0  0  0  0  0  0
  -15.6114   11.9334  -22.7859 Cl  0  0  0  0  0  0  0  0  0  0  0  0
  -17.0889   13.0036  -24.7526 C   0  0  0  0  0  0  0  0  0  0  0  0
  -17.9652   13.8903  -25.2904 C   0  0  0  0  0  0  0  0  0  0  0  0
  -18.5026   14.8835  -24.5005 C   0  0  0  0  0  0  0  0  0  0  0  0
  -18.1613   14.9977  -23.1455 C   0  0  0  0  0  0  0  0  0  0  0  0
  -18.8735   16.2775  -22.1868 Cl  0  0  0  0  0  0  0  0  0  0  0  0
 22 23  1  0  0  0
 23 21  1  0  0  0
 21 24  1  0  0  0
 24 25  1  0  0  0
 21 20  1  0  0  0
 20 18  1  0  0  0
 18 19  2  0  0  0
 19  1  1  0  0  0
  1  2  1  0  0  0
  2  3  1  0  0  0
  3  4  2  0  0  0
  3  5  1  0  0  0
  5  6  2  0  0  0
  6  7  1  0  0  0
  7  8  1  0  0  0
  7  9  1  0  0  0
  9 26  1  0  0  0
 26 28  1  0  0  0
 28 29  2  0  0  0
 29 30  1  0  0  0
 29 31  1  0  0  0
 31 32  2  0  0  0
 32 33  1  0  0  0
 33 34  2  0  0  0
 34 35  1  0  0  0
  9 10  2  0  0  0
 10 11  1  0  0  0
 11 12  2  0  0  0
 12 13  1  0  0  0
 13 14  2  0  0  0
 14 15  1  0  0  0
 15 16  1  0  0  0
 15  1  2  0  0  0
 14  5  1  0  0  0
 11  6  1  0  0  0
 34 28  1  0  0  0
  2 17  1  0  0  0
 26 27  1  0  0  0
M  END
> <minimizedAffinity>
-7.68048

> <CNNscore>
0.4383268952

> <CNNaffinity>
7.1106162071

> <CNN_VS>
3.1167743206

> <CNNaffinity_variance>
0.2385873795

$$$$
[H]c1nc(N([H])[H])c([H])c(-n2c(N([H])c3c([H])c(C(=O)N([H])c4c([H])c([H])c([H])c(C([H])(C([H])([H])[H])C([H])([H])[H])c4[H])c([H])c([H])c3C([H])([H])[H])nc3c([H])c([H])c([H])c([H])c32)n1


 40 44  0  0  0  0  0  0  0  0999 V2000
  -18.1570   11.6999  -18.8826 C   0  0  0  0  0  0  0  0  0  0  0  0
  -17.2555   10.6824  -18.8519 C   0  0  0  0  0  0  0  0  0  0  0  0
  -16.4496   10.5305  -19.9586 C   0  0  0  0  0  0  0  0  0  0  0  0
  -16.5701   11.3819  -21.0330 C   0  0  0  0  0  0  0  0  0  0  0  0
  -15.6930   11.2129  -22.2327 C   0  0  0  0  0  0  0  0  0  0  0  0
  -17.5014   12.4287  -21.0587 C   0  0  0  0  0  0  0  0  0  0  0  0
  -18.3005   12.5791  -19.9618 C   0  0  0  0  0  0  0  0  0  0  0  0
  -19.5465   10.7933  -17.0532 N   0  0  0  0  0  0  0  0  0  0  0  0
  -19.0728   11.9227  -17.7364 C   0  0  0  0  0  0  0  0  0  0  0  0
  -19.3620   13.1185  -17.4581 O   0  0  0  0  0  0  0  0  0  0  0  0
  -19.2440    9.8285  -17.3797 H   0  0  0  0  0  0  0  0  0  0  0  0
  -22.5290   10.3798  -14.8122 C   0  0  0  0  0  0  0  0  0  0  0  0
  -22.0355   10.9348  -13.6608 C   0  0  0  0  0  0  0  0  0  0  0  0
  -20.7394   11.4388  -13.6448 C   0  0  0  0  0  0  0  0  0  0  0  0
  -19.9393   11.3960  -14.7524 C   0  0  0  0  0  0  0  0  0  0  0  0
  -20.4237   10.8299  -15.9516 C   0  0  0  0  0  0  0  0  0  0  0  0
  -21.6992   10.3408  -15.9431 C   0  0  0  0  0  0  0  0  0  0  0  0
  -23.9454    8.6653  -15.9044 C   0  0  0  0  0  0  0  0  0  0  0  0
  -23.9049    9.8181  -14.9117 C   0  0  0  0  0  0  0  0  0  0  0  0
  -24.3703    9.2755  -13.5776 C   0  0  0  0  0  0  0  0  0  0  0  0
  -17.5602   13.2488  -22.1890 N   0  0  0  0  0  0  0  0  0  0  0  0
  -17.2310   12.8213  -23.1220 H   0  0  0  0  0  0  0  0  0  0  0  0
  -17.9996   14.5817  -22.2737 C   0  0  0  0  0  0  0  0  0  0  0  0
  -18.9937   15.2470  -21.6687 N   0  0  0  0  0  0  0  0  0  0  0  0
  -19.0525   16.5317  -22.0546 C   0  0  0  0  0  0  0  0  0  0  0  0
  -19.8614   17.6057  -21.7422 C   0  0  0  0  0  0  0  0  0  0  0  0
  -19.6555   18.8325  -22.3291 C   0  0  0  0  0  0  0  0  0  0  0  0
  -18.6277   18.9978  -23.2437 C   0  0  0  0  0  0  0  0  0  0  0  0
  -17.8138   17.9446  -23.5672 C   0  0  0  0  0  0  0  0  0  0  0  0
  -18.0305   16.7062  -22.9672 C   0  0  0  0  0  0  0  0  0  0  0  0
  -17.4185   15.5206  -23.0769 N   0  0  0  0  0  0  0  0  0  0  0  0
  -16.2941   15.3490  -23.9577 C   0  0  0  0  0  0  0  0  0  0  0  0
  -16.4295   15.6620  -25.2739 C   0  0  0  0  0  0  0  0  0  0  0  0
  -15.3247   15.4856  -26.1041 C   0  0  0  0  0  0  0  0  0  0  0  0
  -15.4383   15.8009  -27.4659 N   0  0  0  0  0  0  0  0  0  0  0  0
  -14.1711   15.0144  -25.5740 N   0  0  0  0  0  0  0  0  0  0  0  0
  -14.0891   14.7214  -24.2732 C   0  0  0  0  0  0  0  0  0  0  0  0
  -15.1385   14.8878  -23.4792 N   0  0  0  0  0  0  0  0  0  0  0  0
  -14.6194   16.0414  -28.0388 H   0  0  0  0  0  0  0  0  0  0  0  0
  -16.3694   15.7985  -27.9356 H   0  0  0  0  0  0  0  0  0  0  0  0
 18 19  1  0  0  0
 19 20  1  0  0  0
 19 12  1  0  0  0
 12 13  2  0  0  0
 13 14  1  0  0  0
 14 15  2  0  0  0
 15 16  1  0  0  0
 16  8  1  0  0  0
  8  9  1  0  0  0
  9 10  2  0  0  0
  9  1  1  0  0  0
  1  2  2  0  0  0
  2  3  1  0  0  0
  3  4  2  0  0  0
  4  5  1  0  0  0
  4  6  1  0  0  0
  6 21  1  0  0  0
 21 23  1  0  0  0
 23 24  2  0  0  0
 24 25  1  0  0  0
 25 26  2  0  0  0
 26 27  1  0  0  0
 27 28  2  0  0  0
 28 29  1  0  0  0
 29 30  2  0  0  0
 30 31  1  0  0  0
 31 32  1  0  0  0
 32 33  2  0  0  0
 33 34  1  0  0  0
 34 35  1  0  0  0
 34 36  2  0  0  0
 36 37  1  0  0  0
 37 38  2  0  0  0
  6  7  2  0  0  0
 16 17  2  0  0  0
 17 12  1  0  0  0
  7  1  1  0  0  0
 31 23  1  0  0  0
 38 32  1  0  0  0
 30 25  1  0  0  0
  8 11  1  0  0  0
 21 22  1  0  0  0
 35 39  1  0  0  0
 35 40  1  0  0  0
M  END
> <minimizedAffinity>
-9.76367

> <CNNscore>
0.2225980610

> <CNNaffinity>
6.7193832397

> <CNN_VS>
1.4957216978

> <CNNaffinity_variance>
0.3469328284

$$$$
[H]c1nc(N([H])[H])c([H])c(-n2c(N([H])c3c([H])c(C(=O)N([H])c4c([H])c([H])c([H])c(C([H])(C([H])([H])[H])C([H])([H])[H])c4[H])c([H])c([H])c3C([H])([H])[H])nc3c([H])c([H])c([H])c([H])c32)n1


 40 44  0  0  0  0  0  0  0  0999 V2000
  -17.9256   12.2763  -18.5761 C   0  0  0  0  0  0  0  0  0  0  0  0
  -16.9884   11.3941  -18.1373 C   0  0  0  0  0  0  0  0  0  0  0  0
  -16.2402   10.7508  -19.0984 C   0  0  0  0  0  0  0  0  0  0  0  0
  -16.4501   11.0060  -20.4343 C   0  0  0  0  0  0  0  0  0  0  0  0
  -15.6354   10.3048  -21.4743 C   0  0  0  0  0  0  0  0  0  0  0  0
  -17.4178   11.9163  -20.8801 C   0  0  0  0  0  0  0  0  0  0  0  0
  -18.1597   12.5538  -19.9275 C   0  0  0  0  0  0  0  0  0  0  0  0
  -19.0377   14.3579  -17.8483 N   0  0  0  0  0  0  0  0  0  0  0  0
  -18.7837   13.0002  -17.6056 C   0  0  0  0  0  0  0  0  0  0  0  0
  -19.2245   12.3390  -16.6260 O   0  0  0  0  0  0  0  0  0  0  0  0
  -18.6066   14.8184  -18.7032 H   0  0  0  0  0  0  0  0  0  0  0  0
  -20.2319   17.1579  -15.6524 C   0  0  0  0  0  0  0  0  0  0  0  0
  -21.5260   16.7581  -15.4461 C   0  0  0  0  0  0  0  0  0  0  0  0
  -21.9780   15.5769  -16.0245 C   0  0  0  0  0  0  0  0  0  0  0  0
  -21.1621   14.7987  -16.7975 C   0  0  0  0  0  0  0  0  0  0  0  0
  -19.8242   15.1878  -17.0254 C   0  0  0  0  0  0  0  0  0  0  0  0
  -19.4032   16.3518  -16.4477 C   0  0  0  0  0  0  0  0  0  0  0  0
  -20.4158   19.6280  -15.5935 C   0  0  0  0  0  0  0  0  0  0  0  0
  -19.6712   18.4086  -15.0694 C   0  0  0  0  0  0  0  0  0  0  0  0
  -19.8067   18.4162  -13.5619 C   0  0  0  0  0  0  0  0  0  0  0  0
  -17.5681   12.1183  -22.2550 N   0  0  0  0  0  0  0  0  0  0  0  0
  -18.3193   11.5308  -22.7571 H   0  0  0  0  0  0  0  0  0  0  0  0
  -16.8575   13.0018  -23.0864 C   0  0  0  0  0  0  0  0  0  0  0  0
  -16.0335   12.8021  -24.1248 N   0  0  0  0  0  0  0  0  0  0  0  0
  -15.5697   13.9550  -24.6330 C   0  0  0  0  0  0  0  0  0  0  0  0
  -14.7218   14.2905  -25.6693 C   0  0  0  0  0  0  0  0  0  0  0  0
  -14.4376   15.6079  -25.9441 C   0  0  0  0  0  0  0  0  0  0  0  0
  -15.0050   16.6125  -25.1766 C   0  0  0  0  0  0  0  0  0  0  0  0
  -15.8489   16.3006  -24.1437 C   0  0  0  0  0  0  0  0  0  0  0  0
  -16.1304   14.9632  -23.8735 C   0  0  0  0  0  0  0  0  0  0  0  0
  -16.8964   14.3603  -22.9558 N   0  0  0  0  0  0  0  0  0  0  0  0
  -17.6347   15.1295  -21.9899 C   0  0  0  0  0  0  0  0  0  0  0  0
  -16.9601   15.7770  -21.0028 C   0  0  0  0  0  0  0  0  0  0  0  0
  -17.7003   16.5138  -20.0809 C   0  0  0  0  0  0  0  0  0  0  0  0
  -17.0284   17.1909  -19.0528 N   0  0  0  0  0  0  0  0  0  0  0  0
  -19.0484   16.5564  -20.2020 N   0  0  0  0  0  0  0  0  0  0  0  0
  -19.6643   15.9022  -21.1907 C   0  0  0  0  0  0  0  0  0  0  0  0
  -18.9635   15.1995  -22.0706 N   0  0  0  0  0  0  0  0  0  0  0  0
  -17.4362   18.0094  -18.5831 H   0  0  0  0  0  0  0  0  0  0  0  0
  -16.0862   16.8753  -18.7363 H   0  0  0  0  0  0  0  0  0  0  0  0
 18 19  1  0  0  0
 19 20  1  0  0  0
 19 12  1  0  0  0
 12 13  2  0  0  0
 13 14  1  0  0  0
 14 15  2  0  0  0
 15 16  1  0  0  0
 16  8  1  0  0  0
  8  9  1  0  0  0
  9 10  2  0  0  0
  9  1  1  0  0  0
  1  2  2  0  0  0
  2  3  1  0  0  0
  3  4  2  0  0  0
  4  5  1  0  0  0
  4  6  1  0  0  0
  6 21  1  0  0  0
 21 23  1  0  0  0
 23 24  2  0  0  0
 24 25  1  0  0  0
 25 26  2  0  0  0
 26 27  1  0  0  0
 27 28  2  0  0  0
 28 29  1  0  0  0
 29 30  2  0  0  0
 30 31  1  0  0  0
 31 32  1  0  0  0
 32 33  2  0  0  0
 33 34  1  0  0  0
 34 35  1  0  0  0
 34 36  2  0  0  0
 36 37  1  0  0  0
 37 38  2  0  0  0
  6  7  2  0  0  0
 16 17  2  0  0  0
 17 12  1  0  0  0
  7  1  1  0  0  0
 31 23  1  0  0  0
 38 32  1  0  0  0
 30 25  1  0  0  0
  8 11  1  0  0  0
 21 22  1  0  0  0
 35 39  1  0  0  0
 35 40  1  0  0  0
M  END
> <minimizedAffinity>
-9.61405

> <CNNscore>
0.2102385610

> <CNNaffinity>
7.1850166321

> <CNN_VS>
1.5105675459

> <CNNaffinity_variance>
0.1997986138

$$$$
[H]c1nc(N([H])[H])c([H])c(-n2c(N([H])c3c([H])c(C(=O)N([H])c4c([H])c([H])c([H])c(C([H])(C([H])([H])[H])C([H])([H])[H])c4[H])c([H])c([H])c3C([H])([H])[H])nc3c([H])c([H])c([H])c([H])c32)n1


 40 44  0  0  0  0  0  0  0  0999 V2000
  -17.9017   11.4244  -18.9961 C   0  0  0  0  0  0  0  0  0  0  0  0
  -16.9115   10.4933  -19.0370 C   0  0  0  0  0  0  0  0  0  0  0  0
  -16.1442   10.4498  -20.1800 C   0  0  0  0  0  0  0  0  0  0  0  0
  -16.3878   11.3190  -21.2188 C   0  0  0  0  0  0  0  0  0  0  0  0
  -15.5521   11.2679  -22.4582 C   0  0  0  0  0  0  0  0  0  0  0  0
  -17.4099   12.2764  -21.1706 C   0  0  0  0  0  0  0  0  0  0  0  0
  -18.1708   12.3194  -20.0376 C   0  0  0  0  0  0  0  0  0  0  0  0
  -19.2220   10.3328  -17.2172 N   0  0  0  0  0  0  0  0  0  0  0  0
  -18.7830   11.5272  -17.8066 C   0  0  0  0  0  0  0  0  0  0  0  0
  -19.0767   12.6878  -17.4096 O   0  0  0  0  0  0  0  0  0  0  0  0
  -18.9192    9.4068  -17.6411 H   0  0  0  0  0  0  0  0  0  0  0  0
  -20.5473    9.8221  -13.7428 C   0  0  0  0  0  0  0  0  0  0  0  0
  -21.8518   10.1957  -13.9325 C   0  0  0  0  0  0  0  0  0  0  0  0
  -22.2713   10.6002  -15.1953 C   0  0  0  0  0  0  0  0  0  0  0  0
  -21.4134   10.6352  -16.2590 C   0  0  0  0  0  0  0  0  0  0  0  0
  -20.0642   10.2549  -16.0906 C   0  0  0  0  0  0  0  0  0  0  0  0
  -19.6753    9.8621  -14.8414 C   0  0  0  0  0  0  0  0  0  0  0  0
  -18.9468    8.3127  -12.6032 C   0  0  0  0  0  0  0  0  0  0  0  0
  -20.0193    9.3773  -12.4230 C   0  0  0  0  0  0  0  0  0  0  0  0
  -19.3842   10.5288  -11.6735 C   0  0  0  0  0  0  0  0  0  0  0  0
  -17.5917   13.1219  -22.2687 N   0  0  0  0  0  0  0  0  0  0  0  0
  -17.3845   12.7106  -23.2431 H   0  0  0  0  0  0  0  0  0  0  0  0
  -18.0166   14.4621  -22.2726 C   0  0  0  0  0  0  0  0  0  0  0  0
  -18.9918   15.1042  -21.6140 N   0  0  0  0  0  0  0  0  0  0  0  0
  -19.0421   16.4086  -21.9283 C   0  0  0  0  0  0  0  0  0  0  0  0
  -19.8324   17.4727  -21.5430 C   0  0  0  0  0  0  0  0  0  0  0  0
  -19.6225   18.7274  -22.0661 C   0  0  0  0  0  0  0  0  0  0  0  0
  -18.6093   18.9312  -22.9892 C   0  0  0  0  0  0  0  0  0  0  0  0
  -17.8140   17.8884  -23.3846 C   0  0  0  0  0  0  0  0  0  0  0  0
  -18.0346   16.6215  -22.8488 C   0  0  0  0  0  0  0  0  0  0  0  0
  -17.4389   15.4370  -23.0342 N   0  0  0  0  0  0  0  0  0  0  0  0
  -16.3326   15.3015  -23.9437 C   0  0  0  0  0  0  0  0  0  0  0  0
  -16.5130   15.6054  -25.2566 C   0  0  0  0  0  0  0  0  0  0  0  0
  -15.4248   15.4645  -26.1150 C   0  0  0  0  0  0  0  0  0  0  0  0
  -15.5847   15.7713  -27.4742 N   0  0  0  0  0  0  0  0  0  0  0  0
  -14.2421   15.0351  -25.6143 N   0  0  0  0  0  0  0  0  0  0  0  0
  -14.1162   14.7493  -24.3153 C   0  0  0  0  0  0  0  0  0  0  0  0
  -15.1496   14.8820  -23.4945 N   0  0  0  0  0  0  0  0  0  0  0  0
  -14.7897   16.0381  -28.0689 H   0  0  0  0  0  0  0  0  0  0  0  0
  -16.5271   15.7353  -27.9194 H   0  0  0  0  0  0  0  0  0  0  0  0
 18 19  1  0  0  0
 19 20  1  0  0  0
 19 12  1  0  0  0
 12 13  2  0  0  0
 13 14  1  0  0  0
 14 15  2  0  0  0
 15 16  1  0  0  0
 16  8  1  0  0  0
  8  9  1  0  0  0
  9 10  2  0  0  0
  9  1  1  0  0  0
  1  2  2  0  0  0
  2  3  1  0  0  0
  3  4  2  0  0  0
  4  5  1  0  0  0
  4  6  1  0  0  0
  6 21  1  0  0  0
 21 23  1  0  0  0
 23 24  2  0  0  0
 24 25  1  0  0  0
 25 26  2  0  0  0
 26 27  1  0  0  0
 27 28  2  0  0  0
 28 29  1  0  0  0
 29 30  2  0  0  0
 30 31  1  0  0  0
 31 32  1  0  0  0
 32 33  2  0  0  0
 33 34  1  0  0  0
 34 35  1  0  0  0
 34 36  2  0  0  0
 36 37  1  0  0  0
 37 38  2  0  0  0
  6  7  2  0  0  0
 16 17  2  0  0  0
 17 12  1  0  0  0
  7  1  1  0  0  0
 31 23  1  0  0  0
 38 32  1  0  0  0
 30 25  1  0  0  0
  8 11  1  0  0  0
 21 22  1  0  0  0
 35 39  1  0  0  0
 35 40  1  0  0  0
M  END
> <minimizedAffinity>
-9.88068

> <CNNscore>
0.2009117901

> <CNNaffinity>
6.7113866806

> <CNN_VS>
1.3483966589

> <CNNaffinity_variance>
0.3722686768

$$$$
[H]c1nc(N([H])[H])c([H])c(-n2c(N([H])c3c([H])c(C(=O)N([H])c4c([H])c([H])c([H])c(C([H])(C([H])([H])[H])C([H])([H])[H])c4[H])c([H])c([H])c3C([H])([H])[H])nc3c([H])c([H])c([H])c([H])c32)n1


 40 44  0  0  0  0  0  0  0  0999 V2000
  -17.8491   11.3527  -19.3047 C   0  0  0  0  0  0  0  0  0  0  0  0
  -16.8055   10.4814  -19.3323 C   0  0  0  0  0  0  0  0  0  0  0  0
  -15.9910   10.5200  -20.4424 C   0  0  0  0  0  0  0  0  0  0  0  0
  -16.2423   11.4082  -21.4630 C   0  0  0  0  0  0  0  0  0  0  0  0
  -15.3552   11.4464  -22.6667 C   0  0  0  0  0  0  0  0  0  0  0  0
  -17.3197   12.3037  -21.4287 C   0  0  0  0  0  0  0  0  0  0  0  0
  -18.1274   12.2652  -20.3285 C   0  0  0  0  0  0  0  0  0  0  0  0
  -19.5296   12.5317  -17.9315 N   0  0  0  0  0  0  0  0  0  0  0  0
  -18.7828   11.3652  -18.1512 C   0  0  0  0  0  0  0  0  0  0  0  0
  -18.8370   10.3204  -17.4466 O   0  0  0  0  0  0  0  0  0  0  0  0
  -19.3980   13.3591  -18.5849 H   0  0  0  0  0  0  0  0  0  0  0  0
  -21.9645   14.0196  -15.4931 C   0  0  0  0  0  0  0  0  0  0  0  0
  -22.3117   12.8944  -14.7927 C   0  0  0  0  0  0  0  0  0  0  0  0
  -21.7360   11.6740  -15.1291 C   0  0  0  0  0  0  0  0  0  0  0  0
  -20.8277   11.5650  -16.1450 C   0  0  0  0  0  0  0  0  0  0  0  0
  -20.4524   12.7091  -16.8821 C   0  0  0  0  0  0  0  0  0  0  0  0
  -21.0315   13.8964  -16.5340 C   0  0  0  0  0  0  0  0  0  0  0  0
  -21.4491   16.4285  -15.2280 C   0  0  0  0  0  0  0  0  0  0  0  0
  -22.5352   15.3630  -15.1961 C   0  0  0  0  0  0  0  0  0  0  0  0
  -23.5746   15.7536  -16.2247 C   0  0  0  0  0  0  0  0  0  0  0  0
  -17.5056   13.1738  -22.5067 N   0  0  0  0  0  0  0  0  0  0  0  0
  -17.2985   12.7857  -23.4907 H   0  0  0  0  0  0  0  0  0  0  0  0
  -17.9346   14.5124  -22.4791 C   0  0  0  0  0  0  0  0  0  0  0  0
  -18.8975   15.1401  -21.7893 N   0  0  0  0  0  0  0  0  0  0  0  0
  -18.9584   16.4494  -22.0805 C   0  0  0  0  0  0  0  0  0  0  0  0
  -19.7436   17.5042  -21.6607 C   0  0  0  0  0  0  0  0  0  0  0  0
  -19.5486   18.7682  -22.1669 C   0  0  0  0  0  0  0  0  0  0  0  0
  -18.5559   18.9909  -23.1077 C   0  0  0  0  0  0  0  0  0  0  0  0
  -17.7659   17.9575  -23.5373 C   0  0  0  0  0  0  0  0  0  0  0  0
  -17.9713   16.6811  -23.0184 C   0  0  0  0  0  0  0  0  0  0  0  0
  -17.3761   15.5019  -23.2363 N   0  0  0  0  0  0  0  0  0  0  0  0
  -16.2888   15.3854  -24.1711 C   0  0  0  0  0  0  0  0  0  0  0  0
  -16.5136   15.6512  -25.4854 C   0  0  0  0  0  0  0  0  0  0  0  0
  -15.4430   15.5300  -26.3685 C   0  0  0  0  0  0  0  0  0  0  0  0
  -15.6485   15.7984  -27.7297 N   0  0  0  0  0  0  0  0  0  0  0  0
  -14.2328   15.1561  -25.8892 N   0  0  0  0  0  0  0  0  0  0  0  0
  -14.0635   14.9060  -24.5878 C   0  0  0  0  0  0  0  0  0  0  0  0
  -15.0801   15.0203  -23.7435 N   0  0  0  0  0  0  0  0  0  0  0  0
  -14.8793   16.0798  -28.3509 H   0  0  0  0  0  0  0  0  0  0  0  0
  -16.5998   15.7173  -28.1491 H   0  0  0  0  0  0  0  0  0  0  0  0
 18 19  1  0  0  0
 19 20  1  0  0  0
 19 12  1  0  0  0
 12 13  2  0  0  0
 13 14  1  0  0  0
 14 15  2  0  0  0
 15 16  1  0  0  0
 16  8  1  0  0  0
  8  9  1  0  0  0
  9 10  2  0  0  0
  9  1  1  0  0  0
  1  2  2  0  0  0
  2  3  1  0  0  0
  3  4  2  0  0  0
  4  5  1  0  0  0
  4  6  1  0  0  0
  6 21  1  0  0  0
 21 23  1  0  0  0
 23 24  2  0  0  0
 24 25  1  0  0  0
 25 26  2  0  0  0
 26 27  1  0  0  0
 27 28  2  0  0  0
 28 29  1  0  0  0
 29 30  2  0  0  0
 30 31  1  0  0  0
 31 32  1  0  0  0
 32 33  2  0  0  0
 33 34  1  0  0  0
 34 35  1  0  0  0
 34 36  2  0  0  0
 36 37  1  0  0  0
 37 38  2  0  0  0
  6  7  2  0  0  0
 16 17  2  0  0  0
 17 12  1  0  0  0
  7  1  1  0  0  0
 31 23  1  0  0  0
 38 32  1  0  0  0
 30 25  1  0  0  0
  8 11  1  0  0  0
 21 22  1  0  0  0
 35 39  1  0  0  0
 35 40  1  0  0  0
M  END
> <minimizedAffinity>
-9.64554

> <CNNscore>
0.1637718529

> <CNNaffinity>
6.9356193542

> <CNN_VS>
1.1358592510

> <CNNaffinity_variance>
0.2091114521

$$$$
[H]c1nc(N([H])[H])c([H])c(-n2c(N([H])c3c([H])c(C(=O)N([H])c4c([H])c([H])c([H])c(C([H])(C([H])([H])[H])C([H])([H])[H])c4[H])c([H])c([H])c3C([H])([H])[H])nc3c([H])c([H])c([H])c([H])c32)n1


 40 44  0  0  0  0  0  0  0  0999 V2000
  -19.0310   11.2107  -17.8213 C   0  0  0  0  0  0  0  0  0  0  0  0
  -18.4313    9.9947  -17.9253 C   0  0  0  0  0  0  0  0  0  0  0  0
  -17.4634    9.8585  -18.8959 C   0  0  0  0  0  0  0  0  0  0  0  0
  -17.1361   10.9186  -19.7101 C   0  0  0  0  0  0  0  0  0  0  0  0
  -16.0846   10.7659  -20.7628 C   0  0  0  0  0  0  0  0  0  0  0  0
  -17.7579   12.1694  -19.5979 C   0  0  0  0  0  0  0  0  0  0  0  0
  -18.7176   12.3044  -18.6361 C   0  0  0  0  0  0  0  0  0  0  0  0
  -20.4822   10.3450  -16.0201 N   0  0  0  0  0  0  0  0  0  0  0  0
  -20.0943   11.4363  -16.8109 C   0  0  0  0  0  0  0  0  0  0  0  0
  -20.5764   12.5994  -16.7364 O   0  0  0  0  0  0  0  0  0  0  0  0
  -20.0134    9.4040  -16.1741 H   0  0  0  0  0  0  0  0  0  0  0  0
  -22.2908   10.7459  -12.7556 C   0  0  0  0  0  0  0  0  0  0  0  0
  -23.5714   10.4790  -13.1631 C   0  0  0  0  0  0  0  0  0  0  0  0
  -23.8144   10.1667  -14.4964 C   0  0  0  0  0  0  0  0  0  0  0  0
  -22.8052   10.1179  -15.4172 C   0  0  0  0  0  0  0  0  0  0  0  0
  -21.4766   10.3883  -15.0233 C   0  0  0  0  0  0  0  0  0  0  0  0
  -21.2626   10.6933  -13.7091 C   0  0  0  0  0  0  0  0  0  0  0  0
  -20.4501   10.9523  -11.1101 C   0  0  0  0  0  0  0  0  0  0  0  0
  -21.9471   11.0885  -11.3475 C   0  0  0  0  0  0  0  0  0  0  0  0
  -22.3219   12.5197  -11.0274 C   0  0  0  0  0  0  0  0  0  0  0  0
  -17.3675   13.1945  -20.4642 N   0  0  0  0  0  0  0  0  0  0  0  0
  -16.3690   13.1421  -20.8665 H   0  0  0  0  0  0  0  0  0  0  0  0
  -18.1168   14.3057  -20.8891 C   0  0  0  0  0  0  0  0  0  0  0  0
  -19.0382   15.0633  -20.2775 N   0  0  0  0  0  0  0  0  0  0  0  0
  -19.5026   16.0390  -21.0744 C   0  0  0  0  0  0  0  0  0  0  0  0
  -20.4275   17.0538  -20.9326 C   0  0  0  0  0  0  0  0  0  0  0  0
  -20.6858   17.9171  -21.9718 C   0  0  0  0  0  0  0  0  0  0  0  0
  -20.0141   17.7716  -23.1751 C   0  0  0  0  0  0  0  0  0  0  0  0
  -19.0925   16.7710  -23.3360 C   0  0  0  0  0  0  0  0  0  0  0  0
  -18.8380   15.9019  -22.2774 C   0  0  0  0  0  0  0  0  0  0  0  0
  -18.0154   14.8554  -22.1348 N   0  0  0  0  0  0  0  0  0  0  0  0
  -17.1644   14.4329  -23.2150 C   0  0  0  0  0  0  0  0  0  0  0  0
  -15.9121   14.9530  -23.3144 C   0  0  0  0  0  0  0  0  0  0  0  0
  -15.1099   14.5266  -24.3706 C   0  0  0  0  0  0  0  0  0  0  0  0
  -13.8139   15.0480  -24.4957 N   0  0  0  0  0  0  0  0  0  0  0  0
  -15.6028   13.6204  -25.2480 N   0  0  0  0  0  0  0  0  0  0  0  0
  -16.8410   13.1392  -25.1064 C   0  0  0  0  0  0  0  0  0  0  0  0
  -17.6082   13.5425  -24.1023 N   0  0  0  0  0  0  0  0  0  0  0  0
  -13.0698   14.5425  -24.9933 H   0  0  0  0  0  0  0  0  0  0  0  0
  -13.5718   15.9738  -24.0812 H   0  0  0  0  0  0  0  0  0  0  0  0
 18 19  1  0  0  0
 19 20  1  0  0  0
 19 12  1  0  0  0
 12 13  2  0  0  0
 13 14  1  0  0  0
 14 15  2  0  0  0
 15 16  1  0  0  0
 16  8  1  0  0  0
  8  9  1  0  0  0
  9 10  2  0  0  0
  9  1  1  0  0  0
  1  2  2  0  0  0
  2  3  1  0  0  0
  3  4  2  0  0  0
  4  5  1  0  0  0
  4  6  1  0  0  0
  6 21  1  0  0  0
 21 23  1  0  0  0
 23 24  2  0  0  0
 24 25  1  0  0  0
 25 26  2  0  0  0
 26 27  1  0  0  0
 27 28  2  0  0  0
 28 29  1  0  0  0
 29 30  2  0  0  0
 30 31  1  0  0  0
 31 32  1  0  0  0
 32 33  2  0  0  0
 33 34  1  0  0  0
 34 35  1  0  0  0
 34 36  2  0  0  0
 36 37  1  0  0  0
 37 38  2  0  0  0
  6  7  2  0  0  0
 16 17  2  0  0  0
 17 12  1  0  0  0
  7  1  1  0  0  0
 31 23  1  0  0  0
 38 32  1  0  0  0
 30 25  1  0  0  0
  8 11  1  0  0  0
 21 22  1  0  0  0
 35 39  1  0  0  0
 35 40  1  0  0  0
M  END
> <minimizedAffinity>
-9.23713

> <CNNscore>
0.1225038767

> <CNNaffinity>
6.4797592163

> <CNN_VS>
0.7937956452

> <CNNaffinity_variance>
0.2387241572

$$$$
[H]c1nc(N([H])[H])c([H])c(-n2c(N([H])c3c([H])c(C(=O)N([H])c4c([H])c([H])c([H])c(C([H])(C([H])([H])[H])C([H])([H])[H])c4[H])c([H])c([H])c3C([H])([H])[H])nc3c([H])c([H])c([H])c([H])c32)n1


 40 44  0  0  0  0  0  0  0  0999 V2000
  -19.0746   11.3125  -17.8094 C   0  0  0  0  0  0  0  0  0  0  0  0
  -18.4511   10.1041  -17.7917 C   0  0  0  0  0  0  0  0  0  0  0  0
  -17.4803    9.8901  -18.7451 C   0  0  0  0  0  0  0  0  0  0  0  0
  -17.1735   10.8691  -19.6622 C   0  0  0  0  0  0  0  0  0  0  0  0
  -16.1187   10.6321  -20.6959 C   0  0  0  0  0  0  0  0  0  0  0  0
  -17.8198   12.1125  -19.6754 C   0  0  0  0  0  0  0  0  0  0  0  0
  -18.7823   12.3246  -18.7305 C   0  0  0  0  0  0  0  0  0  0  0  0
  -20.2784   10.7580  -15.7255 N   0  0  0  0  0  0  0  0  0  0  0  0
  -20.1426   11.6176  -16.8253 C   0  0  0  0  0  0  0  0  0  0  0  0
  -20.8562   12.6329  -17.0504 O   0  0  0  0  0  0  0  0  0  0  0  0
  -19.6259    9.9240  -15.6391 H   0  0  0  0  0  0  0  0  0  0  0  0
  -23.4472   10.5996  -13.7199 C   0  0  0  0  0  0  0  0  0  0  0  0
  -23.0306   11.2245  -12.5740 C   0  0  0  0  0  0  0  0  0  0  0  0
  -21.7232   11.6905  -12.4851 C   0  0  0  0  0  0  0  0  0  0  0  0
  -20.8371   11.5420  -13.5153 C   0  0  0  0  0  0  0  0  0  0  0  0
  -21.2412   10.9021  -14.7073 C   0  0  0  0  0  0  0  0  0  0  0  0
  -22.5294   10.4522  -14.7711 C   0  0  0  0  0  0  0  0  0  0  0  0
  -25.3048    9.3779  -12.6264 C   0  0  0  0  0  0  0  0  0  0  0  0
  -24.8291   10.0721  -13.8944 C   0  0  0  0  0  0  0  0  0  0  0  0
  -25.8070   11.1902  -14.1853 C   0  0  0  0  0  0  0  0  0  0  0  0
  -17.4492   13.0528  -20.6409 N   0  0  0  0  0  0  0  0  0  0  0  0
  -16.5194   12.8828  -21.1586 H   0  0  0  0  0  0  0  0  0  0  0  0
  -18.1398   14.2125  -21.0346 C   0  0  0  0  0  0  0  0  0  0  0  0
  -19.0335   14.9904  -20.4075 N   0  0  0  0  0  0  0  0  0  0  0  0
  -19.4405   16.0146  -21.1742 C   0  0  0  0  0  0  0  0  0  0  0  0
  -20.3191   17.0661  -21.0074 C   0  0  0  0  0  0  0  0  0  0  0  0
  -20.5221   17.9771  -22.0178 C   0  0  0  0  0  0  0  0  0  0  0  0
  -19.8409   17.8430  -23.2170 C   0  0  0  0  0  0  0  0  0  0  0  0
  -18.9647   16.8066  -23.4025 C   0  0  0  0  0  0  0  0  0  0  0  0
  -18.7660   15.8893  -22.3730 C   0  0  0  0  0  0  0  0  0  0  0  0
  -17.9952   14.8008  -22.2582 N   0  0  0  0  0  0  0  0  0  0  0  0
  -17.1496   14.3775  -23.3423 C   0  0  0  0  0  0  0  0  0  0  0  0
  -17.6552   13.5451  -24.2910 C   0  0  0  0  0  0  0  0  0  0  0  0
  -16.8140   13.1507  -25.3291 C   0  0  0  0  0  0  0  0  0  0  0  0
  -17.3112   12.2923  -26.3205 N   0  0  0  0  0  0  0  0  0  0  0  0
  -15.5390   13.6065  -25.3530 N   0  0  0  0  0  0  0  0  0  0  0  0
  -15.0898   14.4234  -24.3962 C   0  0  0  0  0  0  0  0  0  0  0  0
  -15.8873   14.8015  -23.4060 N   0  0  0  0  0  0  0  0  0  0  0  0
  -16.9011   12.2536  -27.2623 H   0  0  0  0  0  0  0  0  0  0  0  0
  -18.1198   11.6643  -26.1223 H   0  0  0  0  0  0  0  0  0  0  0  0
 18 19  1  0  0  0
 19 20  1  0  0  0
 19 12  1  0  0  0
 12 13  2  0  0  0
 13 14  1  0  0  0
 14 15  2  0  0  0
 15 16  1  0  0  0
 16  8  1  0  0  0
  8  9  1  0  0  0
  9 10  2  0  0  0
  9  1  1  0  0  0
  1  2  2  0  0  0
  2  3  1  0  0  0
  3  4  2  0  0  0
  4  5  1  0  0  0
  4  6  1  0  0  0
  6 21  1  0  0  0
 21 23  1  0  0  0
 23 24  2  0  0  0
 24 25  1  0  0  0
 25 26  2  0  0  0
 26 27  1  0  0  0
 27 28  2  0  0  0
 28 29  1  0  0  0
 29 30  2  0  0  0
 30 31  1  0  0  0
 31 32  1  0  0  0
 32 33  2  0  0  0
 33 34  1  0  0  0
 34 35  1  0  0  0
 34 36  2  0  0  0
 36 37  1  0  0  0
 37 38  2  0  0  0
  6  7  2  0  0  0
 16 17  2  0  0  0
 17 12  1  0  0  0
  7  1  1  0  0  0
 31 23  1  0  0  0
 38 32  1  0  0  0
 30 25  1  0  0  0
  8 11  1  0  0  0
 21 22  1  0  0  0
 35 39  1  0  0  0
 35 40  1  0  0  0
M  END
> <minimizedAffinity>
-9.25978

> <CNNscore>
0.1196801290

> <CNNaffinity>
6.4683465958

> <CNN_VS>
0.7741325498

> <CNNaffinity_variance>
0.2322930396

$$$$
[H]c1nc(N([H])[H])c([H])c(-n2c(N([H])c3c([H])c(C(=O)N([H])c4c([H])c([H])c([H])c(C([H])(C([H])([H])[H])C([H])([H])[H])c4[H])c([H])c([H])c3C([H])([H])[H])nc3c([H])c([H])c([H])c([H])c32)n1


 40 44  0  0  0  0  0  0  0  0999 V2000
  -19.6548   16.8501  -21.2632 C   0  0  0  0  0  0  0  0  0  0  0  0
  -20.4879   17.9101  -21.0860 C   0  0  0  0  0  0  0  0  0  0  0  0
  -20.8913   18.1766  -19.7963 C   0  0  0  0  0  0  0  0  0  0  0  0
  -20.4575   17.3921  -18.7521 C   0  0  0  0  0  0  0  0  0  0  0  0
  -20.8984   17.6852  -17.3533 C   0  0  0  0  0  0  0  0  0  0  0  0
  -19.5990   16.3008  -18.9413 C   0  0  0  0  0  0  0  0  0  0  0  0
  -19.1993   16.0364  -20.2198 C   0  0  0  0  0  0  0  0  0  0  0  0
  -18.4259   15.3156  -22.7581 N   0  0  0  0  0  0  0  0  0  0  0  0
  -19.1856   16.4867  -22.6234 C   0  0  0  0  0  0  0  0  0  0  0  0
  -19.5044   17.2622  -23.5657 O   0  0  0  0  0  0  0  0  0  0  0  0
  -18.2081   14.7397  -21.8922 H   0  0  0  0  0  0  0  0  0  0  0  0
  -16.5571   14.9999  -25.9979 C   0  0  0  0  0  0  0  0  0  0  0  0
  -16.8990   13.7184  -26.3415 C   0  0  0  0  0  0  0  0  0  0  0  0
  -17.7396   12.9876  -25.5088 C   0  0  0  0  0  0  0  0  0  0  0  0
  -18.2375   13.5153  -24.3502 C   0  0  0  0  0  0  0  0  0  0  0  0
  -17.9011   14.8337  -23.9733 C   0  0  0  0  0  0  0  0  0  0  0  0
  -17.0736   15.5316  -24.8065 C   0  0  0  0  0  0  0  0  0  0  0  0
  -14.2213   15.7438  -26.3574 C   0  0  0  0  0  0  0  0  0  0  0  0
  -15.6628   15.8481  -26.8341 C   0  0  0  0  0  0  0  0  0  0  0  0
  -15.6879   15.4055  -28.2813 C   0  0  0  0  0  0  0  0  0  0  0  0
  -19.2051   15.5541  -17.8273 N   0  0  0  0  0  0  0  0  0  0  0  0
  -18.2568   15.8043  -17.3804 H   0  0  0  0  0  0  0  0  0  0  0  0
  -19.8930   14.5007  -17.1997 C   0  0  0  0  0  0  0  0  0  0  0  0
  -20.7988   14.4729  -16.2119 N   0  0  0  0  0  0  0  0  0  0  0  0
  -21.1975   13.2234  -15.9247 C   0  0  0  0  0  0  0  0  0  0  0  0
  -22.0825   12.6673  -15.0231 C   0  0  0  0  0  0  0  0  0  0  0  0
  -22.2735   11.3059  -14.9770 C   0  0  0  0  0  0  0  0  0  0  0  0
  -21.5735   10.4797  -15.8414 C   0  0  0  0  0  0  0  0  0  0  0  0
  -20.6906   11.0118  -16.7435 C   0  0  0  0  0  0  0  0  0  0  0  0
  -20.5044   12.3918  -16.7824 C   0  0  0  0  0  0  0  0  0  0  0  0
  -19.7316   13.1865  -17.5331 N   0  0  0  0  0  0  0  0  0  0  0  0
  -18.8684   12.6360  -18.5437 C   0  0  0  0  0  0  0  0  0  0  0  0
  -17.7399   11.9790  -18.1651 C   0  0  0  0  0  0  0  0  0  0  0  0
  -16.9220   11.4565  -19.1646 C   0  0  0  0  0  0  0  0  0  0  0  0
  -15.7519   10.7745  -18.8006 N   0  0  0  0  0  0  0  0  0  0  0  0
  -17.2786   11.6213  -20.4606 N   0  0  0  0  0  0  0  0  0  0  0  0
  -18.3987   12.2753  -20.7808 C   0  0  0  0  0  0  0  0  0  0  0  0
  -19.1802   12.7743  -19.8324 N   0  0  0  0  0  0  0  0  0  0  0  0
  -15.3141   10.0778  -19.4169 H   0  0  0  0  0  0  0  0  0  0  0  0
  -15.2921   10.9610  -17.8833 H   0  0  0  0  0  0  0  0  0  0  0  0
 18 19  1  0  0  0
 19 20  1  0  0  0
 19 12  1  0  0  0
 12 13  2  0  0  0
 13 14  1  0  0  0
 14 15  2  0  0  0
 15 16  1  0  0  0
 16  8  1  0  0  0
  8  9  1  0  0  0
  9 10  2  0  0  0
  9  1  1  0  0  0
  1  2  2  0  0  0
  2  3  1  0  0  0
  3  4  2  0  0  0
  4  5  1  0  0  0
  4  6  1  0  0  0
  6 21  1  0  0  0
 21 23  1  0  0  0
 23 24  2  0  0  0
 24 25  1  0  0  0
 25 26  2  0  0  0
 26 27  1  0  0  0
 27 28  2  0  0  0
 28 29  1  0  0  0
 29 30  2  0  0  0
 30 31  1  0  0  0
 31 32  1  0  0  0
 32 33  2  0  0  0
 33 34  1  0  0  0
 34 35  1  0  0  0
 34 36  2  0  0  0
 36 37  1  0  0  0
 37 38  2  0  0  0
  6  7  2  0  0  0
 16 17  2  0  0  0
 17 12  1  0  0  0
  7  1  1  0  0  0
 31 23  1  0  0  0
 38 32  1  0  0  0
 30 25  1  0  0  0
  8 11  1  0  0  0
 21 22  1  0  0  0
 35 39  1  0  0  0
 35 40  1  0  0  0
M  END
> <minimizedAffinity>
-9.16882

> <CNNscore>
0.1134470850

> <CNNaffinity>
7.0279340744

> <CNN_VS>
0.7972986102

> <CNNaffinity_variance>
0.3658120036

$$$$
[H]c1nc(N([H])[H])c([H])c(-n2c(N([H])c3c([H])c(C(=O)N([H])c4c([H])c([H])c([H])c(C([H])(C([H])([H])[H])C([H])([H])[H])c4[H])c([H])c([H])c3C([H])([H])[H])nc3c([H])c([H])c([H])c([H])c32)n1


 40 44  0  0  0  0  0  0  0  0999 V2000
  -18.1227   14.1983  -21.6270 C   0  0  0  0  0  0  0  0  0  0  0  0
  -17.6958   13.5591  -22.7488 C   0  0  0  0  0  0  0  0  0  0  0  0
  -17.0674   12.3460  -22.5735 C   0  0  0  0  0  0  0  0  0  0  0  0
  -16.8918   11.8258  -21.3116 C   0  0  0  0  0  0  0  0  0  0  0  0
  -16.2086   10.5082  -21.1261 C   0  0  0  0  0  0  0  0  0  0  0  0
  -17.3340   12.4896  -20.1593 C   0  0  0  0  0  0  0  0  0  0  0  0
  -17.9566   13.6923  -20.3330 C   0  0  0  0  0  0  0  0  0  0  0  0
  -18.7247   16.1914  -22.9555 N   0  0  0  0  0  0  0  0  0  0  0  0
  -18.7960   15.5169  -21.7280 C   0  0  0  0  0  0  0  0  0  0  0  0
  -19.3863   15.9393  -20.6965 O   0  0  0  0  0  0  0  0  0  0  0  0
  -18.1915   15.7452  -23.7589 H   0  0  0  0  0  0  0  0  0  0  0  0
  -21.1330   18.9345  -23.8298 C   0  0  0  0  0  0  0  0  0  0  0  0
  -20.3215   20.0240  -23.6518 C   0  0  0  0  0  0  0  0  0  0  0  0
  -19.0014   19.8370  -23.2562 C   0  0  0  0  0  0  0  0  0  0  0  0
  -18.4876   18.5890  -23.0389 C   0  0  0  0  0  0  0  0  0  0  0  0
  -19.3024   17.4496  -23.2157 C   0  0  0  0  0  0  0  0  0  0  0  0
  -20.5954   17.6582  -23.6038 C   0  0  0  0  0  0  0  0  0  0  0  0
  -22.7098   20.0856  -25.3553 C   0  0  0  0  0  0  0  0  0  0  0  0
  -22.5569   19.0493  -24.2514 C   0  0  0  0  0  0  0  0  0  0  0  0
  -23.0714   17.7350  -24.7981 C   0  0  0  0  0  0  0  0  0  0  0  0
  -17.1163   11.8928  -18.9142 N   0  0  0  0  0  0  0  0  0  0  0  0
  -16.1288   11.9857  -18.4925 H   0  0  0  0  0  0  0  0  0  0  0  0
  -18.0300   11.1743  -18.1233 C   0  0  0  0  0  0  0  0  0  0  0  0
  -18.1714    9.8662  -17.8664 N   0  0  0  0  0  0  0  0  0  0  0  0
  -19.1998    9.6204  -17.0390 C   0  0  0  0  0  0  0  0  0  0  0  0
  -19.7508    8.4838  -16.4824 C   0  0  0  0  0  0  0  0  0  0  0  0
  -20.8390    8.5698  -15.6454 C   0  0  0  0  0  0  0  0  0  0  0  0
  -21.3917    9.8067  -15.3546 C   0  0  0  0  0  0  0  0  0  0  0  0
  -20.8597   10.9466  -15.8967 C   0  0  0  0  0  0  0  0  0  0  0  0
  -19.7576   10.8488  -16.7432 C   0  0  0  0  0  0  0  0  0  0  0  0
  -19.0349   11.7591  -17.4075 N   0  0  0  0  0  0  0  0  0  0  0  0
  -19.3506   13.1599  -17.3190 C   0  0  0  0  0  0  0  0  0  0  0  0
  -20.5786   13.5887  -17.7148 C   0  0  0  0  0  0  0  0  0  0  0  0
  -20.8571   14.9503  -17.6188 C   0  0  0  0  0  0  0  0  0  0  0  0
  -22.1166   15.4184  -18.0208 N   0  0  0  0  0  0  0  0  0  0  0  0
  -19.9043   15.7853  -17.1403 N   0  0  0  0  0  0  0  0  0  0  0  0
  -18.7122   15.3139  -16.7642 C   0  0  0  0  0  0  0  0  0  0  0  0
  -18.4429   14.0183  -16.8539 N   0  0  0  0  0  0  0  0  0  0  0  0
  -22.5130   16.2943  -17.6569 H   0  0  0  0  0  0  0  0  0  0  0  0
  -22.6881   14.8812  -18.7080 H   0  0  0  0  0  0  0  0  0  0  0  0
 18 19  1  0  0  0
 19 20  1  0  0  0
 19 12  1  0  0  0
 12 13  2  0  0  0
 13 14  1  0  0  0
 14 15  2  0  0  0
 15 16  1  0  0  0
 16  8  1  0  0  0
  8  9  1  0  0  0
  9 10  2  0  0  0
  9  1  1  0  0  0
  1  2  2  0  0  0
  2  3  1  0  0  0
  3  4  2  0  0  0
  4  5  1  0  0  0
  4  6  1  0  0  0
  6 21  1  0  0  0
 21 23  1  0  0  0
 23 24  2  0  0  0
 24 25  1  0  0  0
 25 26  2  0  0  0
 26 27  1  0  0  0
 27 28  2  0  0  0
 28 29  1  0  0  0
 29 30  2  0  0  0
 30 31  1  0  0  0
 31 32  1  0  0  0
 32 33  2  0  0  0
 33 34  1  0  0  0
 34 35  1  0  0  0
 34 36  2  0  0  0
 36 37  1  0  0  0
 37 38  2  0  0  0
  6  7  2  0  0  0
 16 17  2  0  0  0
 17 12  1  0  0  0
  7  1  1  0  0  0
 31 23  1  0  0  0
 38 32  1  0  0  0
 30 25  1  0  0  0
  8 11  1  0  0  0
 21 22  1  0  0  0
 35 39  1  0  0  0
 35 40  1  0  0  0
M  END
> <minimizedAffinity>
-9.55452

> <CNNscore>
0.1087684631

> <CNNaffinity>
6.7614645958

> <CNN_VS>
0.7354341149

> <CNNaffinity_variance>
0.1038685590

$$$$
[H]c1nc(N([H])[H])c([H])c(-n2c(N([H])c3c([H])c(C(=O)N([H])c4c([H])c([H])c([H])c(C([H])(C([H])([H])[H])C([H])([H])[H])c4[H])c([H])c([H])c3C([H])([H])[H])nc3c([H])c([H])c([H])c([H])c32)n1


 40 44  0  0  0  0  0  0  0  0999 V2000
  -17.9988   10.7017  -18.7312 C   0  0  0  0  0  0  0  0  0  0  0  0
  -16.8938   10.0049  -19.1088 C   0  0  0  0  0  0  0  0  0  0  0  0
  -16.2943   10.3805  -20.2907 C   0  0  0  0  0  0  0  0  0  0  0  0
  -16.8086   11.4162  -21.0369 C   0  0  0  0  0  0  0  0  0  0  0  0
  -16.1544   11.8203  -22.3198 C   0  0  0  0  0  0  0  0  0  0  0  0
  -17.9478   12.1304  -20.6423 C   0  0  0  0  0  0  0  0  0  0  0  0
  -18.5423   11.7579  -19.4709 C   0  0  0  0  0  0  0  0  0  0  0  0
  -19.7969   11.1554  -17.1000 N   0  0  0  0  0  0  0  0  0  0  0  0
  -18.7124   10.3506  -17.4783 C   0  0  0  0  0  0  0  0  0  0  0  0
  -18.2894    9.3488  -16.8394 O   0  0  0  0  0  0  0  0  0  0  0  0
  -20.0627   11.9831  -17.7109 H   0  0  0  0  0  0  0  0  0  0  0  0
  -22.4781   10.0845  -14.7015 C   0  0  0  0  0  0  0  0  0  0  0  0
  -21.9868   10.6274  -13.5435 C   0  0  0  0  0  0  0  0  0  0  0  0
  -20.7919   11.3383  -13.5739 C   0  0  0  0  0  0  0  0  0  0  0  0
  -20.0898   11.5120  -14.7339 C   0  0  0  0  0  0  0  0  0  0  0  0
  -20.5744   10.9632  -15.9412 C   0  0  0  0  0  0  0  0  0  0  0  0
  -21.7493   10.2686  -15.8865 C   0  0  0  0  0  0  0  0  0  0  0  0
  -24.9382   10.2384  -14.9527 C   0  0  0  0  0  0  0  0  0  0  0  0
  -23.7491    9.3097  -14.7536 C   0  0  0  0  0  0  0  0  0  0  0  0
  -23.7459    8.3337  -15.9105 C   0  0  0  0  0  0  0  0  0  0  0  0
  -18.4062   13.1691  -21.4576 N   0  0  0  0  0  0  0  0  0  0  0  0
  -18.8237   12.8945  -22.4125 H   0  0  0  0  0  0  0  0  0  0  0  0
  -18.3955   14.5501  -21.1940 C   0  0  0  0  0  0  0  0  0  0  0  0
  -18.8786   15.2817  -20.1799 N   0  0  0  0  0  0  0  0  0  0  0  0
  -18.6382   16.5927  -20.3409 C   0  0  0  0  0  0  0  0  0  0  0  0
  -18.9161   17.7301  -19.6099 C   0  0  0  0  0  0  0  0  0  0  0  0
  -18.5212   18.9678  -20.0616 C   0  0  0  0  0  0  0  0  0  0  0  0
  -17.8375   19.0802  -21.2617 C   0  0  0  0  0  0  0  0  0  0  0  0
  -17.5520   17.9637  -22.0021 C   0  0  0  0  0  0  0  0  0  0  0  0
  -17.9561   16.7147  -21.5358 C   0  0  0  0  0  0  0  0  0  0  0  0
  -17.8264   15.4743  -22.0224 N   0  0  0  0  0  0  0  0  0  0  0  0
  -17.1544   15.2384  -23.2724 C   0  0  0  0  0  0  0  0  0  0  0  0
  -15.7984   15.3240  -23.3222 C   0  0  0  0  0  0  0  0  0  0  0  0
  -15.1739   15.0913  -24.5457 C   0  0  0  0  0  0  0  0  0  0  0  0
  -13.7761   15.1736  -24.6239 N   0  0  0  0  0  0  0  0  0  0  0  0
  -15.9332   14.7920  -25.6263 N   0  0  0  0  0  0  0  0  0  0  0  0
  -17.2634   14.7199  -25.5251 C   0  0  0  0  0  0  0  0  0  0  0  0
  -17.8620   14.9407  -24.3622 N   0  0  0  0  0  0  0  0  0  0  0  0
  -13.2419   14.6813  -25.3512 H   0  0  0  0  0  0  0  0  0  0  0  0
  -13.2385   15.7445  -23.9364 H   0  0  0  0  0  0  0  0  0  0  0  0
 18 19  1  0  0  0
 19 20  1  0  0  0
 19 12  1  0  0  0
 12 13  2  0  0  0
 13 14  1  0  0  0
 14 15  2  0  0  0
 15 16  1  0  0  0
 16  8  1  0  0  0
  8  9  1  0  0  0
  9 10  2  0  0  0
  9  1  1  0  0  0
  1  2  2  0  0  0
  2  3  1  0  0  0
  3  4  2  0  0  0
  4  5  1  0  0  0
  4  6  1  0  0  0
  6 21  1  0  0  0
 21 23  1  0  0  0
 23 24  2  0  0  0
 24 25  1  0  0  0
 25 26  2  0  0  0
 26 27  1  0  0  0
 27 28  2  0  0  0
 28 29  1  0  0  0
 29 30  2  0  0  0
 30 31  1  0  0  0
 31 32  1  0  0  0
 32 33  2  0  0  0
 33 34  1  0  0  0
 34 35  1  0  0  0
 34 36  2  0  0  0
 36 37  1  0  0  0
 37 38  2  0  0  0
  6  7  2  0  0  0
 16 17  2  0  0  0
 17 12  1  0  0  0
  7  1  1  0  0  0
 31 23  1  0  0  0
 38 32  1  0  0  0
 30 25  1  0  0  0
  8 11  1  0  0  0
 21 22  1  0  0  0
 35 39  1  0  0  0
 35 40  1  0  0  0
M  END
> <minimizedAffinity>
-9.10828

> <CNNscore>
0.0975241289

> <CNNaffinity>
6.6642913818

> <CNN_VS>
0.6499292254

> <CNNaffinity_variance>
0.2353588790

$$$$
[H]C1=C([H])C([H])(F)C([H])([H])C([H])=C1N([H])C(=O)C1(C(=O)N([H])c2c([H])c([H])c(Oc3c([H])c([H])nc4c([H])c(OC([H])([H])C([H])([H])C([H])([H])N5C([H])([H])C([H])([H])OC([H])([H])C5([H])[H])c(OC([H])([H])[H])c([H])c34)c(F)c2[H])C([H])([H])C1([H])[H]


 48 53  0  0  0  0  0  0  0  0999 V2000
  -19.3772   15.1721  -19.1372 C   0  0  0  0  0  0  0  0  0  0  0  0
  -20.1046   15.4280  -20.2911 C   0  0  0  0  0  0  0  0  0  0  0  0
  -19.9874   16.5578  -21.0448 C   0  0  0  0  0  0  0  0  0  0  0  0
  -19.0777   17.5453  -20.6499 C   0  0  0  0  0  0  0  0  0  0  0  0
  -18.3390   17.3324  -19.5178 C   0  0  0  0  0  0  0  0  0  0  0  0
  -18.4811   16.1577  -18.7612 C   0  0  0  0  0  0  0  0  0  0  0  0
  -17.6958   16.0092  -17.6691 F   0  0  0  0  0  0  0  0  0  0  0  0
  -18.9326   18.7140  -21.4785 N   0  0  0  0  0  0  0  0  0  0  0  0
  -19.6702   19.8607  -21.2922 C   0  0  0  0  0  0  0  0  0  0  0  0
  -20.5462   19.8235  -20.3356 O   0  0  0  0  0  0  0  0  0  0  0  0
  -18.2442   18.6013  -22.2383 H   0  0  0  0  0  0  0  0  0  0  0  0
  -19.6500   21.1617  -22.0036 C   0  0  0  0  0  0  0  0  0  0  0  0
  -18.9376   22.2769  -21.2570 C   0  0  0  0  0  0  0  0  0  0  0  0
  -20.3962   22.2993  -21.2005 C   0  0  0  0  0  0  0  0  0  0  0  0
  -19.7801   21.3129  -23.4532 C   0  0  0  0  0  0  0  0  0  0  0  0
  -19.7354   20.1700  -24.1014 O   0  0  0  0  0  0  0  0  0  0  0  0
  -19.9465   22.4105  -24.2889 N   0  0  0  0  0  0  0  0  0  0  0  0
  -20.0303   23.3864  -23.9604 H   0  0  0  0  0  0  0  0  0  0  0  0
  -20.0492   22.2385  -25.7384 C   0  0  0  0  0  0  0  0  0  0  0  0
  -19.0003   22.5649  -26.4588 C   0  0  0  0  0  0  0  0  0  0  0  0
  -18.8942   22.4687  -27.9117 C   0  0  0  0  0  0  0  0  0  0  0  0
  -20.1120   21.9992  -28.6072 C   0  0  0  0  0  0  0  0  0  0  0  0
  -19.8142   20.8330  -29.3577 F   0  0  0  0  0  0  0  0  0  0  0  0
  -21.2221   21.6615  -27.7143 C   0  0  0  0  0  0  0  0  0  0  0  0
  -21.2201   21.7615  -26.4006 C   0  0  0  0  0  0  0  0  0  0  0  0
  -19.5403   14.0067  -18.4210 O   0  0  0  0  0  0  0  0  0  0  0  0
  -20.0794   10.7489  -15.9991 C   0  0  0  0  0  0  0  0  0  0  0  0
  -19.9102   11.8467  -16.7973 C   0  0  0  0  0  0  0  0  0  0  0  0
  -19.0519   11.7620  -17.8724 C   0  0  0  0  0  0  0  0  0  0  0  0
  -18.8430   12.8695  -18.7224 C   0  0  0  0  0  0  0  0  0  0  0  0
  -17.9786   12.7654  -19.7867 C   0  0  0  0  0  0  0  0  0  0  0  0
  -17.3075   11.5902  -20.0437 C   0  0  0  0  0  0  0  0  0  0  0  0
  -17.5089   10.5385  -19.2343 N   0  0  0  0  0  0  0  0  0  0  0  0
  -18.3593   10.6178  -18.1734 C   0  0  0  0  0  0  0  0  0  0  0  0
  -18.5346    9.5080  -17.3608 C   0  0  0  0  0  0  0  0  0  0  0  0
  -19.3844    9.5615  -16.2823 C   0  0  0  0  0  0  0  0  0  0  0  0
  -22.2000   11.2886  -14.9813 C   0  0  0  0  0  0  0  0  0  0  0  0
  -20.9123   10.7224  -14.8971 O   0  0  0  0  0  0  0  0  0  0  0  0
  -19.5691    8.4790  -15.4858 O   0  0  0  0  0  0  0  0  0  0  0  0
  -20.6040    7.5707  -15.5941 C   0  0  0  0  0  0  0  0  0  0  0  0
  -20.3880    6.3370  -14.7287 C   0  0  0  0  0  0  0  0  0  0  0  0
  -20.3560    6.7808  -13.2600 C   0  0  0  0  0  0  0  0  0  0  0  0
  -21.3332    6.0041  -12.5390 N   0  0  0  0  0  0  0  0  0  0  0  0
  -20.8503    5.7432  -11.1629 C   0  0  0  0  0  0  0  0  0  0  0  0
  -22.0243    5.0359  -10.4797 C   0  0  0  0  0  0  0  0  0  0  0  0
  -22.9442    4.5330  -11.3998 O   0  0  0  0  0  0  0  0  0  0  0  0
  -23.6134    5.5633  -12.0897 C   0  0  0  0  0  0  0  0  0  0  0  0
  -22.6142    6.6906  -12.3817 C   0  0  0  0  0  0  0  0  0  0  0  0
 37 38  1  0  0  0
 38 27  1  0  0  0
 27 28  2  0  0  0
 28 29  1  0  0  0
 29 30  2  0  0  0
 30 26  1  0  0  0
 26  1  1  0  0  0
  1  2  2  0  0  0
  2  3  1  0  0  0
  3  4  2  0  0  0
  4  8  1  0  0  0
  8  9  1  0  0  0
  9 10  2  0  0  0
  9 12  1  0  0  0
 12 13  1  0  0  0
 13 14  1  0  0  0
 12 15  1  0  0  0
 15 16  2  0  0  0
 15 17  1  0  0  0
 17 19  1  0  0  0
 19 20  2  0  0  0
 20 21  1  0  0  0
 21 22  1  0  0  0
 22 23  1  0  0  0
 22 24  1  0  0  0
 24 25  2  0  0  0
  4  5  1  0  0  0
  5  6  2  0  0  0
  6  7  1  0  0  0
 30 31  1  0  0  0
 31 32  2  0  0  0
 32 33  1  0  0  0
 33 34  2  0  0  0
 34 35  1  0  0  0
 35 36  2  0  0  0
 36 39  1  0  0  0
 39 40  1  0  0  0
 40 41  1  0  0  0
 41 42  1  0  0  0
 42 43  1  0  0  0
 43 44  1  0  0  0
 44 45  1  0  0  0
 45 46  1  0  0  0
 46 47  1  0  0  0
 47 48  1  0  0  0
 36 27  1  0  0  0
 48 43  1  0  0  0
 34 29  1  0  0  0
  6  1  1  0  0  0
 14 12  1  0  0  0
 25 19  1  0  0  0
  8 11  1  0  0  0
 17 18  1  0  0  0
M  END
> <minimizedAffinity>
-7.58454

> <CNNscore>
0.2098856419

> <CNNaffinity>
6.7027854919

> <CNN_VS>
1.4068183899

> <CNNaffinity_variance>
0.0764956996

$$$$
[H]C1=C([H])C([H])(F)C([H])([H])C([H])=C1N([H])C(=O)C1(C(=O)N([H])c2c([H])c([H])c(Oc3c([H])c([H])nc4c([H])c(OC([H])([H])C([H])([H])C([H])([H])N5C([H])([H])C([H])([H])OC([H])([H])C5([H])[H])c(OC([H])([H])[H])c([H])c34)c(F)c2[H])C([H])([H])C1([H])[H]


 48 53  0  0  0  0  0  0  0  0999 V2000
  -18.0242   17.0399  -21.7750 C   0  0  0  0  0  0  0  0  0  0  0  0
  -19.2965   17.2547  -21.2636 C   0  0  0  0  0  0  0  0  0  0  0  0
  -20.2125   18.1089  -21.8017 C   0  0  0  0  0  0  0  0  0  0  0  0
  -19.8722   18.8328  -22.9501 C   0  0  0  0  0  0  0  0  0  0  0  0
  -18.6273   18.6499  -23.4879 C   0  0  0  0  0  0  0  0  0  0  0  0
  -17.7040   17.7623  -22.9114 C   0  0  0  0  0  0  0  0  0  0  0  0
  -16.5027   17.6166  -23.5173 F   0  0  0  0  0  0  0  0  0  0  0  0
  -20.8641   19.6988  -23.5330 N   0  0  0  0  0  0  0  0  0  0  0  0
  -21.9678   19.2273  -24.2064 C   0  0  0  0  0  0  0  0  0  0  0  0
  -22.0538   17.9378  -24.3232 O   0  0  0  0  0  0  0  0  0  0  0  0
  -20.6560   20.7027  -23.4208 H   0  0  0  0  0  0  0  0  0  0  0  0
  -23.1026   19.9396  -24.8417 C   0  0  0  0  0  0  0  0  0  0  0  0
  -23.7327   19.2032  -26.0119 C   0  0  0  0  0  0  0  0  0  0  0  0
  -22.8217   20.2909  -26.3562 C   0  0  0  0  0  0  0  0  0  0  0  0
  -23.9271   20.9450  -24.1705 C   0  0  0  0  0  0  0  0  0  0  0  0
  -25.1478   21.0226  -24.6524 O   0  0  0  0  0  0  0  0  0  0  0  0
  -23.6930   21.8317  -23.1266 N   0  0  0  0  0  0  0  0  0  0  0  0
  -22.8031   21.8976  -22.6058 H   0  0  0  0  0  0  0  0  0  0  0  0
  -24.7449   22.7376  -22.6642 C   0  0  0  0  0  0  0  0  0  0  0  0
  -24.7646   23.9476  -23.1754 C   0  0  0  0  0  0  0  0  0  0  0  0
  -25.7249   24.9989  -22.8537 C   0  0  0  0  0  0  0  0  0  0  0  0
  -26.7256   24.6504  -21.8221 C   0  0  0  0  0  0  0  0  0  0  0  0
  -28.0320   24.7942  -22.3555 F   0  0  0  0  0  0  0  0  0  0  0  0
  -26.6177   23.2800  -21.3182 C   0  0  0  0  0  0  0  0  0  0  0  0
  -25.7225   22.3858  -21.6856 C   0  0  0  0  0  0  0  0  0  0  0  0
  -17.1450   16.1588  -21.1850 O   0  0  0  0  0  0  0  0  0  0  0  0
  -18.4402   13.2794  -18.5772 C   0  0  0  0  0  0  0  0  0  0  0  0
  -18.0110   14.2537  -19.4358 C   0  0  0  0  0  0  0  0  0  0  0  0
  -17.5104   13.8839  -20.6655 C   0  0  0  0  0  0  0  0  0  0  0  0
  -17.0529   14.8538  -21.5836 C   0  0  0  0  0  0  0  0  0  0  0  0
  -16.5524   14.4632  -22.8033 C   0  0  0  0  0  0  0  0  0  0  0  0
  -16.4897   13.1319  -23.1514 C   0  0  0  0  0  0  0  0  0  0  0  0
  -16.9263   12.2120  -22.2768 N   0  0  0  0  0  0  0  0  0  0  0  0
  -17.4252   12.5745  -21.0624 C   0  0  0  0  0  0  0  0  0  0  0  0
  -17.8616   11.5908  -20.1880 C   0  0  0  0  0  0  0  0  0  0  0  0
  -18.3668   11.9285  -18.9555 C   0  0  0  0  0  0  0  0  0  0  0  0
  -18.8477   14.8288  -16.7724 C   0  0  0  0  0  0  0  0  0  0  0  0
  -18.9580   13.5360  -17.3222 O   0  0  0  0  0  0  0  0  0  0  0  0
  -18.8038   10.9744  -18.0959 O   0  0  0  0  0  0  0  0  0  0  0  0
  -18.3223    9.6821  -18.0196 C   0  0  0  0  0  0  0  0  0  0  0  0
  -18.7001    8.9968  -16.7138 C   0  0  0  0  0  0  0  0  0  0  0  0
  -19.7955    9.8295  -16.0343 C   0  0  0  0  0  0  0  0  0  0  0  0
  -20.1435    9.1806  -14.7950 N   0  0  0  0  0  0  0  0  0  0  0  0
  -19.8737    7.7274  -14.8970 C   0  0  0  0  0  0  0  0  0  0  0  0
  -20.1579    7.1921  -13.4905 C   0  0  0  0  0  0  0  0  0  0  0  0
  -20.9112    8.0856  -12.7289 O   0  0  0  0  0  0  0  0  0  0  0  0
  -20.1905    9.2591  -12.4314 C   0  0  0  0  0  0  0  0  0  0  0  0
  -19.3533    9.6474  -13.6572 C   0  0  0  0  0  0  0  0  0  0  0  0
 37 38  1  0  0  0
 38 27  1  0  0  0
 27 28  2  0  0  0
 28 29  1  0  0  0
 29 30  2  0  0  0
 30 26  1  0  0  0
 26  1  1  0  0  0
  1  2  2  0  0  0
  2  3  1  0  0  0
  3  4  2  0  0  0
  4  8  1  0  0  0
  8  9  1  0  0  0
  9 10  2  0  0  0
  9 12  1  0  0  0
 12 13  1  0  0  0
 13 14  1  0  0  0
 12 15  1  0  0  0
 15 16  2  0  0  0
 15 17  1  0  0  0
 17 19  1  0  0  0
 19 20  2  0  0  0
 20 21  1  0  0  0
 21 22  1  0  0  0
 22 23  1  0  0  0
 22 24  1  0  0  0
 24 25  2  0  0  0
  4  5  1  0  0  0
  5  6  2  0  0  0
  6  7  1  0  0  0
 30 31  1  0  0  0
 31 32  2  0  0  0
 32 33  1  0  0  0
 33 34  2  0  0  0
 34 35  1  0  0  0
 35 36  2  0  0  0
 36 39  1  0  0  0
 39 40  1  0  0  0
 40 41  1  0  0  0
 41 42  1  0  0  0
 42 43  1  0  0  0
 43 44  1  0  0  0
 44 45  1  0  0  0
 45 46  1  0  0  0
 46 47  1  0  0  0
 47 48  1  0  0  0
 36 27  1  0  0  0
 48 43  1  0  0  0
 34 29  1  0  0  0
  6  1  1  0  0  0
 14 12  1  0  0  0
 25 19  1  0  0  0
  8 11  1  0  0  0
 17 18  1  0  0  0
M  END
> <minimizedAffinity>
-8.50218

> <CNNscore>
0.1736070067

> <CNNaffinity>
6.6070823669

> <CNN_VS>
1.1470358372

> <CNNaffinity_variance>
0.1800049245

$$$$
[H]C1=C([H])C([H])(F)C([H])([H])C([H])=C1N([H])C(=O)C1(C(=O)N([H])c2c([H])c([H])c(Oc3c([H])c([H])nc4c([H])c(OC([H])([H])C([H])([H])C([H])([H])N5C([H])([H])C([H])([H])OC([H])([H])C5([H])[H])c(OC([H])([H])[H])c([H])c34)c(F)c2[H])C([H])([H])C1([H])[H]


 48 53  0  0  0  0  0  0  0  0999 V2000
  -17.7248   12.1575  -19.0067 C   0  0  0  0  0  0  0  0  0  0  0  0
  -18.9658   12.1857  -18.3858 C   0  0  0  0  0  0  0  0  0  0  0  0
  -19.5117   11.1416  -17.7002 C   0  0  0  0  0  0  0  0  0  0  0  0
  -18.7920    9.9455  -17.6003 C   0  0  0  0  0  0  0  0  0  0  0  0
  -17.5628    9.8753  -18.1975 C   0  0  0  0  0  0  0  0  0  0  0  0
  -17.0255   10.9681  -18.8974 C   0  0  0  0  0  0  0  0  0  0  0  0
  -15.7926   10.8295  -19.4378 F   0  0  0  0  0  0  0  0  0  0  0  0
  -19.3610    8.8652  -16.8368 N   0  0  0  0  0  0  0  0  0  0  0  0
  -19.4927    8.9035  -15.4676 C   0  0  0  0  0  0  0  0  0  0  0  0
  -19.0369    9.9684  -14.8827 O   0  0  0  0  0  0  0  0  0  0  0  0
  -19.6358    8.0523  -17.4091 H   0  0  0  0  0  0  0  0  0  0  0  0
  -20.0706    7.9260  -14.5139 C   0  0  0  0  0  0  0  0  0  0  0  0
  -20.8764    6.8135  -15.1631 C   0  0  0  0  0  0  0  0  0  0  0  0
  -21.6494    7.8970  -14.5632 C   0  0  0  0  0  0  0  0  0  0  0  0
  -19.5407    7.6655  -13.1751 C   0  0  0  0  0  0  0  0  0  0  0  0
  -19.6457    6.4069  -12.8101 O   0  0  0  0  0  0  0  0  0  0  0  0
  -18.9445    8.4678  -12.2098 N   0  0  0  0  0  0  0  0  0  0  0  0
  -18.7534    9.4764  -12.3266 H   0  0  0  0  0  0  0  0  0  0  0  0
  -18.5060    7.9023  -10.9336 C   0  0  0  0  0  0  0  0  0  0  0  0
  -17.2599    7.4943  -10.8527 C   0  0  0  0  0  0  0  0  0  0  0  0
  -16.6251    6.9051   -9.6775 C   0  0  0  0  0  0  0  0  0  0  0  0
  -17.5061    6.7253   -8.5033 C   0  0  0  0  0  0  0  0  0  0  0  0
  -16.9701    7.4249   -7.3919 F   0  0  0  0  0  0  0  0  0  0  0  0
  -18.8731    7.2126   -8.6969 C   0  0  0  0  0  0  0  0  0  0  0  0
  -19.3559    7.7543   -9.7966 C   0  0  0  0  0  0  0  0  0  0  0  0
  -17.2274   13.2500  -19.6825 O   0  0  0  0  0  0  0  0  0  0  0  0
  -19.0349   16.6950  -20.9610 C   0  0  0  0  0  0  0  0  0  0  0  0
  -18.4336   15.5495  -20.5169 C   0  0  0  0  0  0  0  0  0  0  0  0
  -18.0293   14.6092  -21.4398 C   0  0  0  0  0  0  0  0  0  0  0  0
  -17.4072   13.4105  -21.0287 C   0  0  0  0  0  0  0  0  0  0  0  0
  -17.0158   12.4832  -21.9655 C   0  0  0  0  0  0  0  0  0  0  0  0
  -17.2189   12.7032  -23.3100 C   0  0  0  0  0  0  0  0  0  0  0  0
  -17.8098   13.8444  -23.6980 N   0  0  0  0  0  0  0  0  0  0  0  0
  -18.2069   14.7773  -22.7887 C   0  0  0  0  0  0  0  0  0  0  0  0
  -18.8171   15.9403  -23.2334 C   0  0  0  0  0  0  0  0  0  0  0  0
  -19.2300   16.8968  -22.3374 C   0  0  0  0  0  0  0  0  0  0  0  0
  -18.9206   17.8397  -18.8395 C   0  0  0  0  0  0  0  0  0  0  0  0
  -19.4794   17.7018  -20.1259 O   0  0  0  0  0  0  0  0  0  0  0  0
  -19.8207   18.0417  -22.7625 O   0  0  0  0  0  0  0  0  0  0  0  0
  -21.1743   18.2141  -22.9770 C   0  0  0  0  0  0  0  0  0  0  0  0
  -21.4676   19.3183  -23.9831 C   0  0  0  0  0  0  0  0  0  0  0  0
  -20.4935   20.4753  -23.7234 C   0  0  0  0  0  0  0  0  0  0  0  0
  -20.2239   21.1214  -24.9836 N   0  0  0  0  0  0  0  0  0  0  0  0
  -21.4957   21.3720  -25.7008 C   0  0  0  0  0  0  0  0  0  0  0  0
  -21.0782   22.1686  -26.9404 C   0  0  0  0  0  0  0  0  0  0  0  0
  -19.7116   22.0633  -27.1989 O   0  0  0  0  0  0  0  0  0  0  0  0
  -18.9388   22.6901  -26.2013 C   0  0  0  0  0  0  0  0  0  0  0  0
  -19.5915   22.4312  -24.8370 C   0  0  0  0  0  0  0  0  0  0  0  0
 37 38  1  0  0  0
 38 27  1  0  0  0
 27 28  2  0  0  0
 28 29  1  0  0  0
 29 30  2  0  0  0
 30 26  1  0  0  0
 26  1  1  0  0  0
  1  2  2  0  0  0
  2  3  1  0  0  0
  3  4  2  0  0  0
  4  8  1  0  0  0
  8  9  1  0  0  0
  9 10  2  0  0  0
  9 12  1  0  0  0
 12 13  1  0  0  0
 13 14  1  0  0  0
 12 15  1  0  0  0
 15 16  2  0  0  0
 15 17  1  0  0  0
 17 19  1  0  0  0
 19 20  2  0  0  0
 20 21  1  0  0  0
 21 22  1  0  0  0
 22 23  1  0  0  0
 22 24  1  0  0  0
 24 25  2  0  0  0
  4  5  1  0  0  0
  5  6  2  0  0  0
  6  7  1  0  0  0
 30 31  1  0  0  0
 31 32  2  0  0  0
 32 33  1  0  0  0
 33 34  2  0  0  0
 34 35  1  0  0  0
 35 36  2  0  0  0
 36 39  1  0  0  0
 39 40  1  0  0  0
 40 41  1  0  0  0
 41 42  1  0  0  0
 42 43  1  0  0  0
 43 44  1  0  0  0
 44 45  1  0  0  0
 45 46  1  0  0  0
 46 47  1  0  0  0
 47 48  1  0  0  0
 36 27  1  0  0  0
 48 43  1  0  0  0
 34 29  1  0  0  0
  6  1  1  0  0  0
 14 12  1  0  0  0
 25 19  1  0  0  0
  8 11  1  0  0  0
 17 18  1  0  0  0
M  END
> <minimizedAffinity>
-8.68717

> <CNNscore>
0.1456576586

> <CNNaffinity>
6.2403516769

> <CNN_VS>
0.9089550376

> <CNNaffinity_variance>
0.5006560683

$$$$
[H]C1=C([H])C([H])(F)C([H])([H])C([H])=C1N([H])C(=O)C1(C(=O)N([H])c2c([H])c([H])c(Oc3c([H])c([H])nc4c([H])c(OC([H])([H])C([H])([H])C([H])([H])N5C([H])([H])C([H])([H])OC([H])([H])C5([H])[H])c(OC([H])([H])[H])c([H])c34)c(F)c2[H])C([H])([H])C1([H])[H]


 48 53  0  0  0  0  0  0  0  0999 V2000
  -19.3564   15.1427  -19.1046 C   0  0  0  0  0  0  0  0  0  0  0  0
  -18.6226   16.0838  -19.8134 C   0  0  0  0  0  0  0  0  0  0  0  0
  -19.1436   16.9241  -20.7518 C   0  0  0  0  0  0  0  0  0  0  0  0
  -20.5112   16.8540  -21.0406 C   0  0  0  0  0  0  0  0  0  0  0  0
  -21.2719   15.9401  -20.3633 C   0  0  0  0  0  0  0  0  0  0  0  0
  -20.7072   15.0871  -19.4010 C   0  0  0  0  0  0  0  0  0  0  0  0
  -21.5302   14.2287  -18.7550 F   0  0  0  0  0  0  0  0  0  0  0  0
  -21.0565   17.7765  -22.0024 N   0  0  0  0  0  0  0  0  0  0  0  0
  -21.4768   19.0440  -21.6701 C   0  0  0  0  0  0  0  0  0  0  0  0
  -21.3886   19.3607  -20.4148 O   0  0  0  0  0  0  0  0  0  0  0  0
  -21.1259   17.3893  -22.9559 H   0  0  0  0  0  0  0  0  0  0  0  0
  -22.0290   20.1399  -22.5025 C   0  0  0  0  0  0  0  0  0  0  0  0
  -22.9705   21.0776  -21.7657 C   0  0  0  0  0  0  0  0  0  0  0  0
  -23.6033   20.0749  -22.6175 C   0  0  0  0  0  0  0  0  0  0  0  0
  -21.3934   20.6576  -23.7146 C   0  0  0  0  0  0  0  0  0  0  0  0
  -20.4977   19.8398  -24.2220 O   0  0  0  0  0  0  0  0  0  0  0  0
  -21.5412   21.8299  -24.4459 N   0  0  0  0  0  0  0  0  0  0  0  0
  -22.2149   22.5789  -24.2171 H   0  0  0  0  0  0  0  0  0  0  0  0
  -20.7424   22.0672  -25.6486 C   0  0  0  0  0  0  0  0  0  0  0  0
  -21.3036   21.8004  -26.8060 C   0  0  0  0  0  0  0  0  0  0  0  0
  -20.6849   21.9673  -28.1177 C   0  0  0  0  0  0  0  0  0  0  0  0
  -19.2835   22.4394  -28.1030 C   0  0  0  0  0  0  0  0  0  0  0  0
  -19.1779   23.6464  -28.8406 F   0  0  0  0  0  0  0  0  0  0  0  0
  -18.7533   22.7079  -26.7650 C   0  0  0  0  0  0  0  0  0  0  0  0
  -19.3981   22.5463  -25.6275 C   0  0  0  0  0  0  0  0  0  0  0  0
  -18.7697   14.3239  -18.1649 O   0  0  0  0  0  0  0  0  0  0  0  0
  -20.3475   11.3519  -15.8312 C   0  0  0  0  0  0  0  0  0  0  0  0
  -19.8287   12.3568  -16.6003 C   0  0  0  0  0  0  0  0  0  0  0  0
  -18.9750   12.0320  -17.6325 C   0  0  0  0  0  0  0  0  0  0  0  0
  -18.4127   13.0351  -18.4512 C   0  0  0  0  0  0  0  0  0  0  0  0
  -17.5593   12.6900  -19.4726 C   0  0  0  0  0  0  0  0  0  0  0  0
  -17.2405   11.3722  -19.7166 C   0  0  0  0  0  0  0  0  0  0  0  0
  -17.7776   10.4205  -18.9370 N   0  0  0  0  0  0  0  0  0  0  0  0
  -18.6246   10.7380  -17.9188 C   0  0  0  0  0  0  0  0  0  0  0  0
  -19.1534    9.7231  -17.1357 C   0  0  0  0  0  0  0  0  0  0  0  0
  -20.0081   10.0156  -16.1003 C   0  0  0  0  0  0  0  0  0  0  0  0
  -21.9746   12.7455  -14.7200 C   0  0  0  0  0  0  0  0  0  0  0  0
  -21.2102   11.5627  -14.7728 O   0  0  0  0  0  0  0  0  0  0  0  0
  -20.5373    9.0296  -15.3333 O   0  0  0  0  0  0  0  0  0  0  0  0
  -19.8206    8.1761  -14.5174 C   0  0  0  0  0  0  0  0  0  0  0  0
  -19.0398    8.9187  -13.4420 C   0  0  0  0  0  0  0  0  0  0  0  0
  -18.8733    7.9828  -12.2373 C   0  0  0  0  0  0  0  0  0  0  0  0
  -18.2603    8.7347  -11.1710 N   0  0  0  0  0  0  0  0  0  0  0  0
  -19.0297    9.9770  -10.9269 C   0  0  0  0  0  0  0  0  0  0  0  0
  -18.3563   10.6022   -9.7017 C   0  0  0  0  0  0  0  0  0  0  0  0
  -17.0877   10.0710   -9.4692 O   0  0  0  0  0  0  0  0  0  0  0  0
  -17.1480    8.7172   -9.0835 C   0  0  0  0  0  0  0  0  0  0  0  0
  -18.2498    8.0225   -9.8945 C   0  0  0  0  0  0  0  0  0  0  0  0
 37 38  1  0  0  0
 38 27  1  0  0  0
 27 28  2  0  0  0
 28 29  1  0  0  0
 29 30  2  0  0  0
 30 26  1  0  0  0
 26  1  1  0  0  0
  1  2  2  0  0  0
  2  3  1  0  0  0
  3  4  2  0  0  0
  4  8  1  0  0  0
  8  9  1  0  0  0
  9 10  2  0  0  0
  9 12  1  0  0  0
 12 13  1  0  0  0
 13 14  1  0  0  0
 12 15  1  0  0  0
 15 16  2  0  0  0
 15 17  1  0  0  0
 17 19  1  0  0  0
 19 20  2  0  0  0
 20 21  1  0  0  0
 21 22  1  0  0  0
 22 23  1  0  0  0
 22 24  1  0  0  0
 24 25  2  0  0  0
  4  5  1  0  0  0
  5  6  2  0  0  0
  6  7  1  0  0  0
 30 31  1  0  0  0
 31 32  2  0  0  0
 32 33  1  0  0  0
 33 34  2  0  0  0
 34 35  1  0  0  0
 35 36  2  0  0  0
 36 39  1  0  0  0
 39 40  1  0  0  0
 40 41  1  0  0  0
 41 42  1  0  0  0
 42 43  1  0  0  0
 43 44  1  0  0  0
 44 45  1  0  0  0
 45 46  1  0  0  0
 46 47  1  0  0  0
 47 48  1  0  0  0
 36 27  1  0  0  0
 48 43  1  0  0  0
 34 29  1  0  0  0
  6  1  1  0  0  0
 14 12  1  0  0  0
 25 19  1  0  0  0
  8 11  1  0  0  0
 17 18  1  0  0  0
M  END
> <minimizedAffinity>
-8.26916

> <CNNscore>
0.1410556436

> <CNNaffinity>
6.5117216110

> <CNN_VS>
0.9185150862

> <CNNaffinity_variance>
0.0933790803

$$$$
[H]C1=C([H])C([H])(F)C([H])([H])C([H])=C1N([H])C(=O)C1(C(=O)N([H])c2c([H])c([H])c(Oc3c([H])c([H])nc4c([H])c(OC([H])([H])C([H])([H])C([H])([H])N5C([H])([H])C([H])([H])OC([H])([H])C5([H])[H])c(OC([H])([H])[H])c([H])c34)c(F)c2[H])C([H])([H])C1([H])[H]


 48 53  0  0  0  0  0  0  0  0999 V2000
  -19.3742   15.5946  -19.5332 C   0  0  0  0  0  0  0  0  0  0  0  0
  -20.7207   15.6195  -19.8686 C   0  0  0  0  0  0  0  0  0  0  0  0
  -21.2608   16.4051  -20.8430 C   0  0  0  0  0  0  0  0  0  0  0  0
  -20.4214   17.2558  -21.5713 C   0  0  0  0  0  0  0  0  0  0  0  0
  -19.0858   17.2616  -21.2732 C   0  0  0  0  0  0  0  0  0  0  0  0
  -18.5576   16.4406  -20.2635 C   0  0  0  0  0  0  0  0  0  0  0  0
  -17.2226   16.4838  -20.0462 F   0  0  0  0  0  0  0  0  0  0  0  0
  -20.9977   18.0481  -22.6266 N   0  0  0  0  0  0  0  0  0  0  0  0
  -21.4546   19.3320  -22.4355 C   0  0  0  0  0  0  0  0  0  0  0  0
  -21.3714   19.7901  -21.2243 O   0  0  0  0  0  0  0  0  0  0  0  0
  -21.0589   17.5544  -23.5302 H   0  0  0  0  0  0  0  0  0  0  0  0
  -22.0424   20.3108  -23.3817 C   0  0  0  0  0  0  0  0  0  0  0  0
  -21.9635   19.9004  -24.8425 C   0  0  0  0  0  0  0  0  0  0  0  0
  -20.9765   20.8805  -24.3991 C   0  0  0  0  0  0  0  0  0  0  0  0
  -23.0661   21.2934  -23.0242 C   0  0  0  0  0  0  0  0  0  0  0  0
  -24.1835   21.1503  -23.7019 O   0  0  0  0  0  0  0  0  0  0  0  0
  -23.1076   22.3432  -22.1148 N   0  0  0  0  0  0  0  0  0  0  0  0
  -22.3350   22.5922  -21.4757 H   0  0  0  0  0  0  0  0  0  0  0  0
  -24.3073   23.1701  -21.9809 C   0  0  0  0  0  0  0  0  0  0  0  0
  -24.4311   24.1881  -22.8021 C   0  0  0  0  0  0  0  0  0  0  0  0
  -25.5452   25.1309  -22.8373 C   0  0  0  0  0  0  0  0  0  0  0  0
  -26.5899   24.9173  -21.8126 C   0  0  0  0  0  0  0  0  0  0  0  0
  -27.8449   24.7198  -22.4434 F   0  0  0  0  0  0  0  0  0  0  0  0
  -26.3577   23.7576  -20.9495 C   0  0  0  0  0  0  0  0  0  0  0  0
  -25.3236   22.9432  -21.0049 C   0  0  0  0  0  0  0  0  0  0  0  0
  -18.8900   14.7738  -18.5384 O   0  0  0  0  0  0  0  0  0  0  0  0
  -20.3531   11.8108  -16.1200 C   0  0  0  0  0  0  0  0  0  0  0  0
  -19.8730   12.8128  -16.9177 C   0  0  0  0  0  0  0  0  0  0  0  0
  -19.0111   12.4912  -17.9440 C   0  0  0  0  0  0  0  0  0  0  0  0
  -18.4876   13.4915  -18.7914 C   0  0  0  0  0  0  0  0  0  0  0  0
  -17.6251   13.1499  -19.8064 C   0  0  0  0  0  0  0  0  0  0  0  0
  -17.2597   11.8384  -20.0161 C   0  0  0  0  0  0  0  0  0  0  0  0
  -17.7600   10.8893  -19.2094 N   0  0  0  0  0  0  0  0  0  0  0  0
  -18.6150   11.2034  -18.1968 C   0  0  0  0  0  0  0  0  0  0  0  0
  -19.1046   10.1916  -17.3849 C   0  0  0  0  0  0  0  0  0  0  0  0
  -19.9665   10.4809  -16.3545 C   0  0  0  0  0  0  0  0  0  0  0  0
  -21.9093   13.2435  -14.9580 C   0  0  0  0  0  0  0  0  0  0  0  0
  -21.2199   12.0189  -15.0644 O   0  0  0  0  0  0  0  0  0  0  0  0
  -20.4576    9.4975  -15.5594 O   0  0  0  0  0  0  0  0  0  0  0  0
  -20.1070    8.1631  -15.6247 C   0  0  0  0  0  0  0  0  0  0  0  0
  -20.1430    7.4851  -14.2622 C   0  0  0  0  0  0  0  0  0  0  0  0
  -20.9339    8.3821  -13.3005 C   0  0  0  0  0  0  0  0  0  0  0  0
  -20.0785    8.7018  -12.1851 N   0  0  0  0  0  0  0  0  0  0  0  0
  -18.9158    7.7839  -12.1656 C   0  0  0  0  0  0  0  0  0  0  0  0
  -18.0372    8.3133  -11.0283 C   0  0  0  0  0  0  0  0  0  0  0  0
  -18.7379    9.1643  -10.1737 O   0  0  0  0  0  0  0  0  0  0  0  0
  -19.1049   10.3649  -10.8133 C   0  0  0  0  0  0  0  0  0  0  0  0
  -19.5141   10.0484  -12.2579 C   0  0  0  0  0  0  0  0  0  0  0  0
 37 38  1  0  0  0
 38 27  1  0  0  0
 27 28  2  0  0  0
 28 29  1  0  0  0
 29 30  2  0  0  0
 30 26  1  0  0  0
 26  1  1  0  0  0
  1  2  2  0  0  0
  2  3  1  0  0  0
  3  4  2  0  0  0
  4  8  1  0  0  0
  8  9  1  0  0  0
  9 10  2  0  0  0
  9 12  1  0  0  0
 12 13  1  0  0  0
 13 14  1  0  0  0
 12 15  1  0  0  0
 15 16  2  0  0  0
 15 17  1  0  0  0
 17 19  1  0  0  0
 19 20  2  0  0  0
 20 21  1  0  0  0
 21 22  1  0  0  0
 22 23  1  0  0  0
 22 24  1  0  0  0
 24 25  2  0  0  0
  4  5  1  0  0  0
  5  6  2  0  0  0
  6  7  1  0  0  0
 30 31  1  0  0  0
 31 32  2  0  0  0
 32 33  1  0  0  0
 33 34  2  0  0  0
 34 35  1  0  0  0
 35 36  2  0  0  0
 36 39  1  0  0  0
 39 40  1  0  0  0
 40 41  1  0  0  0
 41 42  1  0  0  0
 42 43  1  0  0  0
 43 44  1  0  0  0
 44 45  1  0  0  0
 45 46  1  0  0  0
 46 47  1  0  0  0
 47 48  1  0  0  0
 36 27  1  0  0  0
 48 43  1  0  0  0
 34 29  1  0  0  0
  6  1  1  0  0  0
 14 12  1  0  0  0
 25 19  1  0  0  0
  8 11  1  0  0  0
 17 18  1  0  0  0
M  END
> <minimizedAffinity>
-7.08726

> <CNNscore>
0.1239567325

> <CNNaffinity>
6.4607567787

> <CNN_VS>
0.8008543253

> <CNNaffinity_variance>
0.3228079677

$$$$
[H]C1=C([H])C([H])(F)C([H])([H])C([H])=C1N([H])C(=O)C1(C(=O)N([H])c2c([H])c([H])c(Oc3c([H])c([H])nc4c([H])c(OC([H])([H])C([H])([H])C([H])([H])N5C([H])([H])C([H])([H])OC([H])([H])C5([H])[H])c(OC([H])([H])[H])c([H])c34)c(F)c2[H])C([H])([H])C1([H])[H]


 48 53  0  0  0  0  0  0  0  0999 V2000
  -17.1081   12.1442  -20.7897 C   0  0  0  0  0  0  0  0  0  0  0  0
  -18.3247   12.7471  -20.5020 C   0  0  0  0  0  0  0  0  0  0  0  0
  -19.0830   12.4732  -19.4028 C   0  0  0  0  0  0  0  0  0  0  0  0
  -18.6266   11.5213  -18.4840 C   0  0  0  0  0  0  0  0  0  0  0  0
  -17.4304   10.9035  -18.7291 C   0  0  0  0  0  0  0  0  0  0  0  0
  -16.6704   11.2065  -19.8706 C   0  0  0  0  0  0  0  0  0  0  0  0
  -15.4855   10.5722  -20.0289 F   0  0  0  0  0  0  0  0  0  0  0  0
  -19.4160   11.2729  -17.3055 N   0  0  0  0  0  0  0  0  0  0  0  0
  -19.5674   10.0207  -16.7553 C   0  0  0  0  0  0  0  0  0  0  0  0
  -18.9806    9.0492  -17.3844 O   0  0  0  0  0  0  0  0  0  0  0  0
  -19.8765   12.1156  -16.9293 H   0  0  0  0  0  0  0  0  0  0  0  0
  -20.2989    9.5658  -15.5483 C   0  0  0  0  0  0  0  0  0  0  0  0
  -21.3918    8.5461  -15.8211 C   0  0  0  0  0  0  0  0  0  0  0  0
  -21.8375    9.9198  -15.6069 C   0  0  0  0  0  0  0  0  0  0  0  0
  -19.7588    9.6101  -14.1891 C   0  0  0  0  0  0  0  0  0  0  0  0
  -18.9499   10.6260  -13.9838 O   0  0  0  0  0  0  0  0  0  0  0  0
  -19.9253    8.8071  -13.0673 N   0  0  0  0  0  0  0  0  0  0  0  0
  -20.5425    7.9795  -13.0289 H   0  0  0  0  0  0  0  0  0  0  0  0
  -19.2338    9.1174  -11.8158 C   0  0  0  0  0  0  0  0  0  0  0  0
  -18.3119    8.2729  -11.4123 C   0  0  0  0  0  0  0  0  0  0  0  0
  -17.5079    8.3959  -10.2000 C   0  0  0  0  0  0  0  0  0  0  0  0
  -17.8163    9.5659   -9.3498 C   0  0  0  0  0  0  0  0  0  0  0  0
  -16.6509   10.3575   -9.1849 F   0  0  0  0  0  0  0  0  0  0  0  0
  -18.8569   10.4436   -9.8890 C   0  0  0  0  0  0  0  0  0  0  0  0
  -19.5203   10.2620  -11.0127 C   0  0  0  0  0  0  0  0  0  0  0  0
  -16.3874   12.4683  -21.9181 O   0  0  0  0  0  0  0  0  0  0  0  0
  -16.8962   16.5300  -22.0305 C   0  0  0  0  0  0  0  0  0  0  0  0
  -16.7195   15.1748  -21.9763 C   0  0  0  0  0  0  0  0  0  0  0  0
  -17.1413   14.4056  -23.0393 C   0  0  0  0  0  0  0  0  0  0  0  0
  -16.9828   13.0029  -23.0272 C   0  0  0  0  0  0  0  0  0  0  0  0
  -17.4151   12.2533  -24.0958 C   0  0  0  0  0  0  0  0  0  0  0  0
  -18.0036   12.8496  -25.1893 C   0  0  0  0  0  0  0  0  0  0  0  0
  -18.1521   14.1837  -25.1983 N   0  0  0  0  0  0  0  0  0  0  0  0
  -17.7328   14.9470  -24.1512 C   0  0  0  0  0  0  0  0  0  0  0  0
  -17.9095   16.3214  -24.2008 C   0  0  0  0  0  0  0  0  0  0  0  0
  -17.4982   17.1148  -23.1570 C   0  0  0  0  0  0  0  0  0  0  0  0
  -17.2228   17.4078  -19.8063 C   0  0  0  0  0  0  0  0  0  0  0  0
  -16.5128   17.3949  -21.0236 O   0  0  0  0  0  0  0  0  0  0  0  0
  -17.6592   18.4611  -23.1990 O   0  0  0  0  0  0  0  0  0  0  0  0
  -18.8620   19.1204  -23.3613 C   0  0  0  0  0  0  0  0  0  0  0  0
  -19.7727   18.9754  -22.1502 C   0  0  0  0  0  0  0  0  0  0  0  0
  -21.0049   19.8640  -22.3672 C   0  0  0  0  0  0  0  0  0  0  0  0
  -22.1717   19.0175  -22.3554 N   0  0  0  0  0  0  0  0  0  0  0  0
  -22.5230   18.6285  -23.7412 C   0  0  0  0  0  0  0  0  0  0  0  0
  -23.6801   17.6395  -23.5727 C   0  0  0  0  0  0  0  0  0  0  0  0
  -24.2631   17.7210  -22.3082 O   0  0  0  0  0  0  0  0  0  0  0  0
  -23.3850   17.2851  -21.2962 C   0  0  0  0  0  0  0  0  0  0  0  0
  -21.9666   17.7618  -21.6356 C   0  0  0  0  0  0  0  0  0  0  0  0
 37 38  1  0  0  0
 38 27  1  0  0  0
 27 28  2  0  0  0
 28 29  1  0  0  0
 29 30  2  0  0  0
 30 26  1  0  0  0
 26  1  1  0  0  0
  1  2  2  0  0  0
  2  3  1  0  0  0
  3  4  2  0  0  0
  4  8  1  0  0  0
  8  9  1  0  0  0
  9 10  2  0  0  0
  9 12  1  0  0  0
 12 13  1  0  0  0
 13 14  1  0  0  0
 12 15  1  0  0  0
 15 16  2  0  0  0
 15 17  1  0  0  0
 17 19  1  0  0  0
 19 20  2  0  0  0
 20 21  1  0  0  0
 21 22  1  0  0  0
 22 23  1  0  0  0
 22 24  1  0  0  0
 24 25  2  0  0  0
  4  5  1  0  0  0
  5  6  2  0  0  0
  6  7  1  0  0  0
 30 31  1  0  0  0
 31 32  2  0  0  0
 32 33  1  0  0  0
 33 34  2  0  0  0
 34 35  1  0  0  0
 35 36  2  0  0  0
 36 39  1  0  0  0
 39 40  1  0  0  0
 40 41  1  0  0  0
 41 42  1  0  0  0
 42 43  1  0  0  0
 43 44  1  0  0  0
 44 45  1  0  0  0
 45 46  1  0  0  0
 46 47  1  0  0  0
 47 48  1  0  0  0
 36 27  1  0  0  0
 48 43  1  0  0  0
 34 29  1  0  0  0
  6  1  1  0  0  0
 14 12  1  0  0  0
 25 19  1  0  0  0
  8 11  1  0  0  0
 17 18  1  0  0  0
M  END
> <minimizedAffinity>
-9.17642

> <CNNscore>
0.1226032823

> <CNNaffinity>
6.6815171242

> <CNN_VS>
0.8191759586

> <CNNaffinity_variance>
0.4644264281

$$$$
[H]C1=C([H])C([H])(F)C([H])([H])C([H])=C1N([H])C(=O)C1(C(=O)N([H])c2c([H])c([H])c(Oc3c([H])c([H])nc4c([H])c(OC([H])([H])C([H])([H])C([H])([H])N5C([H])([H])C([H])([H])OC([H])([H])C5([H])[H])c(OC([H])([H])[H])c([H])c34)c(F)c2[H])C([H])([H])C1([H])[H]


 48 53  0  0  0  0  0  0  0  0999 V2000
  -17.1357   12.4746  -20.5510 C   0  0  0  0  0  0  0  0  0  0  0  0
  -18.3169   12.9703  -20.0168 C   0  0  0  0  0  0  0  0  0  0  0  0
  -19.0508   12.3474  -19.0516 C   0  0  0  0  0  0  0  0  0  0  0  0
  -18.6051   11.1206  -18.5466 C   0  0  0  0  0  0  0  0  0  0  0  0
  -17.4436   10.5964  -19.0453 C   0  0  0  0  0  0  0  0  0  0  0  0
  -16.7081   11.2615  -20.0399 C   0  0  0  0  0  0  0  0  0  0  0  0
  -15.5558   10.6916  -20.4628 F   0  0  0  0  0  0  0  0  0  0  0  0
  -19.3665   10.4945  -17.4969 N   0  0  0  0  0  0  0  0  0  0  0  0
  -19.7737   11.1634  -16.3654 C   0  0  0  0  0  0  0  0  0  0  0  0
  -19.3994   12.4025  -16.2724 O   0  0  0  0  0  0  0  0  0  0  0  0
  -19.5549    9.4938  -17.6611 H   0  0  0  0  0  0  0  0  0  0  0  0
  -20.5780   10.7166  -15.2025 C   0  0  0  0  0  0  0  0  0  0  0  0
  -21.8908   10.0435  -15.5659 C   0  0  0  0  0  0  0  0  0  0  0  0
  -21.9838   11.4340  -15.1307 C   0  0  0  0  0  0  0  0  0  0  0  0
  -20.0253   10.4199  -13.8805 C   0  0  0  0  0  0  0  0  0  0  0  0
  -19.1048   11.2768  -13.4973 O   0  0  0  0  0  0  0  0  0  0  0  0
  -20.2725    9.4255  -12.9420 N   0  0  0  0  0  0  0  0  0  0  0  0
  -20.9792    8.6802  -13.0542 H   0  0  0  0  0  0  0  0  0  0  0  0
  -19.5401    9.3930  -11.6757 C   0  0  0  0  0  0  0  0  0  0  0  0
  -18.5481    8.5376  -11.5761 C   0  0  0  0  0  0  0  0  0  0  0  0
  -17.6937    8.3474  -10.4077 C   0  0  0  0  0  0  0  0  0  0  0  0
  -18.0321    9.1784   -9.2321 C   0  0  0  0  0  0  0  0  0  0  0  0
  -16.9119    9.9679   -8.8664 F   0  0  0  0  0  0  0  0  0  0  0  0
  -19.1513   10.0974   -9.4473 C   0  0  0  0  0  0  0  0  0  0  0  0
  -19.8574   10.2156  -10.5533 C   0  0  0  0  0  0  0  0  0  0  0  0
  -16.4382   13.1558  -21.5242 O   0  0  0  0  0  0  0  0  0  0  0  0
  -17.3393   17.1091  -22.0971 C   0  0  0  0  0  0  0  0  0  0  0  0
  -17.0328   15.7925  -21.8890 C   0  0  0  0  0  0  0  0  0  0  0  0
  -17.3104   14.8793  -22.8833 C   0  0  0  0  0  0  0  0  0  0  0  0
  -17.0147   13.5095  -22.7129 C   0  0  0  0  0  0  0  0  0  0  0  0
  -17.3043   12.6142  -23.7154 C   0  0  0  0  0  0  0  0  0  0  0  0
  -17.8811   13.0313  -24.8948 C   0  0  0  0  0  0  0  0  0  0  0  0
  -18.1602   14.3345  -25.0543 N   0  0  0  0  0  0  0  0  0  0  0  0
  -17.8835   15.2399  -24.0753 C   0  0  0  0  0  0  0  0  0  0  0  0
  -18.1923   16.5760  -24.2808 C   0  0  0  0  0  0  0  0  0  0  0  0
  -17.9262   17.5100  -23.3087 C   0  0  0  0  0  0  0  0  0  0  0  0
  -17.8805   18.1635  -19.9948 C   0  0  0  0  0  0  0  0  0  0  0  0
  -17.1058   18.1071  -21.1706 O   0  0  0  0  0  0  0  0  0  0  0  0
  -18.2170   18.8208  -23.5029 O   0  0  0  0  0  0  0  0  0  0  0  0
  -19.4553   19.4038  -23.3171 C   0  0  0  0  0  0  0  0  0  0  0  0
  -19.4607   20.8838  -23.6735 C   0  0  0  0  0  0  0  0  0  0  0  0
  -20.7020   21.1665  -24.5303 C   0  0  0  0  0  0  0  0  0  0  0  0
  -20.2588   21.4842  -25.8648 N   0  0  0  0  0  0  0  0  0  0  0  0
  -21.4310   21.7158  -26.7407 C   0  0  0  0  0  0  0  0  0  0  0  0
  -20.8229   22.1669  -28.0719 C   0  0  0  0  0  0  0  0  0  0  0  0
  -19.4677   21.8505  -28.1663 O   0  0  0  0  0  0  0  0  0  0  0  0
  -18.6914   22.5880  -27.2505 C   0  0  0  0  0  0  0  0  0  0  0  0
  -19.4689   22.7124  -25.9335 C   0  0  0  0  0  0  0  0  0  0  0  0
 37 38  1  0  0  0
 38 27  1  0  0  0
 27 28  2  0  0  0
 28 29  1  0  0  0
 29 30  2  0  0  0
 30 26  1  0  0  0
 26  1  1  0  0  0
  1  2  2  0  0  0
  2  3  1  0  0  0
  3  4  2  0  0  0
  4  8  1  0  0  0
  8  9  1  0  0  0
  9 10  2  0  0  0
  9 12  1  0  0  0
 12 13  1  0  0  0
 13 14  1  0  0  0
 12 15  1  0  0  0
 15 16  2  0  0  0
 15 17  1  0  0  0
 17 19  1  0  0  0
 19 20  2  0  0  0
 20 21  1  0  0  0
 21 22  1  0  0  0
 22 23  1  0  0  0
 22 24  1  0  0  0
 24 25  2  0  0  0
  4  5  1  0  0  0
  5  6  2  0  0  0
  6  7  1  0  0  0
 30 31  1  0  0  0
 31 32  2  0  0  0
 32 33  1  0  0  0
 33 34  2  0  0  0
 34 35  1  0  0  0
 35 36  2  0  0  0
 36 39  1  0  0  0
 39 40  1  0  0  0
 40 41  1  0  0  0
 41 42  1  0  0  0
 42 43  1  0  0  0
 43 44  1  0  0  0
 44 45  1  0  0  0
 45 46  1  0  0  0
 46 47  1  0  0  0
 47 48  1  0  0  0
 36 27  1  0  0  0
 48 43  1  0  0  0
 34 29  1  0  0  0
  6  1  1  0  0  0
 14 12  1  0  0  0
 25 19  1  0  0  0
  8 11  1  0  0  0
 17 18  1  0  0  0
M  END
> <minimizedAffinity>
-8.96926

> <CNNscore>
0.1129111201

> <CNNaffinity>
6.3324460983

> <CNN_VS>
0.7150036097

> <CNNaffinity_variance>
0.4520103037

$$$$
[H]C1=C([H])C([H])(F)C([H])([H])C([H])=C1N([H])C(=O)C1(C(=O)N([H])c2c([H])c([H])c(Oc3c([H])c([H])nc4c([H])c(OC([H])([H])C([H])([H])C([H])([H])N5C([H])([H])C([H])([H])OC([H])([H])C5([H])[H])c(OC([H])([H])[H])c([H])c34)c(F)c2[H])C([H])([H])C1([H])[H]


 48 53  0  0  0  0  0  0  0  0999 V2000
  -19.9528   19.0644  -16.3212 C   0  0  0  0  0  0  0  0  0  0  0  0
  -19.5642   19.2477  -17.6410 C   0  0  0  0  0  0  0  0  0  0  0  0
  -18.9570   18.2980  -18.4076 C   0  0  0  0  0  0  0  0  0  0  0  0
  -18.6950   17.0416  -17.8497 C   0  0  0  0  0  0  0  0  0  0  0  0
  -19.0631   16.8182  -16.5508 C   0  0  0  0  0  0  0  0  0  0  0  0
  -19.6878   17.8162  -15.7850 C   0  0  0  0  0  0  0  0  0  0  0  0
  -20.0455   17.5098  -14.5163 F   0  0  0  0  0  0  0  0  0  0  0  0
  -18.0925   16.0338  -18.6834 N   0  0  0  0  0  0  0  0  0  0  0  0
  -18.8275   15.1395  -19.4276 C   0  0  0  0  0  0  0  0  0  0  0  0
  -20.1168   15.2281  -19.3109 O   0  0  0  0  0  0  0  0  0  0  0  0
  -17.0617   16.0293  -18.6499 H   0  0  0  0  0  0  0  0  0  0  0  0
  -18.4065   14.0646  -20.3582 C   0  0  0  0  0  0  0  0  0  0  0  0
  -19.2753   12.8188  -20.3159 C   0  0  0  0  0  0  0  0  0  0  0  0
  -18.0041   12.7367  -19.6026 C   0  0  0  0  0  0  0  0  0  0  0  0
  -17.6226   14.2843  -21.5741 C   0  0  0  0  0  0  0  0  0  0  0  0
  -16.9067   15.3864  -21.5392 O   0  0  0  0  0  0  0  0  0  0  0  0
  -17.4713   13.5701  -22.7564 N   0  0  0  0  0  0  0  0  0  0  0  0
  -17.9326   12.6673  -22.9556 H   0  0  0  0  0  0  0  0  0  0  0  0
  -16.5899   14.0578  -23.8176 C   0  0  0  0  0  0  0  0  0  0  0  0
  -17.1560   14.6450  -24.8475 C   0  0  0  0  0  0  0  0  0  0  0  0
  -16.4624   15.2009  -26.0056 C   0  0  0  0  0  0  0  0  0  0  0  0
  -14.9934   15.0307  -26.0075 C   0  0  0  0  0  0  0  0  0  0  0  0
  -14.3652   16.2999  -26.0878 F   0  0  0  0  0  0  0  0  0  0  0  0
  -14.4634   14.3657  -24.8157 C   0  0  0  0  0  0  0  0  0  0  0  0
  -15.1703   13.9114  -23.8009 C   0  0  0  0  0  0  0  0  0  0  0  0
  -20.5664   20.0653  -15.6006 O   0  0  0  0  0  0  0  0  0  0  0  0
  -22.0695   22.0058  -12.3227 C   0  0  0  0  0  0  0  0  0  0  0  0
  -21.5508   21.3602  -13.4113 C   0  0  0  0  0  0  0  0  0  0  0  0
  -22.4150   20.8117  -14.3341 C   0  0  0  0  0  0  0  0  0  0  0  0
  -21.9262   20.1336  -15.4717 C   0  0  0  0  0  0  0  0  0  0  0  0
  -22.8057   19.5892  -16.3777 C   0  0  0  0  0  0  0  0  0  0  0  0
  -24.1672   19.6949  -16.1969 C   0  0  0  0  0  0  0  0  0  0  0  0
  -24.6290   20.3411  -15.1148 N   0  0  0  0  0  0  0  0  0  0  0  0
  -23.7776   20.8876  -14.2031 C   0  0  0  0  0  0  0  0  0  0  0  0
  -24.2980   21.5430  -13.0975 C   0  0  0  0  0  0  0  0  0  0  0  0
  -23.4616   22.1011  -12.1609 C   0  0  0  0  0  0  0  0  0  0  0  0
  -20.5760   23.7670  -11.6216 C   0  0  0  0  0  0  0  0  0  0  0  0
  -21.2975   22.5904  -11.3372 O   0  0  0  0  0  0  0  0  0  0  0  0
  -23.9605   22.7515  -11.0799 O   0  0  0  0  0  0  0  0  0  0  0  0
  -24.9509   22.2746  -10.2436 C   0  0  0  0  0  0  0  0  0  0  0  0
  -24.4183   21.2850   -9.2167 C   0  0  0  0  0  0  0  0  0  0  0  0
  -25.0918   19.9284   -9.4633 C   0  0  0  0  0  0  0  0  0  0  0  0
  -24.0552   18.9459   -9.6588 N   0  0  0  0  0  0  0  0  0  0  0  0
  -24.4604   17.6604   -9.0438 C   0  0  0  0  0  0  0  0  0  0  0  0
  -23.3445   16.6873   -9.4356 C   0  0  0  0  0  0  0  0  0  0  0  0
  -22.1926   17.3498   -9.8599 O   0  0  0  0  0  0  0  0  0  0  0  0
  -22.3969   18.0313  -11.0761 C   0  0  0  0  0  0  0  0  0  0  0  0
  -23.8032   18.6449  -11.0669 C   0  0  0  0  0  0  0  0  0  0  0  0
 37 38  1  0  0  0
 38 27  1  0  0  0
 27 28  2  0  0  0
 28 29  1  0  0  0
 29 30  2  0  0  0
 30 26  1  0  0  0
 26  1  1  0  0  0
  1  2  2  0  0  0
  2  3  1  0  0  0
  3  4  2  0  0  0
  4  8  1  0  0  0
  8  9  1  0  0  0
  9 10  2  0  0  0
  9 12  1  0  0  0
 12 13  1  0  0  0
 13 14  1  0  0  0
 12 15  1  0  0  0
 15 16  2  0  0  0
 15 17  1  0  0  0
 17 19  1  0  0  0
 19 20  2  0  0  0
 20 21  1  0  0  0
 21 22  1  0  0  0
 22 23  1  0  0  0
 22 24  1  0  0  0
 24 25  2  0  0  0
  4  5  1  0  0  0
  5  6  2  0  0  0
  6  7  1  0  0  0
 30 31  1  0  0  0
 31 32  2  0  0  0
 32 33  1  0  0  0
 33 34  2  0  0  0
 34 35  1  0  0  0
 35 36  2  0  0  0
 36 39  1  0  0  0
 39 40  1  0  0  0
 40 41  1  0  0  0
 41 42  1  0  0  0
 42 43  1  0  0  0
 43 44  1  0  0  0
 44 45  1  0  0  0
 45 46  1  0  0  0
 46 47  1  0  0  0
 47 48  1  0  0  0
 36 27  1  0  0  0
 48 43  1  0  0  0
 34 29  1  0  0  0
  6  1  1  0  0  0
 14 12  1  0  0  0
 25 19  1  0  0  0
  8 11  1  0  0  0
 17 18  1  0  0  0
M  END
> <minimizedAffinity>
-6.58901

> <CNNscore>
0.0819741488

> <CNNaffinity>
6.2238397598

> <CNN_VS>
0.5101939440

> <CNNaffinity_variance>
0.1935434043

$$$$
[H]C1=C([H])C([H])(F)C([H])([H])C([H])=C1N([H])C(=O)C1(C(=O)N([H])c2c([H])c([H])c(Oc3c([H])c([H])nc4c([H])c(OC([H])([H])C([H])([H])C([H])([H])N5C([H])([H])C([H])([H])OC([H])([H])C5([H])[H])c(OC([H])([H])[H])c([H])c34)c(F)c2[H])C([H])([H])C1([H])[H]


 48 53  0  0  0  0  0  0  0  0999 V2000
  -19.0912   15.7245  -19.5571 C   0  0  0  0  0  0  0  0  0  0  0  0
  -20.4656   15.7768  -19.7435 C   0  0  0  0  0  0  0  0  0  0  0  0
  -21.0875   16.5054  -20.7133 C   0  0  0  0  0  0  0  0  0  0  0  0
  -20.3098   17.2633  -21.5960 C   0  0  0  0  0  0  0  0  0  0  0  0
  -18.9496   17.2392  -21.4479 C   0  0  0  0  0  0  0  0  0  0  0  0
  -18.3365   16.4784  -20.4390 C   0  0  0  0  0  0  0  0  0  0  0  0
  -16.9848   16.4854  -20.3739 F   0  0  0  0  0  0  0  0  0  0  0  0
  -20.9767   17.9939  -22.6426 N   0  0  0  0  0  0  0  0  0  0  0  0
  -21.4388   19.2800  -22.4812 C   0  0  0  0  0  0  0  0  0  0  0  0
  -21.2722   19.7998  -21.3040 O   0  0  0  0  0  0  0  0  0  0  0  0
  -21.0976   17.4543  -23.5132 H   0  0  0  0  0  0  0  0  0  0  0  0
  -22.1120   20.2021  -23.4274 C   0  0  0  0  0  0  0  0  0  0  0  0
  -22.0907   19.7443  -24.8760 C   0  0  0  0  0  0  0  0  0  0  0  0
  -21.1222   20.7760  -24.5168 C   0  0  0  0  0  0  0  0  0  0  0  0
  -23.1545   21.1571  -23.0499 C   0  0  0  0  0  0  0  0  0  0  0  0
  -24.2861   20.9729  -23.6932 O   0  0  0  0  0  0  0  0  0  0  0  0
  -23.2019   22.2149  -22.1500 N   0  0  0  0  0  0  0  0  0  0  0  0
  -22.4191   22.4940  -21.5363 H   0  0  0  0  0  0  0  0  0  0  0  0
  -24.4219   23.0065  -21.9894 C   0  0  0  0  0  0  0  0  0  0  0  0
  -24.5953   24.0179  -22.8097 C   0  0  0  0  0  0  0  0  0  0  0  0
  -25.7372   24.9273  -22.8204 C   0  0  0  0  0  0  0  0  0  0  0  0
  -26.7505   24.6861  -21.7705 C   0  0  0  0  0  0  0  0  0  0  0  0
  -28.0138   24.4498  -22.3706 F   0  0  0  0  0  0  0  0  0  0  0  0
  -26.4636   23.5364  -20.9106 C   0  0  0  0  0  0  0  0  0  0  0  0
  -25.4075   22.7526  -20.9888 C   0  0  0  0  0  0  0  0  0  0  0  0
  -18.5235   14.9646  -18.5581 O   0  0  0  0  0  0  0  0  0  0  0  0
  -20.7507   12.6558  -16.0130 C   0  0  0  0  0  0  0  0  0  0  0  0
  -20.0130   13.4417  -16.8549 C   0  0  0  0  0  0  0  0  0  0  0  0
  -19.1852   12.8366  -17.7757 C   0  0  0  0  0  0  0  0  0  0  0  0
  -18.4027   13.6064  -18.6633 C   0  0  0  0  0  0  0  0  0  0  0  0
  -17.5795   12.9828  -19.5712 C   0  0  0  0  0  0  0  0  0  0  0  0
  -17.5037   11.6088  -19.6338 C   0  0  0  0  0  0  0  0  0  0  0  0
  -18.2497   10.8795  -18.7892 N   0  0  0  0  0  0  0  0  0  0  0  0
  -19.0717   11.4744  -17.8808 C   0  0  0  0  0  0  0  0  0  0  0  0
  -19.8217   10.6824  -17.0247 C   0  0  0  0  0  0  0  0  0  0  0  0
  -20.6570   11.2567  -16.0968 C   0  0  0  0  0  0  0  0  0  0  0  0
  -22.3946   14.2899  -15.3410 C   0  0  0  0  0  0  0  0  0  0  0  0
  -21.6103   13.1549  -15.0534 O   0  0  0  0  0  0  0  0  0  0  0  0
  -21.4010   10.4909  -15.2600 O   0  0  0  0  0  0  0  0  0  0  0  0
  -22.6865   10.0498  -15.5065 C   0  0  0  0  0  0  0  0  0  0  0  0
  -22.8924    8.5987  -15.0947 C   0  0  0  0  0  0  0  0  0  0  0  0
  -21.7798    8.2171  -14.1091 C   0  0  0  0  0  0  0  0  0  0  0  0
  -21.4653    6.8248  -14.3102 N   0  0  0  0  0  0  0  0  0  0  0  0
  -22.1928    6.3124  -15.4948 C   0  0  0  0  0  0  0  0  0  0  0  0
  -21.6715    4.8828  -15.6674 C   0  0  0  0  0  0  0  0  0  0  0  0
  -21.0407    4.4094  -14.5170 O   0  0  0  0  0  0  0  0  0  0  0  0
  -19.8438    5.1036  -14.2512 C   0  0  0  0  0  0  0  0  0  0  0  0
  -20.0496    6.5868  -14.5861 C   0  0  0  0  0  0  0  0  0  0  0  0
 37 38  1  0  0  0
 38 27  1  0  0  0
 27 28  2  0  0  0
 28 29  1  0  0  0
 29 30  2  0  0  0
 30 26  1  0  0  0
 26  1  1  0  0  0
  1  2  2  0  0  0
  2  3  1  0  0  0
  3  4  2  0  0  0
  4  8  1  0  0  0
  8  9  1  0  0  0
  9 10  2  0  0  0
  9 12  1  0  0  0
 12 13  1  0  0  0
 13 14  1  0  0  0
 12 15  1  0  0  0
 15 16  2  0  0  0
 15 17  1  0  0  0
 17 19  1  0  0  0
 19 20  2  0  0  0
 20 21  1  0  0  0
 21 22  1  0  0  0
 22 23  1  0  0  0
 22 24  1  0  0  0
 24 25  2  0  0  0
  4  5  1  0  0  0
  5  6  2  0  0  0
  6  7  1  0  0  0
 30 31  1  0  0  0
 31 32  2  0  0  0
 32 33  1  0  0  0
 33 34  2  0  0  0
 34 35  1  0  0  0
 35 36  2  0  0  0
 36 39  1  0  0  0
 39 40  1  0  0  0
 40 41  1  0  0  0
 41 42  1  0  0  0
 42 43  1  0  0  0
 43 44  1  0  0  0
 44 45  1  0  0  0
 45 46  1  0  0  0
 46 47  1  0  0  0
 47 48  1  0  0  0
 36 27  1  0  0  0
 48 43  1  0  0  0
 34 29  1  0  0  0
  6  1  1  0  0  0
 14 12  1  0  0  0
 25 19  1  0  0  0
  8 11  1  0  0  0
 17 18  1  0  0  0
M  END
> <minimizedAffinity>
-6.79777

> <CNNscore>
0.0588369705

> <CNNaffinity>
6.1793718338

> <CNN_VS>
0.3635755181

> <CNNaffinity_variance>
0.1782010794

$$$$
[H]c1nc(N([H])C([H])([H])C([H])([H])C([H])([H])N2C([H])([H])C([H])([H])N(C([H])([H])[H])C([H])([H])C2([H])[H])nc(-n2c(N([H])c3c([H])c(C(=O)N([H])c4c([H])c([H])c([H])c(C(F)(F)F)c4[H])c([H])c([H])c3C([H])([H])[H])nc3c([H])c([H])c([H])c([H])c32)n1


 50 55  0  0  0  0  0  0  0  0999 V2000
  -17.4687   13.3249  -21.7460 N   0  0  0  0  0  0  0  0  0  0  0  0
  -17.9806   14.3975  -21.2200 C   0  0  0  0  0  0  0  0  0  0  0  0
  -18.2148   15.3394  -22.1856 N   0  0  0  0  0  0  0  0  0  0  0  0
  -17.8367   14.8446  -23.3643 C   0  0  0  0  0  0  0  0  0  0  0  0
  -17.8498   15.3375  -24.6666 C   0  0  0  0  0  0  0  0  0  0  0  0
  -17.3837   14.5347  -25.6702 C   0  0  0  0  0  0  0  0  0  0  0  0
  -16.9017   13.2523  -25.4252 C   0  0  0  0  0  0  0  0  0  0  0  0
  -16.8986   12.7907  -24.1346 C   0  0  0  0  0  0  0  0  0  0  0  0
  -17.3607   13.5697  -23.1001 C   0  0  0  0  0  0  0  0  0  0  0  0
  -17.0079   10.3586  -19.5875 C   0  0  0  0  0  0  0  0  0  0  0  0
  -15.9705    9.8412  -20.2492 N   0  0  0  0  0  0  0  0  0  0  0  0
  -15.4474   10.3613  -21.3692 C   0  0  0  0  0  0  0  0  0  0  0  0
  -16.0211   11.4749  -21.8348 N   0  0  0  0  0  0  0  0  0  0  0  0
  -17.0919   12.0742  -21.2115 C   0  0  0  0  0  0  0  0  0  0  0  0
  -17.5545   11.4962  -20.1089 N   0  0  0  0  0  0  0  0  0  0  0  0
  -17.3762    9.8048  -18.3432 N   0  0  0  0  0  0  0  0  0  0  0  0
  -16.6782    9.2240  -17.7832 H   0  0  0  0  0  0  0  0  0  0  0  0
  -18.6563    9.9761  -17.7708 C   0  0  0  0  0  0  0  0  0  0  0  0
  -19.0539    9.0181  -16.7187 C   0  0  0  0  0  0  0  0  0  0  0  0
  -19.8044    9.7478  -15.6068 C   0  0  0  0  0  0  0  0  0  0  0  0
  -22.6746   12.9830  -13.1243 C   0  0  0  0  0  0  0  0  0  0  0  0
  -22.7145   12.3552  -14.4391 N   0  0  0  0  0  0  0  0  0  0  0  0
  -21.6259   12.8813  -15.2741 C   0  0  0  0  0  0  0  0  0  0  0  0
  -20.4613   11.9277  -15.2415 C   0  0  0  0  0  0  0  0  0  0  0  0
  -20.7331   10.7251  -16.0275 N   0  0  0  0  0  0  0  0  0  0  0  0
  -22.1180   10.3591  -15.6949 C   0  0  0  0  0  0  0  0  0  0  0  0
  -22.5647   10.8982  -14.3644 C   0  0  0  0  0  0  0  0  0  0  0  0
  -18.2067   14.6851  -19.8523 N   0  0  0  0  0  0  0  0  0  0  0  0
  -17.6254   14.1803  -19.1021 H   0  0  0  0  0  0  0  0  0  0  0  0
  -19.1687   15.6251  -19.3944 C   0  0  0  0  0  0  0  0  0  0  0  0
  -19.8795   16.4133  -20.2575 C   0  0  0  0  0  0  0  0  0  0  0  0
  -20.8648   17.2644  -19.8046 C   0  0  0  0  0  0  0  0  0  0  0  0
  -21.1776   17.3550  -18.4817 C   0  0  0  0  0  0  0  0  0  0  0  0
  -20.4611   16.5584  -17.6061 C   0  0  0  0  0  0  0  0  0  0  0  0
  -19.4612   15.6915  -18.0193 C   0  0  0  0  0  0  0  0  0  0  0  0
  -18.6960   14.8364  -17.0443 C   0  0  0  0  0  0  0  0  0  0  0  0
  -21.5862   18.0782  -20.8149 C   0  0  0  0  0  0  0  0  0  0  0  0
  -22.2942   19.0005  -20.3251 O   0  0  0  0  0  0  0  0  0  0  0  0
  -21.4377   17.7828  -22.1741 N   0  0  0  0  0  0  0  0  0  0  0  0
  -20.8058   16.9486  -22.4126 H   0  0  0  0  0  0  0  0  0  0  0  0
  -22.0008   18.4180  -23.2919 C   0  0  0  0  0  0  0  0  0  0  0  0
  -23.1027   17.8502  -23.9562 C   0  0  0  0  0  0  0  0  0  0  0  0
  -23.6555   18.4568  -25.0635 C   0  0  0  0  0  0  0  0  0  0  0  0
  -23.1713   19.6339  -25.5769 C   0  0  0  0  0  0  0  0  0  0  0  0
  -22.0988   20.1908  -24.9310 C   0  0  0  0  0  0  0  0  0  0  0  0
  -21.5329   19.5900  -23.8129 C   0  0  0  0  0  0  0  0  0  0  0  0
  -21.5653   21.4709  -25.4806 C   0  0  0  0  0  0  0  0  0  0  0  0
  -21.7568   21.4844  -26.8560 F   0  0  0  0  0  0  0  0  0  0  0  0
  -20.2042   21.5016  -25.2082 F   0  0  0  0  0  0  0  0  0  0  0  0
  -22.1569   22.5745  -24.9011 F   0  0  0  0  0  0  0  0  0  0  0  0
 21 22  1  0  0  0
 22 23  1  0  0  0
 23 24  1  0  0  0
 24 25  1  0  0  0
 25 20  1  0  0  0
 20 19  1  0  0  0
 19 18  1  0  0  0
 18 16  1  0  0  0
 16 10  1  0  0  0
 10 11  2  0  0  0
 11 12  1  0  0  0
 12 13  2  0  0  0
 13 14  1  0  0  0
 14 15  2  0  0  0
 14  1  1  0  0  0
  1  2  1  0  0  0
  2 28  1  0  0  0
 28 30  1  0  0  0
 30 31  2  0  0  0
 31 32  1  0  0  0
 32 33  2  0  0  0
 33 34  1  0  0  0
 34 35  2  0  0  0
 35 36  1  0  0  0
 32 37  1  0  0  0
 37 38  2  0  0  0
 37 39  1  0  0  0
 39 41  1  0  0  0
 41 42  2  0  0  0
 42 43  1  0  0  0
 43 44  2  0  0  0
 44 45  1  0  0  0
 45 46  2  0  0  0
 45 47  1  0  0  0
 47 48  1  0  0  0
 47 49  1  0  0  0
 47 50  1  0  0  0
  2  3  2  0  0  0
  3  4  1  0  0  0
  4  5  2  0  0  0
  5  6  1  0  0  0
  6  7  2  0  0  0
  7  8  1  0  0  0
  8  9  2  0  0  0
 25 26  1  0  0  0
 26 27  1  0  0  0
 27 22  1  0  0  0
 15 10  1  0  0  0
  9  1  1  0  0  0
 35 30  1  0  0  0
 46 41  1  0  0  0
  9  4  1  0  0  0
 16 17  1  0  0  0
 28 29  1  0  0  0
 39 40  1  0  0  0
M  END
> <minimizedAffinity>
-9.84561

> <CNNscore>
0.6710097790

> <CNNaffinity>
8.0038652420

> <CNN_VS>
5.3706717491

> <CNNaffinity_variance>
0.0806799978

$$$$
[H]c1nc(N([H])C([H])([H])C([H])([H])C([H])([H])N2C([H])([H])C([H])([H])N(C([H])([H])[H])C([H])([H])C2([H])[H])nc(-n2c(N([H])c3c([H])c(C(=O)N([H])c4c([H])c([H])c([H])c(C(F)(F)F)c4[H])c([H])c([H])c3C([H])([H])[H])nc3c([H])c([H])c([H])c([H])c32)n1


 50 55  0  0  0  0  0  0  0  0999 V2000
  -17.6850   13.2638  -21.7963 N   0  0  0  0  0  0  0  0  0  0  0  0
  -18.5370   14.1525  -21.3798 C   0  0  0  0  0  0  0  0  0  0  0  0
  -18.6917   15.1419  -22.3134 N   0  0  0  0  0  0  0  0  0  0  0  0
  -17.9089   14.8691  -23.3573 C   0  0  0  0  0  0  0  0  0  0  0  0
  -17.6686   15.5015  -24.5744 C   0  0  0  0  0  0  0  0  0  0  0  0
  -16.7859   14.9239  -25.4441 C   0  0  0  0  0  0  0  0  0  0  0  0
  -16.1289   13.7337  -25.1461 C   0  0  0  0  0  0  0  0  0  0  0  0
  -16.3820   13.1313  -23.9411 C   0  0  0  0  0  0  0  0  0  0  0  0
  -17.2644   13.6828  -23.0424 C   0  0  0  0  0  0  0  0  0  0  0  0
  -16.9837   10.3692  -19.6053 C   0  0  0  0  0  0  0  0  0  0  0  0
  -15.9223    9.9166  -20.2763 N   0  0  0  0  0  0  0  0  0  0  0  0
  -15.4539   10.4558  -21.4114 C   0  0  0  0  0  0  0  0  0  0  0  0
  -16.1118   11.5193  -21.8829 N   0  0  0  0  0  0  0  0  0  0  0  0
  -17.2128   12.0507  -21.2509 C   0  0  0  0  0  0  0  0  0  0  0  0
  -17.6170   11.4577  -20.1335 N   0  0  0  0  0  0  0  0  0  0  0  0
  -17.2935    9.8091  -18.3480 N   0  0  0  0  0  0  0  0  0  0  0  0
  -16.5673    9.2324  -17.8205 H   0  0  0  0  0  0  0  0  0  0  0  0
  -18.5489    9.9686  -17.7203 C   0  0  0  0  0  0  0  0  0  0  0  0
  -18.8532    9.0660  -16.5909 C   0  0  0  0  0  0  0  0  0  0  0  0
  -20.1872    9.4557  -15.9579 C   0  0  0  0  0  0  0  0  0  0  0  0
  -23.4328   12.0575  -13.2077 C   0  0  0  0  0  0  0  0  0  0  0  0
  -21.9830   11.9122  -13.2428 N   0  0  0  0  0  0  0  0  0  0  0  0
  -21.6078   10.5638  -12.7954 C   0  0  0  0  0  0  0  0  0  0  0  0
  -21.3738    9.6832  -13.9940 C   0  0  0  0  0  0  0  0  0  0  0  0
  -20.1160   10.0134  -14.6623 N   0  0  0  0  0  0  0  0  0  0  0  0
  -20.0743   11.4831  -14.6886 C   0  0  0  0  0  0  0  0  0  0  0  0
  -21.4367   12.1113  -14.5893 C   0  0  0  0  0  0  0  0  0  0  0  0
  -19.1851   14.2292  -20.1233 N   0  0  0  0  0  0  0  0  0  0  0  0
  -19.7135   13.3720  -19.7471 H   0  0  0  0  0  0  0  0  0  0  0  0
  -19.1766   15.3893  -19.3031 C   0  0  0  0  0  0  0  0  0  0  0  0
  -19.6172   16.6018  -19.7583 C   0  0  0  0  0  0  0  0  0  0  0  0
  -19.6765   17.7005  -18.9279 C   0  0  0  0  0  0  0  0  0  0  0  0
  -19.3052   17.6274  -17.6191 C   0  0  0  0  0  0  0  0  0  0  0  0
  -18.8599   16.4021  -17.1553 C   0  0  0  0  0  0  0  0  0  0  0  0
  -18.7821   15.2738  -17.9571 C   0  0  0  0  0  0  0  0  0  0  0  0
  -18.2925   13.9524  -17.4264 C   0  0  0  0  0  0  0  0  0  0  0  0
  -20.1718   18.9736  -19.5087 C   0  0  0  0  0  0  0  0  0  0  0  0
  -20.9562   19.6139  -18.7560 O   0  0  0  0  0  0  0  0  0  0  0  0
  -19.7541   19.3585  -20.7870 N   0  0  0  0  0  0  0  0  0  0  0  0
  -19.0942   18.6815  -21.2951 H   0  0  0  0  0  0  0  0  0  0  0  0
  -20.0741   20.5116  -21.5207 C   0  0  0  0  0  0  0  0  0  0  0  0
  -19.1887   21.6037  -21.5567 C   0  0  0  0  0  0  0  0  0  0  0  0
  -19.4980   22.7470  -22.2616 C   0  0  0  0  0  0  0  0  0  0  0  0
  -20.6709   22.8865  -22.9604 C   0  0  0  0  0  0  0  0  0  0  0  0
  -21.5350   21.8236  -22.9288 C   0  0  0  0  0  0  0  0  0  0  0  0
  -21.2348   20.6648  -22.2230 C   0  0  0  0  0  0  0  0  0  0  0  0
  -22.8126   21.9648  -23.6859 C   0  0  0  0  0  0  0  0  0  0  0  0
  -23.7631   21.1214  -23.1258 F   0  0  0  0  0  0  0  0  0  0  0  0
  -22.5637   21.5687  -24.9932 F   0  0  0  0  0  0  0  0  0  0  0  0
  -23.2710   23.2662  -23.6983 F   0  0  0  0  0  0  0  0  0  0  0  0
 21 22  1  0  0  0
 22 23  1  0  0  0
 23 24  1  0  0  0
 24 25  1  0  0  0
 25 20  1  0  0  0
 20 19  1  0  0  0
 19 18  1  0  0  0
 18 16  1  0  0  0
 16 10  1  0  0  0
 10 11  2  0  0  0
 11 12  1  0  0  0
 12 13  2  0  0  0
 13 14  1  0  0  0
 14 15  2  0  0  0
 14  1  1  0  0  0
  1  2  1  0  0  0
  2 28  1  0  0  0
 28 30  1  0  0  0
 30 31  2  0  0  0
 31 32  1  0  0  0
 32 33  2  0  0  0
 33 34  1  0  0  0
 34 35  2  0  0  0
 35 36  1  0  0  0
 32 37  1  0  0  0
 37 38  2  0  0  0
 37 39  1  0  0  0
 39 41  1  0  0  0
 41 42  2  0  0  0
 42 43  1  0  0  0
 43 44  2  0  0  0
 44 45  1  0  0  0
 45 46  2  0  0  0
 45 47  1  0  0  0
 47 48  1  0  0  0
 47 49  1  0  0  0
 47 50  1  0  0  0
  2  3  2  0  0  0
  3  4  1  0  0  0
  4  5  2  0  0  0
  5  6  1  0  0  0
  6  7  2  0  0  0
  7  8  1  0  0  0
  8  9  2  0  0  0
 25 26  1  0  0  0
 26 27  1  0  0  0
 27 22  1  0  0  0
 15 10  1  0  0  0
  9  1  1  0  0  0
 35 30  1  0  0  0
 46 41  1  0  0  0
  9  4  1  0  0  0
 16 17  1  0  0  0
 28 29  1  0  0  0
 39 40  1  0  0  0
M  END
> <minimizedAffinity>
-8.99983

> <CNNscore>
0.4743827581

> <CNNaffinity>
7.8229432106

> <CNN_VS>
3.7110693455

> <CNNaffinity_variance>
0.1284132004

$$$$
[H]c1nc(N([H])C([H])([H])C([H])([H])C([H])([H])N2C([H])([H])C([H])([H])N(C([H])([H])[H])C([H])([H])C2([H])[H])nc(-n2c(N([H])c3c([H])c(C(=O)N([H])c4c([H])c([H])c([H])c(C(F)(F)F)c4[H])c([H])c([H])c3C([H])([H])[H])nc3c([H])c([H])c([H])c([H])c32)n1


 50 55  0  0  0  0  0  0  0  0999 V2000
  -17.9803   13.0528  -21.0673 N   0  0  0  0  0  0  0  0  0  0  0  0
  -17.5013   12.6053  -22.1896 C   0  0  0  0  0  0  0  0  0  0  0  0
  -16.9377   11.3705  -22.0110 N   0  0  0  0  0  0  0  0  0  0  0  0
  -17.0643   11.0254  -20.7297 C   0  0  0  0  0  0  0  0  0  0  0  0
  -16.6964    9.9032  -19.9918 C   0  0  0  0  0  0  0  0  0  0  0  0
  -16.9997    9.8733  -18.6591 C   0  0  0  0  0  0  0  0  0  0  0  0
  -17.6588   10.9248  -18.0290 C   0  0  0  0  0  0  0  0  0  0  0  0
  -18.0094   12.0185  -18.7771 C   0  0  0  0  0  0  0  0  0  0  0  0
  -17.7217   12.0828  -20.1201 C   0  0  0  0  0  0  0  0  0  0  0  0
  -18.9423   16.4131  -19.8617 C   0  0  0  0  0  0  0  0  0  0  0  0
  -20.2571   16.1902  -19.8045 N   0  0  0  0  0  0  0  0  0  0  0  0
  -20.8511   15.0466  -20.1761 C   0  0  0  0  0  0  0  0  0  0  0  0
  -20.0500   14.0782  -20.6307 N   0  0  0  0  0  0  0  0  0  0  0  0
  -18.6844   14.2253  -20.7187 C   0  0  0  0  0  0  0  0  0  0  0  0
  -18.1727   15.3890  -20.3346 N   0  0  0  0  0  0  0  0  0  0  0  0
  -18.4208   17.6013  -19.3076 N   0  0  0  0  0  0  0  0  0  0  0  0
  -18.6384   17.8665  -18.2974 H   0  0  0  0  0  0  0  0  0  0  0  0
  -17.5996   18.4945  -20.0309 C   0  0  0  0  0  0  0  0  0  0  0  0
  -18.2790   19.5625  -20.7928 C   0  0  0  0  0  0  0  0  0  0  0  0
  -19.2795   20.2868  -19.8948 C   0  0  0  0  0  0  0  0  0  0  0  0
  -20.2316   24.4738  -22.4305 C   0  0  0  0  0  0  0  0  0  0  0  0
  -21.0293   23.5003  -21.6954 N   0  0  0  0  0  0  0  0  0  0  0  0
  -21.0459   22.2225  -22.4207 C   0  0  0  0  0  0  0  0  0  0  0  0
  -20.0138   21.2972  -21.8330 C   0  0  0  0  0  0  0  0  0  0  0  0
  -20.4390   20.7784  -20.5337 N   0  0  0  0  0  0  0  0  0  0  0  0
  -21.0146   21.9359  -19.8327 C   0  0  0  0  0  0  0  0  0  0  0  0
  -20.5014   23.2509  -20.3500 C   0  0  0  0  0  0  0  0  0  0  0  0
  -17.4331   13.2627  -23.4417 N   0  0  0  0  0  0  0  0  0  0  0  0
  -17.6111   12.7046  -24.3430 H   0  0  0  0  0  0  0  0  0  0  0  0
  -17.1459   14.6463  -23.5893 C   0  0  0  0  0  0  0  0  0  0  0  0
  -18.1302   15.5963  -23.5748 C   0  0  0  0  0  0  0  0  0  0  0  0
  -17.8302   16.9401  -23.6405 C   0  0  0  0  0  0  0  0  0  0  0  0
  -16.5436   17.3817  -23.7173 C   0  0  0  0  0  0  0  0  0  0  0  0
  -15.5455   16.4233  -23.7312 C   0  0  0  0  0  0  0  0  0  0  0  0
  -15.8039   15.0627  -23.6698 C   0  0  0  0  0  0  0  0  0  0  0  0
  -14.6980   14.0408  -23.6878 C   0  0  0  0  0  0  0  0  0  0  0  0
  -18.9636   17.8983  -23.6145 C   0  0  0  0  0  0  0  0  0  0  0  0
  -18.6659   19.0608  -24.0042 O   0  0  0  0  0  0  0  0  0  0  0  0
  -20.2226   17.4678  -23.1829 N   0  0  0  0  0  0  0  0  0  0  0  0
  -20.2927   16.4436  -22.8696 H   0  0  0  0  0  0  0  0  0  0  0  0
  -21.4270   18.1827  -23.0916 C   0  0  0  0  0  0  0  0  0  0  0  0
  -22.0917   18.3073  -21.8584 C   0  0  0  0  0  0  0  0  0  0  0  0
  -23.2822   18.9945  -21.7586 C   0  0  0  0  0  0  0  0  0  0  0  0
  -23.8819   19.5897  -22.8400 C   0  0  0  0  0  0  0  0  0  0  0  0
  -23.2360   19.4717  -24.0427 C   0  0  0  0  0  0  0  0  0  0  0  0
  -22.0345   18.7827  -24.1569 C   0  0  0  0  0  0  0  0  0  0  0  0
  -23.8791   20.1159  -25.2246 C   0  0  0  0  0  0  0  0  0  0  0  0
  -24.9431   20.8948  -24.7890 F   0  0  0  0  0  0  0  0  0  0  0  0
  -24.3602   19.0989  -26.0382 F   0  0  0  0  0  0  0  0  0  0  0  0
  -22.9890   20.8796  -25.9516 F   0  0  0  0  0  0  0  0  0  0  0  0
 21 22  1  0  0  0
 22 23  1  0  0  0
 23 24  1  0  0  0
 24 25  1  0  0  0
 25 20  1  0  0  0
 20 19  1  0  0  0
 19 18  1  0  0  0
 18 16  1  0  0  0
 16 10  1  0  0  0
 10 11  2  0  0  0
 11 12  1  0  0  0
 12 13  2  0  0  0
 13 14  1  0  0  0
 14 15  2  0  0  0
 14  1  1  0  0  0
  1  2  1  0  0  0
  2 28  1  0  0  0
 28 30  1  0  0  0
 30 31  2  0  0  0
 31 32  1  0  0  0
 32 33  2  0  0  0
 33 34  1  0  0  0
 34 35  2  0  0  0
 35 36  1  0  0  0
 32 37  1  0  0  0
 37 38  2  0  0  0
 37 39  1  0  0  0
 39 41  1  0  0  0
 41 42  2  0  0  0
 42 43  1  0  0  0
 43 44  2  0  0  0
 44 45  1  0  0  0
 45 46  2  0  0  0
 45 47  1  0  0  0
 47 48  1  0  0  0
 47 49  1  0  0  0
 47 50  1  0  0  0
  2  3  2  0  0  0
  3  4  1  0  0  0
  4  5  2  0  0  0
  5  6  1  0  0  0
  6  7  2  0  0  0
  7  8  1  0  0  0
  8  9  2  0  0  0
 25 26  1  0  0  0
 26 27  1  0  0  0
 27 22  1  0  0  0
 15 10  1  0  0  0
  9  1  1  0  0  0
 35 30  1  0  0  0
 46 41  1  0  0  0
  9  4  1  0  0  0
 16 17  1  0  0  0
 28 29  1  0  0  0
 39 40  1  0  0  0
M  END
> <minimizedAffinity>
-8.81089

> <CNNscore>
0.1947323978

> <CNNaffinity>
7.4439225197

> <CNN_VS>
1.4495729208

> <CNNaffinity_variance>
0.2553173006

$$$$
[H]c1nc(N([H])C([H])([H])C([H])([H])C([H])([H])N2C([H])([H])C([H])([H])N(C([H])([H])[H])C([H])([H])C2([H])[H])nc(-n2c(N([H])c3c([H])c(C(=O)N([H])c4c([H])c([H])c([H])c(C(F)(F)F)c4[H])c([H])c([H])c3C([H])([H])[H])nc3c([H])c([H])c([H])c([H])c32)n1


 50 55  0  0  0  0  0  0  0  0999 V2000
  -17.7514   13.2916  -21.3816 N   0  0  0  0  0  0  0  0  0  0  0  0
  -17.4191   12.8715  -22.5658 C   0  0  0  0  0  0  0  0  0  0  0  0
  -16.8081   11.6489  -22.4861 N   0  0  0  0  0  0  0  0  0  0  0  0
  -16.7515   11.2834  -21.2055 C   0  0  0  0  0  0  0  0  0  0  0  0
  -16.2610   10.1609  -20.5432 C   0  0  0  0  0  0  0  0  0  0  0  0
  -16.3797   10.1053  -19.1824 C   0  0  0  0  0  0  0  0  0  0  0  0
  -16.9712   11.1313  -18.4512 C   0  0  0  0  0  0  0  0  0  0  0  0
  -17.4453   12.2259  -19.1264 C   0  0  0  0  0  0  0  0  0  0  0  0
  -17.3443   12.3156  -20.4947 C   0  0  0  0  0  0  0  0  0  0  0  0
  -18.6291   16.5617  -19.8962 C   0  0  0  0  0  0  0  0  0  0  0  0
  -19.9433   16.3466  -19.8057 N   0  0  0  0  0  0  0  0  0  0  0  0
  -20.5638   15.2389  -20.2376 C   0  0  0  0  0  0  0  0  0  0  0  0
  -19.7915   14.2999  -20.7924 N   0  0  0  0  0  0  0  0  0  0  0  0
  -18.4285   14.4411  -20.9212 C   0  0  0  0  0  0  0  0  0  0  0  0
  -17.8895   15.5687  -20.4722 N   0  0  0  0  0  0  0  0  0  0  0  0
  -18.0736   17.7010  -19.2764 N   0  0  0  0  0  0  0  0  0  0  0  0
  -17.3546   17.5939  -18.4956 H   0  0  0  0  0  0  0  0  0  0  0  0
  -18.4213   19.0220  -19.6363 C   0  0  0  0  0  0  0  0  0  0  0  0
  -19.6421   19.5846  -19.0233 C   0  0  0  0  0  0  0  0  0  0  0  0
  -19.5312   19.5341  -17.5011 C   0  0  0  0  0  0  0  0  0  0  0  0
  -22.3997   17.7922  -13.8127 C   0  0  0  0  0  0  0  0  0  0  0  0
  -21.1378   17.3940  -14.4238 N   0  0  0  0  0  0  0  0  0  0  0  0
  -21.3787   16.9068  -15.7890 C   0  0  0  0  0  0  0  0  0  0  0  0
  -21.1031   18.0122  -16.7734 C   0  0  0  0  0  0  0  0  0  0  0  0
  -19.6685   18.2568  -16.9145 N   0  0  0  0  0  0  0  0  0  0  0  0
  -19.1391   18.2124  -15.5432 C   0  0  0  0  0  0  0  0  0  0  0  0
  -20.1825   18.5042  -14.5009 C   0  0  0  0  0  0  0  0  0  0  0  0
  -17.5368   13.5473  -23.8044 N   0  0  0  0  0  0  0  0  0  0  0  0
  -17.8575   13.0047  -24.6751 H   0  0  0  0  0  0  0  0  0  0  0  0
  -17.2600   14.9304  -23.9754 C   0  0  0  0  0  0  0  0  0  0  0  0
  -18.2032   15.8927  -23.7389 C   0  0  0  0  0  0  0  0  0  0  0  0
  -17.8980   17.2337  -23.8333 C   0  0  0  0  0  0  0  0  0  0  0  0
  -16.6460   17.6599  -24.1602 C   0  0  0  0  0  0  0  0  0  0  0  0
  -15.6894   16.6890  -24.3991 C   0  0  0  0  0  0  0  0  0  0  0  0
  -15.9550   15.3307  -24.3178 C   0  0  0  0  0  0  0  0  0  0  0  0
  -14.8949   14.2950  -24.5841 C   0  0  0  0  0  0  0  0  0  0  0  0
  -18.9846   18.2060  -23.5550 C   0  0  0  0  0  0  0  0  0  0  0  0
  -18.6760   19.4065  -23.7900 O   0  0  0  0  0  0  0  0  0  0  0  0
  -20.2164   17.7472  -23.0766 N   0  0  0  0  0  0  0  0  0  0  0  0
  -20.2999   16.6891  -22.9172 H   0  0  0  0  0  0  0  0  0  0  0  0
  -21.3778   18.4710  -22.7642 C   0  0  0  0  0  0  0  0  0  0  0  0
  -21.9560   19.3364  -23.7101 C   0  0  0  0  0  0  0  0  0  0  0  0
  -23.0879   20.0634  -23.4103 C   0  0  0  0  0  0  0  0  0  0  0  0
  -23.7097   19.9878  -22.1892 C   0  0  0  0  0  0  0  0  0  0  0  0
  -23.1499   19.1442  -21.2659 C   0  0  0  0  0  0  0  0  0  0  0  0
  -22.0096   18.4047  -21.5558 C   0  0  0  0  0  0  0  0  0  0  0  0
  -23.8187   19.0541  -19.9355 C   0  0  0  0  0  0  0  0  0  0  0  0
  -23.0424   19.7194  -18.9957 F   0  0  0  0  0  0  0  0  0  0  0  0
  -23.8900   17.7089  -19.5996 F   0  0  0  0  0  0  0  0  0  0  0  0
  -25.0973   19.5723  -19.9578 F   0  0  0  0  0  0  0  0  0  0  0  0
 21 22  1  0  0  0
 22 23  1  0  0  0
 23 24  1  0  0  0
 24 25  1  0  0  0
 25 20  1  0  0  0
 20 19  1  0  0  0
 19 18  1  0  0  0
 18 16  1  0  0  0
 16 10  1  0  0  0
 10 11  2  0  0  0
 11 12  1  0  0  0
 12 13  2  0  0  0
 13 14  1  0  0  0
 14 15  2  0  0  0
 14  1  1  0  0  0
  1  2  1  0  0  0
  2 28  1  0  0  0
 28 30  1  0  0  0
 30 31  2  0  0  0
 31 32  1  0  0  0
 32 33  2  0  0  0
 33 34  1  0  0  0
 34 35  2  0  0  0
 35 36  1  0  0  0
 32 37  1  0  0  0
 37 38  2  0  0  0
 37 39  1  0  0  0
 39 41  1  0  0  0
 41 42  2  0  0  0
 42 43  1  0  0  0
 43 44  2  0  0  0
 44 45  1  0  0  0
 45 46  2  0  0  0
 45 47  1  0  0  0
 47 48  1  0  0  0
 47 49  1  0  0  0
 47 50  1  0  0  0
  2  3  2  0  0  0
  3  4  1  0  0  0
  4  5  2  0  0  0
  5  6  1  0  0  0
  6  7  2  0  0  0
  7  8  1  0  0  0
  8  9  2  0  0  0
 25 26  1  0  0  0
 26 27  1  0  0  0
 27 22  1  0  0  0
 15 10  1  0  0  0
  9  1  1  0  0  0
 35 30  1  0  0  0
 46 41  1  0  0  0
  9  4  1  0  0  0
 16 17  1  0  0  0
 28 29  1  0  0  0
 39 40  1  0  0  0
M  END
> <minimizedAffinity>
-8.75105

> <CNNscore>
0.1593818963

> <CNNaffinity>
7.4058518410

> <CNN_VS>
1.1803587675

> <CNNaffinity_variance>
0.5118554235

$$$$
[H]c1nc(N([H])C([H])([H])C([H])([H])C([H])([H])N2C([H])([H])C([H])([H])N(C([H])([H])[H])C([H])([H])C2([H])[H])nc(-n2c(N([H])c3c([H])c(C(=O)N([H])c4c([H])c([H])c([H])c(C(F)(F)F)c4[H])c([H])c([H])c3C([H])([H])[H])nc3c([H])c([H])c([H])c([H])c32)n1


 50 55  0  0  0  0  0  0  0  0999 V2000
  -17.0181   14.4258  -22.8239 N   0  0  0  0  0  0  0  0  0  0  0  0
  -16.8478   13.1487  -22.9954 C   0  0  0  0  0  0  0  0  0  0  0  0
  -15.9955   12.9156  -24.0411 N   0  0  0  0  0  0  0  0  0  0  0  0
  -15.6139   14.0873  -24.5494 C   0  0  0  0  0  0  0  0  0  0  0  0
  -14.7671   14.4574  -25.5911 C   0  0  0  0  0  0  0  0  0  0  0  0
  -14.5871   15.7894  -25.8407 C   0  0  0  0  0  0  0  0  0  0  0  0
  -15.2224   16.7731  -25.0885 C   0  0  0  0  0  0  0  0  0  0  0  0
  -16.0516   16.3830  -24.0693 C   0  0  0  0  0  0  0  0  0  0  0  0
  -16.2555   15.0525  -23.7886 C   0  0  0  0  0  0  0  0  0  0  0  0
  -19.5583   16.4757  -21.0872 C   0  0  0  0  0  0  0  0  0  0  0  0
  -18.7764   16.8794  -20.0835 N   0  0  0  0  0  0  0  0  0  0  0  0
  -17.5042   16.4930  -19.9083 C   0  0  0  0  0  0  0  0  0  0  0  0
  -17.0074   15.6456  -20.8146 N   0  0  0  0  0  0  0  0  0  0  0  0
  -17.7449   15.1835  -21.8808 C   0  0  0  0  0  0  0  0  0  0  0  0
  -18.9985   15.6100  -21.9827 N   0  0  0  0  0  0  0  0  0  0  0  0
  -20.8312   17.0628  -21.2474 N   0  0  0  0  0  0  0  0  0  0  0  0
  -21.0497   17.6501  -22.1108 H   0  0  0  0  0  0  0  0  0  0  0  0
  -21.8722   16.9178  -20.3036 C   0  0  0  0  0  0  0  0  0  0  0  0
  -22.2195   18.1081  -19.5003 C   0  0  0  0  0  0  0  0  0  0  0  0
  -21.9362   19.3773  -20.3010 C   0  0  0  0  0  0  0  0  0  0  0  0
  -20.3858   22.3463  -16.6066 C   0  0  0  0  0  0  0  0  0  0  0  0
  -19.9846   22.1107  -17.9879 N   0  0  0  0  0  0  0  0  0  0  0  0
  -19.3870   20.7739  -18.1105 C   0  0  0  0  0  0  0  0  0  0  0  0
  -20.4227   19.8044  -18.6147 C   0  0  0  0  0  0  0  0  0  0  0  0
  -20.7035   20.0128  -20.0344 N   0  0  0  0  0  0  0  0  0  0  0  0
  -20.7814   21.4724  -20.1958 C   0  0  0  0  0  0  0  0  0  0  0  0
  -21.1169   22.1878  -18.9167 C   0  0  0  0  0  0  0  0  0  0  0  0
  -17.4818   12.0780  -22.3201 N   0  0  0  0  0  0  0  0  0  0  0  0
  -18.0940   11.3904  -22.8752 H   0  0  0  0  0  0  0  0  0  0  0  0
  -17.3533   11.8413  -20.9250 C   0  0  0  0  0  0  0  0  0  0  0  0
  -18.1587   12.4594  -20.0080 C   0  0  0  0  0  0  0  0  0  0  0  0
  -18.0751   12.1614  -18.6648 C   0  0  0  0  0  0  0  0  0  0  0  0
  -17.1931   11.2370  -18.1918 C   0  0  0  0  0  0  0  0  0  0  0  0
  -16.3777   10.6093  -19.1169 C   0  0  0  0  0  0  0  0  0  0  0  0
  -16.4275   10.8815  -20.4754 C   0  0  0  0  0  0  0  0  0  0  0  0
  -15.5271   10.1840  -21.4605 C   0  0  0  0  0  0  0  0  0  0  0  0
  -18.9921   12.8793  -17.7443 C   0  0  0  0  0  0  0  0  0  0  0  0
  -19.3502   12.2033  -16.7411 O   0  0  0  0  0  0  0  0  0  0  0  0
  -19.3760   14.1923  -18.0366 N   0  0  0  0  0  0  0  0  0  0  0  0
  -18.9874   14.6096  -18.9459 H   0  0  0  0  0  0  0  0  0  0  0  0
  -20.2084   15.0604  -17.3130 C   0  0  0  0  0  0  0  0  0  0  0  0
  -21.6019   14.8704  -17.3029 C   0  0  0  0  0  0  0  0  0  0  0  0
  -22.4310   15.7244  -16.6081 C   0  0  0  0  0  0  0  0  0  0  0  0
  -21.9541   16.7957  -15.8950 C   0  0  0  0  0  0  0  0  0  0  0  0
  -20.5967   16.9827  -15.9014 C   0  0  0  0  0  0  0  0  0  0  0  0
  -19.7496   16.1283  -16.5967 C   0  0  0  0  0  0  0  0  0  0  0  0
  -20.0679   18.1440  -15.1285 C   0  0  0  0  0  0  0  0  0  0  0  0
  -20.8898   19.2417  -15.3472 F   0  0  0  0  0  0  0  0  0  0  0  0
  -18.7974   18.4199  -15.6157 F   0  0  0  0  0  0  0  0  0  0  0  0
  -19.9745   17.8736  -13.7787 F   0  0  0  0  0  0  0  0  0  0  0  0
 21 22  1  0  0  0
 22 23  1  0  0  0
 23 24  1  0  0  0
 24 25  1  0  0  0
 25 20  1  0  0  0
 20 19  1  0  0  0
 19 18  1  0  0  0
 18 16  1  0  0  0
 16 10  1  0  0  0
 10 11  2  0  0  0
 11 12  1  0  0  0
 12 13  2  0  0  0
 13 14  1  0  0  0
 14 15  2  0  0  0
 14  1  1  0  0  0
  1  2  1  0  0  0
  2 28  1  0  0  0
 28 30  1  0  0  0
 30 31  2  0  0  0
 31 32  1  0  0  0
 32 33  2  0  0  0
 33 34  1  0  0  0
 34 35  2  0  0  0
 35 36  1  0  0  0
 32 37  1  0  0  0
 37 38  2  0  0  0
 37 39  1  0  0  0
 39 41  1  0  0  0
 41 42  2  0  0  0
 42 43  1  0  0  0
 43 44  2  0  0  0
 44 45  1  0  0  0
 45 46  2  0  0  0
 45 47  1  0  0  0
 47 48  1  0  0  0
 47 49  1  0  0  0
 47 50  1  0  0  0
  2  3  2  0  0  0
  3  4  1  0  0  0
  4  5  2  0  0  0
  5  6  1  0  0  0
  6  7  2  0  0  0
  7  8  1  0  0  0
  8  9  2  0  0  0
 25 26  1  0  0  0
 26 27  1  0  0  0
 27 22  1  0  0  0
 15 10  1  0  0  0
  9  1  1  0  0  0
 35 30  1  0  0  0
 46 41  1  0  0  0
  9  4  1  0  0  0
 16 17  1  0  0  0
 28 29  1  0  0  0
 39 40  1  0  0  0
M  END
> <minimizedAffinity>
-8.93658

> <CNNscore>
0.1434807330

> <CNNaffinity>
7.0794434547

> <CNN_VS>
1.0157637596

> <CNNaffinity_variance>
0.9866956472

$$$$
[H]c1nc(N([H])C([H])([H])C([H])([H])C([H])([H])N2C([H])([H])C([H])([H])N(C([H])([H])[H])C([H])([H])C2([H])[H])nc(-n2c(N([H])c3c([H])c(C(=O)N([H])c4c([H])c([H])c([H])c(C(F)(F)F)c4[H])c([H])c([H])c3C([H])([H])[H])nc3c([H])c([H])c([H])c([H])c32)n1


 50 55  0  0  0  0  0  0  0  0999 V2000
  -17.0788   14.4338  -22.8281 N   0  0  0  0  0  0  0  0  0  0  0  0
  -17.0120   13.1471  -22.9997 C   0  0  0  0  0  0  0  0  0  0  0  0
  -16.1506   12.8443  -24.0199 N   0  0  0  0  0  0  0  0  0  0  0  0
  -15.6557   13.9803  -24.5113 C   0  0  0  0  0  0  0  0  0  0  0  0
  -14.7490   14.2790  -25.5250 C   0  0  0  0  0  0  0  0  0  0  0  0
  -14.4493   15.5913  -25.7634 C   0  0  0  0  0  0  0  0  0  0  0  0
  -15.0218   16.6241  -25.0269 C   0  0  0  0  0  0  0  0  0  0  0  0
  -15.9122   16.3040  -24.0351 C   0  0  0  0  0  0  0  0  0  0  0  0
  -16.2365   14.9951  -23.7664 C   0  0  0  0  0  0  0  0  0  0  0  0
  -18.9518   17.1614  -21.1781 C   0  0  0  0  0  0  0  0  0  0  0  0
  -18.7081   16.7828  -19.9214 N   0  0  0  0  0  0  0  0  0  0  0  0
  -18.0234   15.6818  -19.5784 C   0  0  0  0  0  0  0  0  0  0  0  0
  -17.5631   14.9284  -20.5817 N   0  0  0  0  0  0  0  0  0  0  0  0
  -17.7675   15.2488  -21.9044 C   0  0  0  0  0  0  0  0  0  0  0  0
  -18.4582   16.3535  -22.1622 N   0  0  0  0  0  0  0  0  0  0  0  0
  -19.5569   18.4137  -21.4147 N   0  0  0  0  0  0  0  0  0  0  0  0
  -20.5947   18.5581  -21.2138 H   0  0  0  0  0  0  0  0  0  0  0  0
  -18.8513   19.5288  -21.9189 C   0  0  0  0  0  0  0  0  0  0  0  0
  -19.5488   20.3697  -22.9135 C   0  0  0  0  0  0  0  0  0  0  0  0
  -20.9382   20.7401  -22.3993 C   0  0  0  0  0  0  0  0  0  0  0  0
  -20.5156   22.2791  -27.1238 C   0  0  0  0  0  0  0  0  0  0  0  0
  -21.5305   22.3864  -26.0831 N   0  0  0  0  0  0  0  0  0  0  0  0
  -22.1203   21.0653  -25.8263 C   0  0  0  0  0  0  0  0  0  0  0  0
  -21.4573   20.4431  -24.6262 C   0  0  0  0  0  0  0  0  0  0  0  0
  -21.8896   21.0835  -23.3849 N   0  0  0  0  0  0  0  0  0  0  0  0
  -21.8914   22.5239  -23.6814 C   0  0  0  0  0  0  0  0  0  0  0  0
  -20.9808   22.8904  -24.8202 C   0  0  0  0  0  0  0  0  0  0  0  0
  -17.7548   12.1329  -22.3486 N   0  0  0  0  0  0  0  0  0  0  0  0
  -18.5597   11.6481  -22.8709 H   0  0  0  0  0  0  0  0  0  0  0  0
  -17.4960   11.6970  -21.0212 C   0  0  0  0  0  0  0  0  0  0  0  0
  -18.3848   11.9083  -20.0030 C   0  0  0  0  0  0  0  0  0  0  0  0
  -18.1561   11.4115  -18.7376 C   0  0  0  0  0  0  0  0  0  0  0  0
  -17.0407   10.6854  -18.4462 C   0  0  0  0  0  0  0  0  0  0  0  0
  -16.1401   10.4691  -19.4743 C   0  0  0  0  0  0  0  0  0  0  0  0
  -16.3304   10.9530  -20.7595 C   0  0  0  0  0  0  0  0  0  0  0  0
  -15.3330   10.7036  -21.8598 C   0  0  0  0  0  0  0  0  0  0  0  0
  -19.1782   11.6873  -17.6971 C   0  0  0  0  0  0  0  0  0  0  0  0
  -19.6992   12.8336  -17.7761 O   0  0  0  0  0  0  0  0  0  0  0  0
  -19.4803   10.7052  -16.7479 N   0  0  0  0  0  0  0  0  0  0  0  0
  -18.9258    9.7890  -16.8193 H   0  0  0  0  0  0  0  0  0  0  0  0
  -20.4100   10.7364  -15.6968 C   0  0  0  0  0  0  0  0  0  0  0  0
  -21.7901   10.6829  -15.9623 C   0  0  0  0  0  0  0  0  0  0  0  0
  -22.7132   10.7273  -14.9398 C   0  0  0  0  0  0  0  0  0  0  0  0
  -22.3470   10.8248  -13.6208 C   0  0  0  0  0  0  0  0  0  0  0  0
  -21.0030   10.8754  -13.3585 C   0  0  0  0  0  0  0  0  0  0  0  0
  -20.0619   10.8302  -14.3800 C   0  0  0  0  0  0  0  0  0  0  0  0
  -20.5942   10.9806  -11.9277 C   0  0  0  0  0  0  0  0  0  0  0  0
  -21.1419    9.9162  -11.2238 F   0  0  0  0  0  0  0  0  0  0  0  0
  -21.1150   12.1700  -11.4360 F   0  0  0  0  0  0  0  0  0  0  0  0
  -19.2229   11.0031  -11.7769 F   0  0  0  0  0  0  0  0  0  0  0  0
 21 22  1  0  0  0
 22 23  1  0  0  0
 23 24  1  0  0  0
 24 25  1  0  0  0
 25 20  1  0  0  0
 20 19  1  0  0  0
 19 18  1  0  0  0
 18 16  1  0  0  0
 16 10  1  0  0  0
 10 11  2  0  0  0
 11 12  1  0  0  0
 12 13  2  0  0  0
 13 14  1  0  0  0
 14 15  2  0  0  0
 14  1  1  0  0  0
  1  2  1  0  0  0
  2 28  1  0  0  0
 28 30  1  0  0  0
 30 31  2  0  0  0
 31 32  1  0  0  0
 32 33  2  0  0  0
 33 34  1  0  0  0
 34 35  2  0  0  0
 35 36  1  0  0  0
 32 37  1  0  0  0
 37 38  2  0  0  0
 37 39  1  0  0  0
 39 41  1  0  0  0
 41 42  2  0  0  0
 42 43  1  0  0  0
 43 44  2  0  0  0
 44 45  1  0  0  0
 45 46  2  0  0  0
 45 47  1  0  0  0
 47 48  1  0  0  0
 47 49  1  0  0  0
 47 50  1  0  0  0
  2  3  2  0  0  0
  3  4  1  0  0  0
  4  5  2  0  0  0
  5  6  1  0  0  0
  6  7  2  0  0  0
  7  8  1  0  0  0
  8  9  2  0  0  0
 25 26  1  0  0  0
 26 27  1  0  0  0
 27 22  1  0  0  0
 15 10  1  0  0  0
  9  1  1  0  0  0
 35 30  1  0  0  0
 46 41  1  0  0  0
  9  4  1  0  0  0
 16 17  1  0  0  0
 28 29  1  0  0  0
 39 40  1  0  0  0
M  END
> <minimizedAffinity>
-9.09654

> <CNNscore>
0.1413995922

> <CNNaffinity>
6.9879693985

> <CNN_VS>
0.9880959988

> <CNNaffinity_variance>
0.3977460265

$$$$
[H]c1nc(N([H])C([H])([H])C([H])([H])C([H])([H])N2C([H])([H])C([H])([H])N(C([H])([H])[H])C([H])([H])C2([H])[H])nc(-n2c(N([H])c3c([H])c(C(=O)N([H])c4c([H])c([H])c([H])c(C(F)(F)F)c4[H])c([H])c([H])c3C([H])([H])[H])nc3c([H])c([H])c([H])c([H])c32)n1


 50 55  0  0  0  0  0  0  0  0999 V2000
  -16.8339   14.8463  -21.5924 N   0  0  0  0  0  0  0  0  0  0  0  0
  -16.8402   16.0739  -21.1655 C   0  0  0  0  0  0  0  0  0  0  0  0
  -16.3156   16.9125  -22.1120 N   0  0  0  0  0  0  0  0  0  0  0  0
  -15.9643   16.1890  -23.1750 C   0  0  0  0  0  0  0  0  0  0  0  0
  -15.4026   16.4996  -24.4107 C   0  0  0  0  0  0  0  0  0  0  0  0
  -15.1787   15.4831  -25.2971 C   0  0  0  0  0  0  0  0  0  0  0  0
  -15.4943   14.1610  -24.9981 C   0  0  0  0  0  0  0  0  0  0  0  0
  -16.0454   13.8812  -23.7747 C   0  0  0  0  0  0  0  0  0  0  0  0
  -16.2858   14.8781  -22.8587 C   0  0  0  0  0  0  0  0  0  0  0  0
  -18.2369   12.2343  -19.3834 C   0  0  0  0  0  0  0  0  0  0  0  0
  -17.7549   11.1851  -20.0533 N   0  0  0  0  0  0  0  0  0  0  0  0
  -17.0525   11.2682  -21.1927 C   0  0  0  0  0  0  0  0  0  0  0  0
  -16.8325   12.4969  -21.6701 N   0  0  0  0  0  0  0  0  0  0  0  0
  -17.2915   13.6310  -21.0397 C   0  0  0  0  0  0  0  0  0  0  0  0
  -17.9823   13.4649  -19.9177 N   0  0  0  0  0  0  0  0  0  0  0  0
  -18.8347   12.0301  -18.1219 N   0  0  0  0  0  0  0  0  0  0  0  0
  -18.5753   11.1790  -17.5333 H   0  0  0  0  0  0  0  0  0  0  0  0
  -19.7893   12.9120  -17.5684 C   0  0  0  0  0  0  0  0  0  0  0  0
  -20.8664   12.3100  -16.7558 C   0  0  0  0  0  0  0  0  0  0  0  0
  -20.2735   11.3159  -15.7597 C   0  0  0  0  0  0  0  0  0  0  0  0
  -20.7116    7.0971  -13.1373 C   0  0  0  0  0  0  0  0  0  0  0  0
  -20.1963    7.4535  -14.4533 N   0  0  0  0  0  0  0  0  0  0  0  0
  -21.3060    7.8523  -15.3301 C   0  0  0  0  0  0  0  0  0  0  0  0
  -21.4143    9.3538  -15.3529 C   0  0  0  0  0  0  0  0  0  0  0  0
  -20.3351    9.9557  -16.1345 N   0  0  0  0  0  0  0  0  0  0  0  0
  -19.1259    9.2142  -15.7461 C   0  0  0  0  0  0  0  0  0  0  0  0
  -19.2428    8.5663  -14.3945 C   0  0  0  0  0  0  0  0  0  0  0  0
  -17.2183   16.5603  -19.8908 N   0  0  0  0  0  0  0  0  0  0  0  0
  -16.4804   16.6354  -19.1127 H   0  0  0  0  0  0  0  0  0  0  0  0
  -18.5384   16.9734  -19.5659 C   0  0  0  0  0  0  0  0  0  0  0  0
  -19.3516   17.5856  -20.4798 C   0  0  0  0  0  0  0  0  0  0  0  0
  -20.6560   17.9101  -20.1743 C   0  0  0  0  0  0  0  0  0  0  0  0
  -21.1942   17.6318  -18.9540 C   0  0  0  0  0  0  0  0  0  0  0  0
  -20.3744   17.0116  -18.0276 C   0  0  0  0  0  0  0  0  0  0  0  0
  -19.0570   16.6710  -18.2930 C   0  0  0  0  0  0  0  0  0  0  0  0
  -18.1865   15.9973  -17.2654 C   0  0  0  0  0  0  0  0  0  0  0  0
  -21.4647   18.5689  -21.2305 C   0  0  0  0  0  0  0  0  0  0  0  0
  -22.5269   19.1036  -20.8093 O   0  0  0  0  0  0  0  0  0  0  0  0
  -21.0149   18.5543  -22.5549 N   0  0  0  0  0  0  0  0  0  0  0  0
  -20.0928   18.0365  -22.7378 H   0  0  0  0  0  0  0  0  0  0  0  0
  -21.5965   19.1189  -23.7009 C   0  0  0  0  0  0  0  0  0  0  0  0
  -22.6683   18.4777  -24.3475 C   0  0  0  0  0  0  0  0  0  0  0  0
  -23.2384   19.0146  -25.4817 C   0  0  0  0  0  0  0  0  0  0  0  0
  -22.8012   20.1896  -26.0401 C   0  0  0  0  0  0  0  0  0  0  0  0
  -21.7582   20.8178  -25.4115 C   0  0  0  0  0  0  0  0  0  0  0  0
  -21.1753   20.2878  -24.2667 C   0  0  0  0  0  0  0  0  0  0  0  0
  -21.2758   22.0963  -26.0100 C   0  0  0  0  0  0  0  0  0  0  0  0
  -21.6937   22.1596  -27.3328 F   0  0  0  0  0  0  0  0  0  0  0  0
  -19.8882   22.0733  -25.9696 F   0  0  0  0  0  0  0  0  0  0  0  0
  -21.7199   23.2000  -25.3112 F   0  0  0  0  0  0  0  0  0  0  0  0
 21 22  1  0  0  0
 22 23  1  0  0  0
 23 24  1  0  0  0
 24 25  1  0  0  0
 25 20  1  0  0  0
 20 19  1  0  0  0
 19 18  1  0  0  0
 18 16  1  0  0  0
 16 10  1  0  0  0
 10 11  2  0  0  0
 11 12  1  0  0  0
 12 13  2  0  0  0
 13 14  1  0  0  0
 14 15  2  0  0  0
 14  1  1  0  0  0
  1  2  1  0  0  0
  2 28  1  0  0  0
 28 30  1  0  0  0
 30 31  2  0  0  0
 31 32  1  0  0  0
 32 33  2  0  0  0
 33 34  1  0  0  0
 34 35  2  0  0  0
 35 36  1  0  0  0
 32 37  1  0  0  0
 37 38  2  0  0  0
 37 39  1  0  0  0
 39 41  1  0  0  0
 41 42  2  0  0  0
 42 43  1  0  0  0
 43 44  2  0  0  0
 44 45  1  0  0  0
 45 46  2  0  0  0
 45 47  1  0  0  0
 47 48  1  0  0  0
 47 49  1  0  0  0
 47 50  1  0  0  0
  2  3  2  0  0  0
  3  4  1  0  0  0
  4  5  2  0  0  0
  5  6  1  0  0  0
  6  7  2  0  0  0
  7  8  1  0  0  0
  8  9  2  0  0  0
 25 26  1  0  0  0
 26 27  1  0  0  0
 27 22  1  0  0  0
 15 10  1  0  0  0
  9  1  1  0  0  0
 35 30  1  0  0  0
 46 41  1  0  0  0
  9  4  1  0  0  0
 16 17  1  0  0  0
 28 29  1  0  0  0
 39 40  1  0  0  0
M  END
> <minimizedAffinity>
-9.02456

> <CNNscore>
0.1410397142

> <CNNaffinity>
7.3798613548

> <CNN_VS>
1.0408535004

> <CNNaffinity_variance>
0.1889434159

$$$$
[H]c1nc(N([H])C([H])([H])C([H])([H])C([H])([H])N2C([H])([H])C([H])([H])N(C([H])([H])[H])C([H])([H])C2([H])[H])nc(-n2c(N([H])c3c([H])c(C(=O)N([H])c4c([H])c([H])c([H])c(C(F)(F)F)c4[H])c([H])c([H])c3C([H])([H])[H])nc3c([H])c([H])c([H])c([H])c32)n1


 50 55  0  0  0  0  0  0  0  0999 V2000
  -17.8505   13.3026  -21.1919 N   0  0  0  0  0  0  0  0  0  0  0  0
  -17.5734   12.8029  -22.3593 C   0  0  0  0  0  0  0  0  0  0  0  0
  -17.1710   11.4999  -22.2390 N   0  0  0  0  0  0  0  0  0  0  0  0
  -17.1940   11.1640  -20.9492 C   0  0  0  0  0  0  0  0  0  0  0  0
  -16.9030    9.9947  -20.2513 C   0  0  0  0  0  0  0  0  0  0  0  0
  -17.0495    9.9951  -18.8921 C   0  0  0  0  0  0  0  0  0  0  0  0
  -17.4769   11.1225  -18.1968 C   0  0  0  0  0  0  0  0  0  0  0  0
  -17.7561   12.2614  -18.9066 C   0  0  0  0  0  0  0  0  0  0  0  0
  -17.6212   12.2972  -20.2745 C   0  0  0  0  0  0  0  0  0  0  0  0
  -19.9426   16.2763  -20.5200 C   0  0  0  0  0  0  0  0  0  0  0  0
  -18.9433   17.1070  -20.2150 N   0  0  0  0  0  0  0  0  0  0  0  0
  -17.6502   16.7547  -20.1653 C   0  0  0  0  0  0  0  0  0  0  0  0
  -17.3680   15.4786  -20.4450 N   0  0  0  0  0  0  0  0  0  0  0  0
  -18.3381   14.5587  -20.7718 C   0  0  0  0  0  0  0  0  0  0  0  0
  -19.5957   14.9847  -20.7962 N   0  0  0  0  0  0  0  0  0  0  0  0
  -21.2444   16.7955  -20.6819 N   0  0  0  0  0  0  0  0  0  0  0  0
  -21.5458   17.2151  -21.6153 H   0  0  0  0  0  0  0  0  0  0  0  0
  -22.2091   16.7957  -19.6499 C   0  0  0  0  0  0  0  0  0  0  0  0
  -22.5826   18.1073  -19.0817 C   0  0  0  0  0  0  0  0  0  0  0  0
  -21.5812   18.5111  -18.0018 C   0  0  0  0  0  0  0  0  0  0  0  0
  -19.5984   18.7435  -13.4322 C   0  0  0  0  0  0  0  0  0  0  0  0
  -19.7226   17.7173  -14.4597 N   0  0  0  0  0  0  0  0  0  0  0  0
  -21.1298   17.3161  -14.5937 C   0  0  0  0  0  0  0  0  0  0  0  0
  -21.7548   18.0521  -15.7488 C   0  0  0  0  0  0  0  0  0  0  0  0
  -21.2895   17.5271  -17.0317 N   0  0  0  0  0  0  0  0  0  0  0  0
  -19.8432   17.3261  -16.8576 C   0  0  0  0  0  0  0  0  0  0  0  0
  -19.2576   18.1835  -15.7702 C   0  0  0  0  0  0  0  0  0  0  0  0
  -17.5608   13.4559  -23.6154 N   0  0  0  0  0  0  0  0  0  0  0  0
  -17.8351   12.9089  -24.4992 H   0  0  0  0  0  0  0  0  0  0  0  0
  -17.2086   14.8215  -23.7889 C   0  0  0  0  0  0  0  0  0  0  0  0
  -18.1426   15.8205  -23.7558 C   0  0  0  0  0  0  0  0  0  0  0  0
  -17.7772   17.1465  -23.8473 C   0  0  0  0  0  0  0  0  0  0  0  0
  -16.4730   17.5210  -23.9692 C   0  0  0  0  0  0  0  0  0  0  0  0
  -15.5256   16.5130  -24.0020 C   0  0  0  0  0  0  0  0  0  0  0  0
  -15.8505   15.1680  -23.9159 C   0  0  0  0  0  0  0  0  0  0  0  0
  -14.7989   14.0909  -23.9554 C   0  0  0  0  0  0  0  0  0  0  0  0
  -18.8593   18.1614  -23.7982 C   0  0  0  0  0  0  0  0  0  0  0  0
  -18.4476   19.3525  -23.7377 O   0  0  0  0  0  0  0  0  0  0  0  0
  -20.1955   17.7485  -23.8230 N   0  0  0  0  0  0  0  0  0  0  0  0
  -20.3648   16.6893  -23.8592 H   0  0  0  0  0  0  0  0  0  0  0  0
  -21.3681   18.5197  -23.8035 C   0  0  0  0  0  0  0  0  0  0  0  0
  -22.6297   17.9000  -23.7543 C   0  0  0  0  0  0  0  0  0  0  0  0
  -23.7887   18.6459  -23.7493 C   0  0  0  0  0  0  0  0  0  0  0  0
  -23.7817   20.0176  -23.7913 C   0  0  0  0  0  0  0  0  0  0  0  0
  -22.5542   20.6247  -23.8375 C   0  0  0  0  0  0  0  0  0  0  0  0
  -21.3780   19.8844  -23.8418 C   0  0  0  0  0  0  0  0  0  0  0  0
  -22.5355   22.1157  -23.8825 C   0  0  0  0  0  0  0  0  0  0  0  0
  -21.9912   22.5224  -25.0936 F   0  0  0  0  0  0  0  0  0  0  0  0
  -21.7200   22.5498  -22.8461 F   0  0  0  0  0  0  0  0  0  0  0  0
  -23.7925   22.6588  -23.7128 F   0  0  0  0  0  0  0  0  0  0  0  0
 21 22  1  0  0  0
 22 23  1  0  0  0
 23 24  1  0  0  0
 24 25  1  0  0  0
 25 20  1  0  0  0
 20 19  1  0  0  0
 19 18  1  0  0  0
 18 16  1  0  0  0
 16 10  1  0  0  0
 10 11  2  0  0  0
 11 12  1  0  0  0
 12 13  2  0  0  0
 13 14  1  0  0  0
 14 15  2  0  0  0
 14  1  1  0  0  0
  1  2  1  0  0  0
  2 28  1  0  0  0
 28 30  1  0  0  0
 30 31  2  0  0  0
 31 32  1  0  0  0
 32 33  2  0  0  0
 33 34  1  0  0  0
 34 35  2  0  0  0
 35 36  1  0  0  0
 32 37  1  0  0  0
 37 38  2  0  0  0
 37 39  1  0  0  0
 39 41  1  0  0  0
 41 42  2  0  0  0
 42 43  1  0  0  0
 43 44  2  0  0  0
 44 45  1  0  0  0
 45 46  2  0  0  0
 45 47  1  0  0  0
 47 48  1  0  0  0
 47 49  1  0  0  0
 47 50  1  0  0  0
  2  3  2  0  0  0
  3  4  1  0  0  0
  4  5  2  0  0  0
  5  6  1  0  0  0
  6  7  2  0  0  0
  7  8  1  0  0  0
  8  9  2  0  0  0
 25 26  1  0  0  0
 26 27  1  0  0  0
 27 22  1  0  0  0
 15 10  1  0  0  0
  9  1  1  0  0  0
 35 30  1  0  0  0
 46 41  1  0  0  0
  9  4  1  0  0  0
 16 17  1  0  0  0
 28 29  1  0  0  0
 39 40  1  0  0  0
M  END
> <minimizedAffinity>
-8.78014

> <CNNscore>
0.1400715262

> <CNNaffinity>
7.2749772072

> <CNN_VS>
1.0190172195

> <CNNaffinity_variance>
0.3594940603

$$$$
[H]c1nc(N([H])C([H])([H])C([H])([H])C([H])([H])N2C([H])([H])C([H])([H])N(C([H])([H])[H])C([H])([H])C2([H])[H])nc(-n2c(N([H])c3c([H])c(C(=O)N([H])c4c([H])c([H])c([H])c(C(F)(F)F)c4[H])c([H])c([H])c3C([H])([H])[H])nc3c([H])c([H])c([H])c([H])c32)n1


 50 55  0  0  0  0  0  0  0  0999 V2000
  -17.0224   14.4699  -22.8057 N   0  0  0  0  0  0  0  0  0  0  0  0
  -16.8885   13.1928  -23.0062 C   0  0  0  0  0  0  0  0  0  0  0  0
  -16.0800   12.9600  -24.0863 N   0  0  0  0  0  0  0  0  0  0  0  0
  -15.6894   14.1320  -24.5869 C   0  0  0  0  0  0  0  0  0  0  0  0
  -14.8722   14.5022  -25.6518 C   0  0  0  0  0  0  0  0  0  0  0  0
  -14.6700   15.8343  -25.8838 C   0  0  0  0  0  0  0  0  0  0  0  0
  -15.2545   16.8179  -25.0914 C   0  0  0  0  0  0  0  0  0  0  0  0
  -16.0556   16.4277  -24.0499 C   0  0  0  0  0  0  0  0  0  0  0  0
  -16.2804   15.0971  -23.7861 C   0  0  0  0  0  0  0  0  0  0  0  0
  -19.4450   16.5524  -20.9443 C   0  0  0  0  0  0  0  0  0  0  0  0
  -18.6211   16.9084  -19.9562 N   0  0  0  0  0  0  0  0  0  0  0  0
  -17.3566   16.4801  -19.8294 C   0  0  0  0  0  0  0  0  0  0  0  0
  -16.9136   15.6403  -20.7700 N   0  0  0  0  0  0  0  0  0  0  0  0
  -17.6968   15.2262  -21.8232 C   0  0  0  0  0  0  0  0  0  0  0  0
  -18.9392   15.6922  -21.8765 N   0  0  0  0  0  0  0  0  0  0  0  0
  -20.7036   17.1810  -21.0513 N   0  0  0  0  0  0  0  0  0  0  0  0
  -21.0635   17.5099  -22.0003 H   0  0  0  0  0  0  0  0  0  0  0  0
  -21.5480   17.4113  -19.9426 C   0  0  0  0  0  0  0  0  0  0  0  0
  -23.0023   17.4385  -20.2016 C   0  0  0  0  0  0  0  0  0  0  0  0
  -23.2720   17.1857  -21.6833 C   0  0  0  0  0  0  0  0  0  0  0  0
  -22.1190   20.4807  -25.2443 C   0  0  0  0  0  0  0  0  0  0  0  0
  -23.1358   20.3884  -24.2041 N   0  0  0  0  0  0  0  0  0  0  0  0
  -24.0799   19.3095  -24.5265 C   0  0  0  0  0  0  0  0  0  0  0  0
  -23.6965   18.0639  -23.7726 C   0  0  0  0  0  0  0  0  0  0  0  0
  -24.0230   18.1774  -22.3518 N   0  0  0  0  0  0  0  0  0  0  0  0
  -23.6114   19.5380  -21.9752 C   0  0  0  0  0  0  0  0  0  0  0  0
  -22.5587   20.1066  -22.8856 C   0  0  0  0  0  0  0  0  0  0  0  0
  -17.5228   12.1242  -22.3277 N   0  0  0  0  0  0  0  0  0  0  0  0
  -18.1413   11.4397  -22.8794 H   0  0  0  0  0  0  0  0  0  0  0  0
  -17.3867   11.8861  -20.9336 C   0  0  0  0  0  0  0  0  0  0  0  0
  -18.1912   12.4982  -20.0120 C   0  0  0  0  0  0  0  0  0  0  0  0
  -18.0999   12.1985  -18.6696 C   0  0  0  0  0  0  0  0  0  0  0  0
  -17.2107   11.2783  -18.2022 C   0  0  0  0  0  0  0  0  0  0  0  0
  -16.3960   10.6566  -19.1320 C   0  0  0  0  0  0  0  0  0  0  0  0
  -16.4535   10.9306  -20.4897 C   0  0  0  0  0  0  0  0  0  0  0  0
  -15.5538   10.2397  -21.4801 C   0  0  0  0  0  0  0  0  0  0  0  0
  -19.0166   12.9099  -17.7438 C   0  0  0  0  0  0  0  0  0  0  0  0
  -19.3860   12.2218  -16.7530 O   0  0  0  0  0  0  0  0  0  0  0  0
  -19.3885   14.2301  -18.0186 N   0  0  0  0  0  0  0  0  0  0  0  0
  -18.9912   14.6578  -18.9193 H   0  0  0  0  0  0  0  0  0  0  0  0
  -20.2183   15.0940  -17.2870 C   0  0  0  0  0  0  0  0  0  0  0  0
  -21.6134   14.9157  -17.2889 C   0  0  0  0  0  0  0  0  0  0  0  0
  -22.4398   15.7659  -16.5862 C   0  0  0  0  0  0  0  0  0  0  0  0
  -21.9586   16.8218  -15.8533 C   0  0  0  0  0  0  0  0  0  0  0  0
  -20.5997   16.9972  -15.8480 C   0  0  0  0  0  0  0  0  0  0  0  0
  -19.7552   16.1465  -16.5511 C   0  0  0  0  0  0  0  0  0  0  0  0
  -20.0662   18.1417  -15.0536 C   0  0  0  0  0  0  0  0  0  0  0  0
  -20.8394   19.2664  -15.3099 F   0  0  0  0  0  0  0  0  0  0  0  0
  -18.7666   18.3727  -15.4841 F   0  0  0  0  0  0  0  0  0  0  0  0
  -20.0422   17.8719  -13.7007 F   0  0  0  0  0  0  0  0  0  0  0  0
 21 22  1  0  0  0
 22 23  1  0  0  0
 23 24  1  0  0  0
 24 25  1  0  0  0
 25 20  1  0  0  0
 20 19  1  0  0  0
 19 18  1  0  0  0
 18 16  1  0  0  0
 16 10  1  0  0  0
 10 11  2  0  0  0
 11 12  1  0  0  0
 12 13  2  0  0  0
 13 14  1  0  0  0
 14 15  2  0  0  0
 14  1  1  0  0  0
  1  2  1  0  0  0
  2 28  1  0  0  0
 28 30  1  0  0  0
 30 31  2  0  0  0
 31 32  1  0  0  0
 32 33  2  0  0  0
 33 34  1  0  0  0
 34 35  2  0  0  0
 35 36  1  0  0  0
 32 37  1  0  0  0
 37 38  2  0  0  0
 37 39  1  0  0  0
 39 41  1  0  0  0
 41 42  2  0  0  0
 42 43  1  0  0  0
 43 44  2  0  0  0
 44 45  1  0  0  0
 45 46  2  0  0  0
 45 47  1  0  0  0
 47 48  1  0  0  0
 47 49  1  0  0  0
 47 50  1  0  0  0
  2  3  2  0  0  0
  3  4  1  0  0  0
  4  5  2  0  0  0
  5  6  1  0  0  0
  6  7  2  0  0  0
  7  8  1  0  0  0
  8  9  2  0  0  0
 25 26  1  0  0  0
 26 27  1  0  0  0
 27 22  1  0  0  0
 15 10  1  0  0  0
  9  1  1  0  0  0
 35 30  1  0  0  0
 46 41  1  0  0  0
  9  4  1  0  0  0
 16 17  1  0  0  0
 28 29  1  0  0  0
 39 40  1  0  0  0
M  END
> <minimizedAffinity>
-9.61134

> <CNNscore>
0.1289137006

> <CNNaffinity>
7.2049331665

> <CNN_VS>
0.9288145900

> <CNNaffinity_variance>
0.7865989804

$$$$
[H]c1nc(N([H])[H])c([H])c(-n2c(N([H])c3c([H])c(C(=O)N([H])c4c([H])c([H])c([H])c(C(C([H])([H])[H])(C([H])([H])[H])C([H])([H])[H])c4[H])c([H])c([H])c3C([H])([H])[H])nc3c([H])c([H])c([H])c([H])c32)n1


 41 45  0  0  0  0  0  0  0  0999 V2000
  -15.3249   11.4885  -22.6058 C   0  0  0  0  0  0  0  0  0  0  0  0
  -16.2824   11.4623  -21.4712 C   0  0  0  0  0  0  0  0  0  0  0  0
  -16.0354   10.5488  -20.4698 C   0  0  0  0  0  0  0  0  0  0  0  0
  -16.8660   10.4414  -19.3900 C   0  0  0  0  0  0  0  0  0  0  0  0
  -17.9783   11.2848  -19.3237 C   0  0  0  0  0  0  0  0  0  0  0  0
  -18.2294   12.1950  -20.3177 C   0  0  0  0  0  0  0  0  0  0  0  0
  -17.3988   12.3253  -21.4262 C   0  0  0  0  0  0  0  0  0  0  0  0
  -18.7664   11.0926  -18.0972 C   0  0  0  0  0  0  0  0  0  0  0  0
  -19.4610   12.0183  -17.6257 O   0  0  0  0  0  0  0  0  0  0  0  0
  -18.7756    9.8504  -17.4180 N   0  0  0  0  0  0  0  0  0  0  0  0
  -18.1409    9.0950  -17.8282 H   0  0  0  0  0  0  0  0  0  0  0  0
  -19.5285    9.5074  -16.2761 C   0  0  0  0  0  0  0  0  0  0  0  0
  -19.7149   10.4342  -15.2870 C   0  0  0  0  0  0  0  0  0  0  0  0
  -20.3670   10.1010  -14.1292 C   0  0  0  0  0  0  0  0  0  0  0  0
  -20.8386    8.8298  -13.9499 C   0  0  0  0  0  0  0  0  0  0  0  0
  -20.6706    7.8450  -14.9341 C   0  0  0  0  0  0  0  0  0  0  0  0
  -20.0205    8.2103  -16.0750 C   0  0  0  0  0  0  0  0  0  0  0  0
  -21.1497    6.4836  -14.7131 C   0  0  0  0  0  0  0  0  0  0  0  0
  -21.8532    5.9703  -15.9797 C   0  0  0  0  0  0  0  0  0  0  0  0
  -20.1125    5.5032  -14.2458 C   0  0  0  0  0  0  0  0  0  0  0  0
  -22.2830    6.5619  -13.6644 C   0  0  0  0  0  0  0  0  0  0  0  0
  -17.5184   13.2351  -22.4560 N   0  0  0  0  0  0  0  0  0  0  0  0
  -17.2464   12.8750  -23.4313 H   0  0  0  0  0  0  0  0  0  0  0  0
  -17.9259   14.5879  -22.4365 C   0  0  0  0  0  0  0  0  0  0  0  0
  -18.9086   15.1839  -21.7289 N   0  0  0  0  0  0  0  0  0  0  0  0
  -18.9815   16.5027  -22.0254 C   0  0  0  0  0  0  0  0  0  0  0  0
  -19.8132   17.5221  -21.5940 C   0  0  0  0  0  0  0  0  0  0  0  0
  -19.6477   18.8080  -22.1200 C   0  0  0  0  0  0  0  0  0  0  0  0
  -18.6434   18.9759  -23.0524 C   0  0  0  0  0  0  0  0  0  0  0  0
  -17.8159   17.9965  -23.4919 C   0  0  0  0  0  0  0  0  0  0  0  0
  -17.9925   16.7010  -22.9535 C   0  0  0  0  0  0  0  0  0  0  0  0
  -17.3427   15.5586  -23.2145 N   0  0  0  0  0  0  0  0  0  0  0  0
  -16.2649   15.4257  -24.1320 C   0  0  0  0  0  0  0  0  0  0  0  0
  -16.4245   15.6804  -25.4707 C   0  0  0  0  0  0  0  0  0  0  0  0
  -15.3394   15.5312  -26.3220 C   0  0  0  0  0  0  0  0  0  0  0  0
  -15.4982   15.7818  -27.6988 N   0  0  0  0  0  0  0  0  0  0  0  0
  -14.1252   15.1359  -25.8326 N   0  0  0  0  0  0  0  0  0  0  0  0
  -13.9924   14.8927  -24.5118 C   0  0  0  0  0  0  0  0  0  0  0  0
  -15.0593   15.0471  -23.7230 N   0  0  0  0  0  0  0  0  0  0  0  0
  -15.6127   16.7540  -28.0253 H   0  0  0  0  0  0  0  0  0  0  0  0
  -15.5052   15.0049  -28.3792 H   0  0  0  0  0  0  0  0  0  0  0  0
  1  2  1  0  0  0
  2  3  2  0  0  0
  3  4  1  0  0  0
  4  5  2  0  0  0
  5  6  1  0  0  0
  6  7  2  0  0  0
  7 22  1  0  0  0
 22 24  1  0  0  0
 24 25  2  0  0  0
 25 26  1  0  0  0
 26 27  2  0  0  0
 27 28  1  0  0  0
 28 29  2  0  0  0
 29 30  1  0  0  0
 30 31  2  0  0  0
 31 32  1  0  0  0
 32 33  1  0  0  0
 33 34  2  0  0  0
 34 35  1  0  0  0
 35 36  1  0  0  0
 35 37  2  0  0  0
 37 38  1  0  0  0
 38 39  2  0  0  0
  5  8  1  0  0  0
  8  9  2  0  0  0
  8 10  1  0  0  0
 10 12  1  0  0  0
 12 13  2  0  0  0
 13 14  1  0  0  0
 14 15  2  0  0  0
 15 16  1  0  0  0
 16 17  2  0  0  0
 16 18  1  0  0  0
 18 19  1  0  0  0
 18 20  1  0  0  0
 18 21  1  0  0  0
  7  2  1  0  0  0
 32 24  1  0  0  0
 39 33  1  0  0  0
 17 12  1  0  0  0
 31 26  1  0  0  0
 22 23  1  0  0  0
 36 40  1  0  0  0
 36 41  1  0  0  0
 10 11  1  0  0  0
M  END
> <minimizedAffinity>
-9.95435

> <CNNscore>
0.2216759920

> <CNNaffinity>
6.8418273926

> <CNN_VS>
1.5166689157

> <CNNaffinity_variance>
0.2879181504

$$$$
[H]c1nc(N([H])[H])c([H])c(-n2c(N([H])c3c([H])c(C(=O)N([H])c4c([H])c([H])c([H])c(C(C([H])([H])[H])(C([H])([H])[H])C([H])([H])[H])c4[H])c([H])c([H])c3C([H])([H])[H])nc3c([H])c([H])c([H])c([H])c32)n1


 41 45  0  0  0  0  0  0  0  0999 V2000
  -15.6840   10.3487  -21.2538 C   0  0  0  0  0  0  0  0  0  0  0  0
  -16.6218   11.0749  -20.3607 C   0  0  0  0  0  0  0  0  0  0  0  0
  -16.4818   10.8622  -19.0066 C   0  0  0  0  0  0  0  0  0  0  0  0
  -17.3050   11.4766  -18.1054 C   0  0  0  0  0  0  0  0  0  0  0  0
  -18.2982   12.3314  -18.5914 C   0  0  0  0  0  0  0  0  0  0  0  0
  -18.4426   12.5461  -19.9377 C   0  0  0  0  0  0  0  0  0  0  0  0
  -17.6168   11.9342  -20.8754 C   0  0  0  0  0  0  0  0  0  0  0  0
  -19.0883   12.9543  -17.5189 C   0  0  0  0  0  0  0  0  0  0  0  0
  -19.2029   12.4066  -16.4015 O   0  0  0  0  0  0  0  0  0  0  0  0
  -19.7333   14.1998  -17.7114 N   0  0  0  0  0  0  0  0  0  0  0  0
  -19.6450   14.6193  -18.6901 H   0  0  0  0  0  0  0  0  0  0  0  0
  -20.4651   14.9384  -16.7587 C   0  0  0  0  0  0  0  0  0  0  0  0
  -21.6291   14.4247  -16.2555 C   0  0  0  0  0  0  0  0  0  0  0  0
  -22.4039   15.1578  -15.3958 C   0  0  0  0  0  0  0  0  0  0  0  0
  -22.0190   16.4189  -15.0324 C   0  0  0  0  0  0  0  0  0  0  0  0
  -20.8353   16.9889  -15.5230 C   0  0  0  0  0  0  0  0  0  0  0  0
  -20.0862   16.2318  -16.3735 C   0  0  0  0  0  0  0  0  0  0  0  0
  -20.4559   18.3492  -15.1524 C   0  0  0  0  0  0  0  0  0  0  0  0
  -21.7033   19.2473  -15.1326 C   0  0  0  0  0  0  0  0  0  0  0  0
  -19.6875   18.4771  -13.8685 C   0  0  0  0  0  0  0  0  0  0  0  0
  -19.6062   18.9192  -16.3115 C   0  0  0  0  0  0  0  0  0  0  0  0
  -17.6313   12.1133  -22.2430 N   0  0  0  0  0  0  0  0  0  0  0  0
  -18.2453   11.4273  -22.7974 H   0  0  0  0  0  0  0  0  0  0  0  0
  -16.9461   13.0505  -23.0484 C   0  0  0  0  0  0  0  0  0  0  0  0
  -16.1273   12.8486  -24.1022 N   0  0  0  0  0  0  0  0  0  0  0  0
  -15.6577   14.0258  -24.5777 C   0  0  0  0  0  0  0  0  0  0  0  0
  -14.7911   14.3489  -25.6080 C   0  0  0  0  0  0  0  0  0  0  0  0
  -14.4756   15.6920  -25.8400 C   0  0  0  0  0  0  0  0  0  0  0  0
  -15.0642   16.6236  -25.0080 C   0  0  0  0  0  0  0  0  0  0  0  0
  -15.9149   16.3351  -23.9931 C   0  0  0  0  0  0  0  0  0  0  0  0
  -16.2264   14.9744  -23.7680 C   0  0  0  0  0  0  0  0  0  0  0  0
  -17.0085   14.4070  -22.8396 N   0  0  0  0  0  0  0  0  0  0  0  0
  -17.7398   15.1150  -21.8471 C   0  0  0  0  0  0  0  0  0  0  0  0
  -17.1201   15.6680  -20.7549 C   0  0  0  0  0  0  0  0  0  0  0  0
  -17.8830   16.3453  -19.8149 C   0  0  0  0  0  0  0  0  0  0  0  0
  -17.2551   16.9075  -18.6866 N   0  0  0  0  0  0  0  0  0  0  0  0
  -19.2362   16.4612  -19.9754 N   0  0  0  0  0  0  0  0  0  0  0  0
  -19.8227   15.9102  -21.0587 C   0  0  0  0  0  0  0  0  0  0  0  0
  -19.0559   15.2657  -21.9424 N   0  0  0  0  0  0  0  0  0  0  0  0
  -16.6647   17.7459  -18.8024 H   0  0  0  0  0  0  0  0  0  0  0  0
  -17.3766   16.4874  -17.7510 H   0  0  0  0  0  0  0  0  0  0  0  0
  1  2  1  0  0  0
  2  3  2  0  0  0
  3  4  1  0  0  0
  4  5  2  0  0  0
  5  6  1  0  0  0
  6  7  2  0  0  0
  7 22  1  0  0  0
 22 24  1  0  0  0
 24 25  2  0  0  0
 25 26  1  0  0  0
 26 27  2  0  0  0
 27 28  1  0  0  0
 28 29  2  0  0  0
 29 30  1  0  0  0
 30 31  2  0  0  0
 31 32  1  0  0  0
 32 33  1  0  0  0
 33 34  2  0  0  0
 34 35  1  0  0  0
 35 36  1  0  0  0
 35 37  2  0  0  0
 37 38  1  0  0  0
 38 39  2  0  0  0
  5  8  1  0  0  0
  8  9  2  0  0  0
  8 10  1  0  0  0
 10 12  1  0  0  0
 12 13  2  0  0  0
 13 14  1  0  0  0
 14 15  2  0  0  0
 15 16  1  0  0  0
 16 17  2  0  0  0
 16 18  1  0  0  0
 18 19  1  0  0  0
 18 20  1  0  0  0
 18 21  1  0  0  0
  7  2  1  0  0  0
 32 24  1  0  0  0
 39 33  1  0  0  0
 17 12  1  0  0  0
 31 26  1  0  0  0
 22 23  1  0  0  0
 36 40  1  0  0  0
 36 41  1  0  0  0
 10 11  1  0  0  0
M  END
> <minimizedAffinity>
-9.61659

> <CNNscore>
0.2170732021

> <CNNaffinity>
7.2430648804

> <CNN_VS>
1.5722752810

> <CNNaffinity_variance>
0.1932461411

$$$$
[H]c1nc(N([H])[H])c([H])c(-n2c(N([H])c3c([H])c(C(=O)N([H])c4c([H])c([H])c([H])c(C(C([H])([H])[H])(C([H])([H])[H])C([H])([H])[H])c4[H])c([H])c([H])c3C([H])([H])[H])nc3c([H])c([H])c([H])c([H])c32)n1


 41 45  0  0  0  0  0  0  0  0999 V2000
  -15.5147   10.3709  -21.5379 C   0  0  0  0  0  0  0  0  0  0  0  0
  -16.4235   10.9595  -20.5218 C   0  0  0  0  0  0  0  0  0  0  0  0
  -16.1658   10.6513  -19.2038 C   0  0  0  0  0  0  0  0  0  0  0  0
  -16.9529   11.1358  -18.1974 C   0  0  0  0  0  0  0  0  0  0  0  0
  -18.0318   11.9566  -18.5372 C   0  0  0  0  0  0  0  0  0  0  0  0
  -18.2934   12.2658  -19.8470 C   0  0  0  0  0  0  0  0  0  0  0  0
  -17.5066   11.7869  -20.8898 C   0  0  0  0  0  0  0  0  0  0  0  0
  -18.7732   12.4382  -17.3622 C   0  0  0  0  0  0  0  0  0  0  0  0
  -18.5357   13.5600  -16.8655 O   0  0  0  0  0  0  0  0  0  0  0  0
  -19.7888   11.6543  -16.7636 N   0  0  0  0  0  0  0  0  0  0  0  0
  -19.9378   10.6865  -17.1911 H   0  0  0  0  0  0  0  0  0  0  0  0
  -20.6178   12.0135  -15.6807 C   0  0  0  0  0  0  0  0  0  0  0  0
  -21.4916   13.0574  -15.8169 C   0  0  0  0  0  0  0  0  0  0  0  0
  -22.2450   13.4829  -14.7548 C   0  0  0  0  0  0  0  0  0  0  0  0
  -22.1279   12.8649  -13.5404 C   0  0  0  0  0  0  0  0  0  0  0  0
  -21.2451   11.7917  -13.3514 C   0  0  0  0  0  0  0  0  0  0  0  0
  -20.5129   11.3914  -14.4289 C   0  0  0  0  0  0  0  0  0  0  0  0
  -21.1068   11.1650  -12.0400 C   0  0  0  0  0  0  0  0  0  0  0  0
  -19.6738   10.6363  -11.8674 C   0  0  0  0  0  0  0  0  0  0  0  0
  -21.5027   12.0211  -10.8714 C   0  0  0  0  0  0  0  0  0  0  0  0
  -21.9758    9.8863  -12.0498 C   0  0  0  0  0  0  0  0  0  0  0  0
  -17.6384   12.0713  -22.2330 N   0  0  0  0  0  0  0  0  0  0  0  0
  -18.3163   11.4414  -22.7794 H   0  0  0  0  0  0  0  0  0  0  0  0
  -17.0045   13.0552  -23.0245 C   0  0  0  0  0  0  0  0  0  0  0  0
  -16.2152   12.9138  -24.1102 N   0  0  0  0  0  0  0  0  0  0  0  0
  -15.7922   14.1198  -24.5564 C   0  0  0  0  0  0  0  0  0  0  0  0
  -14.9682   14.5033  -25.6008 C   0  0  0  0  0  0  0  0  0  0  0  0
  -14.6957   15.8621  -25.7930 C   0  0  0  0  0  0  0  0  0  0  0  0
  -15.2812   16.7467  -24.9093 C   0  0  0  0  0  0  0  0  0  0  0  0
  -16.0909   16.3987  -23.8795 C   0  0  0  0  0  0  0  0  0  0  0  0
  -16.3591   15.0227  -23.6949 C   0  0  0  0  0  0  0  0  0  0  0  0
  -17.0957   14.4012  -22.7640 N   0  0  0  0  0  0  0  0  0  0  0  0
  -17.8128   15.0527  -21.7236 C   0  0  0  0  0  0  0  0  0  0  0  0
  -17.1724   15.5878  -20.6346 C   0  0  0  0  0  0  0  0  0  0  0  0
  -17.9220   16.2095  -19.6467 C   0  0  0  0  0  0  0  0  0  0  0  0
  -17.2723   16.7528  -18.5215 N   0  0  0  0  0  0  0  0  0  0  0  0
  -19.2827   16.2888  -19.7575 N   0  0  0  0  0  0  0  0  0  0  0  0
  -19.8899   15.7563  -20.8387 C   0  0  0  0  0  0  0  0  0  0  0  0
  -19.1354   15.1657  -21.7694 N   0  0  0  0  0  0  0  0  0  0  0  0
  -16.7114   17.6125  -18.6282 H   0  0  0  0  0  0  0  0  0  0  0  0
  -17.3487   16.2982  -17.5973 H   0  0  0  0  0  0  0  0  0  0  0  0
  1  2  1  0  0  0
  2  3  2  0  0  0
  3  4  1  0  0  0
  4  5  2  0  0  0
  5  6  1  0  0  0
  6  7  2  0  0  0
  7 22  1  0  0  0
 22 24  1  0  0  0
 24 25  2  0  0  0
 25 26  1  0  0  0
 26 27  2  0  0  0
 27 28  1  0  0  0
 28 29  2  0  0  0
 29 30  1  0  0  0
 30 31  2  0  0  0
 31 32  1  0  0  0
 32 33  1  0  0  0
 33 34  2  0  0  0
 34 35  1  0  0  0
 35 36  1  0  0  0
 35 37  2  0  0  0
 37 38  1  0  0  0
 38 39  2  0  0  0
  5  8  1  0  0  0
  8  9  2  0  0  0
  8 10  1  0  0  0
 10 12  1  0  0  0
 12 13  2  0  0  0
 13 14  1  0  0  0
 14 15  2  0  0  0
 15 16  1  0  0  0
 16 17  2  0  0  0
 16 18  1  0  0  0
 18 19  1  0  0  0
 18 20  1  0  0  0
 18 21  1  0  0  0
  7  2  1  0  0  0
 32 24  1  0  0  0
 39 33  1  0  0  0
 17 12  1  0  0  0
 31 26  1  0  0  0
 22 23  1  0  0  0
 36 40  1  0  0  0
 36 41  1  0  0  0
 10 11  1  0  0  0
M  END
> <minimizedAffinity>
-9.86793

> <CNNscore>
0.2006371617

> <CNNaffinity>
6.9085083008

> <CNN_VS>
1.3861035109

> <CNNaffinity_variance>
0.2462808788

$$$$
[H]c1nc(N([H])[H])c([H])c(-n2c(N([H])c3c([H])c(C(=O)N([H])c4c([H])c([H])c([H])c(C(C([H])([H])[H])(C([H])([H])[H])C([H])([H])[H])c4[H])c([H])c([H])c3C([H])([H])[H])nc3c([H])c([H])c([H])c([H])c32)n1


 41 45  0  0  0  0  0  0  0  0999 V2000
  -15.5611   11.1174  -22.2275 C   0  0  0  0  0  0  0  0  0  0  0  0
  -16.4950   11.2912  -21.0864 C   0  0  0  0  0  0  0  0  0  0  0  0
  -16.4084   10.3697  -20.0658 C   0  0  0  0  0  0  0  0  0  0  0  0
  -17.2330   10.4393  -18.9783 C   0  0  0  0  0  0  0  0  0  0  0  0
  -18.1716   11.4733  -18.9242 C   0  0  0  0  0  0  0  0  0  0  0  0
  -18.2627   12.3925  -19.9372 C   0  0  0  0  0  0  0  0  0  0  0  0
  -17.4343   12.3448  -21.0539 C   0  0  0  0  0  0  0  0  0  0  0  0
  -18.9684   11.4550  -17.6883 C   0  0  0  0  0  0  0  0  0  0  0  0
  -19.2813   12.5162  -17.1075 O   0  0  0  0  0  0  0  0  0  0  0  0
  -19.4186   10.2373  -17.1236 N   0  0  0  0  0  0  0  0  0  0  0  0
  -19.1000    9.3496  -17.6257 H   0  0  0  0  0  0  0  0  0  0  0  0
  -20.2372   10.0747  -15.9869 C   0  0  0  0  0  0  0  0  0  0  0  0
  -21.5792   10.3244  -16.0803 C   0  0  0  0  0  0  0  0  0  0  0  0
  -22.3823   10.2590  -14.9724 C   0  0  0  0  0  0  0  0  0  0  0  0
  -21.8454    9.9434  -13.7547 C   0  0  0  0  0  0  0  0  0  0  0  0
  -20.4756    9.6807  -13.6086 C   0  0  0  0  0  0  0  0  0  0  0  0
  -19.7056    9.7511  -14.7309 C   0  0  0  0  0  0  0  0  0  0  0  0
  -19.9124    9.3790  -12.2957 C   0  0  0  0  0  0  0  0  0  0  0  0
  -18.8805    8.2468  -12.4229 C   0  0  0  0  0  0  0  0  0  0  0  0
  -19.3289   10.5509  -11.5598 C   0  0  0  0  0  0  0  0  0  0  0  0
  -21.0433    8.7570  -11.4445 C   0  0  0  0  0  0  0  0  0  0  0  0
  -17.3965   13.2387  -22.1036 N   0  0  0  0  0  0  0  0  0  0  0  0
  -16.8842   12.9015  -22.9861 H   0  0  0  0  0  0  0  0  0  0  0  0
  -17.9100   14.5512  -22.2041 C   0  0  0  0  0  0  0  0  0  0  0  0
  -18.9330   15.1316  -21.5421 N   0  0  0  0  0  0  0  0  0  0  0  0
  -19.1120   16.4072  -21.9582 C   0  0  0  0  0  0  0  0  0  0  0  0
  -20.0196   17.3939  -21.6124 C   0  0  0  0  0  0  0  0  0  0  0  0
  -19.9596   18.6342  -22.2570 C   0  0  0  0  0  0  0  0  0  0  0  0
  -18.9769   18.7928  -23.2138 C   0  0  0  0  0  0  0  0  0  0  0  0
  -18.0767   17.8448  -23.5714 C   0  0  0  0  0  0  0  0  0  0  0  0
  -18.1470   16.5952  -22.9133 C   0  0  0  0  0  0  0  0  0  0  0  0
  -17.4100   15.4881  -23.0759 N   0  0  0  0  0  0  0  0  0  0  0  0
  -16.3301   15.3552  -23.9909 C   0  0  0  0  0  0  0  0  0  0  0  0
  -16.4733   15.6586  -25.3213 C   0  0  0  0  0  0  0  0  0  0  0  0
  -15.3870   15.5071  -26.1707 C   0  0  0  0  0  0  0  0  0  0  0  0
  -15.5292   15.8077  -27.5392 N   0  0  0  0  0  0  0  0  0  0  0  0
  -14.1877   15.0617  -25.6875 N   0  0  0  0  0  0  0  0  0  0  0  0
  -14.0709   14.7712  -24.3749 C   0  0  0  0  0  0  0  0  0  0  0  0
  -15.1384   14.9293  -23.5877 N   0  0  0  0  0  0  0  0  0  0  0  0
  -15.6143   16.7931  -27.8338 H   0  0  0  0  0  0  0  0  0  0  0  0
  -15.5534   15.0544  -28.2453 H   0  0  0  0  0  0  0  0  0  0  0  0
  1  2  1  0  0  0
  2  3  2  0  0  0
  3  4  1  0  0  0
  4  5  2  0  0  0
  5  6  1  0  0  0
  6  7  2  0  0  0
  7 22  1  0  0  0
 22 24  1  0  0  0
 24 25  2  0  0  0
 25 26  1  0  0  0
 26 27  2  0  0  0
 27 28  1  0  0  0
 28 29  2  0  0  0
 29 30  1  0  0  0
 30 31  2  0  0  0
 31 32  1  0  0  0
 32 33  1  0  0  0
 33 34  2  0  0  0
 34 35  1  0  0  0
 35 36  1  0  0  0
 35 37  2  0  0  0
 37 38  1  0  0  0
 38 39  2  0  0  0
  5  8  1  0  0  0
  8  9  2  0  0  0
  8 10  1  0  0  0
 10 12  1  0  0  0
 12 13  2  0  0  0
 13 14  1  0  0  0
 14 15  2  0  0  0
 15 16  1  0  0  0
 16 17  2  0  0  0
 16 18  1  0  0  0
 18 19  1  0  0  0
 18 20  1  0  0  0
 18 21  1  0  0  0
  7  2  1  0  0  0
 32 24  1  0  0  0
 39 33  1  0  0  0
 17 12  1  0  0  0
 31 26  1  0  0  0
 22 23  1  0  0  0
 36 40  1  0  0  0
 36 41  1  0  0  0
 10 11  1  0  0  0
M  END
> <minimizedAffinity>
-10.03118

> <CNNscore>
0.1977970898

> <CNNaffinity>
6.7476387024

> <CNN_VS>
1.3346632719

> <CNNaffinity_variance>
0.2943314016

$$$$
[H]c1nc(N([H])[H])c([H])c(-n2c(N([H])c3c([H])c(C(=O)N([H])c4c([H])c([H])c([H])c(C(C([H])([H])[H])(C([H])([H])[H])C([H])([H])[H])c4[H])c([H])c([H])c3C([H])([H])[H])nc3c([H])c([H])c([H])c([H])c32)n1


 41 45  0  0  0  0  0  0  0  0999 V2000
  -17.3547   18.6840  -21.0274 C   0  0  0  0  0  0  0  0  0  0  0  0
  -17.9063   17.5797  -20.2021 C   0  0  0  0  0  0  0  0  0  0  0  0
  -18.9854   17.8815  -19.4004 C   0  0  0  0  0  0  0  0  0  0  0  0
  -19.5556   16.9350  -18.5964 C   0  0  0  0  0  0  0  0  0  0  0  0
  -19.0164   15.6457  -18.6063 C   0  0  0  0  0  0  0  0  0  0  0  0
  -17.9422   15.3401  -19.4014 C   0  0  0  0  0  0  0  0  0  0  0  0
  -17.3447   16.2847  -20.2299 C   0  0  0  0  0  0  0  0  0  0  0  0
  -19.7433   14.7177  -17.7271 C   0  0  0  0  0  0  0  0  0  0  0  0
  -20.7874   15.0714  -17.1389 O   0  0  0  0  0  0  0  0  0  0  0  0
  -19.2928   13.3902  -17.5289 N   0  0  0  0  0  0  0  0  0  0  0  0
  -18.3772   13.1354  -18.0169 H   0  0  0  0  0  0  0  0  0  0  0  0
  -19.9199   12.3803  -16.7702 C   0  0  0  0  0  0  0  0  0  0  0  0
  -19.7090   11.0668  -17.0897 C   0  0  0  0  0  0  0  0  0  0  0  0
  -20.3733   10.0694  -16.4259 C   0  0  0  0  0  0  0  0  0  0  0  0
  -21.2606   10.3803  -15.4327 C   0  0  0  0  0  0  0  0  0  0  0  0
  -21.5113   11.7118  -15.0705 C   0  0  0  0  0  0  0  0  0  0  0  0
  -20.8317   12.6793  -15.7483 C   0  0  0  0  0  0  0  0  0  0  0  0
  -22.4870   12.0285  -14.0315 C   0  0  0  0  0  0  0  0  0  0  0  0
  -22.6607   13.5525  -13.9317 C   0  0  0  0  0  0  0  0  0  0  0  0
  -23.8190   11.3488  -14.1694 C   0  0  0  0  0  0  0  0  0  0  0  0
  -21.8553   11.6370  -12.6758 C   0  0  0  0  0  0  0  0  0  0  0  0
  -16.3006   16.0827  -21.1083 N   0  0  0  0  0  0  0  0  0  0  0  0
  -15.3147   16.1592  -20.6874 H   0  0  0  0  0  0  0  0  0  0  0  0
  -16.3136   15.8081  -22.4942 C   0  0  0  0  0  0  0  0  0  0  0  0
  -16.1420   16.6419  -23.5417 N   0  0  0  0  0  0  0  0  0  0  0  0
  -16.2543   15.9714  -24.7123 C   0  0  0  0  0  0  0  0  0  0  0  0
  -16.1820   16.3673  -26.0370 C   0  0  0  0  0  0  0  0  0  0  0  0
  -16.3700   15.4164  -27.0459 C   0  0  0  0  0  0  0  0  0  0  0  0
  -16.6186   14.1197  -26.6421 C   0  0  0  0  0  0  0  0  0  0  0  0
  -16.6945   13.7053  -25.3539 C   0  0  0  0  0  0  0  0  0  0  0  0
  -16.5031   14.6751  -24.3428 C   0  0  0  0  0  0  0  0  0  0  0  0
  -16.5414   14.5547  -23.0089 N   0  0  0  0  0  0  0  0  0  0  0  0
  -16.7797   13.3418  -22.3067 C   0  0  0  0  0  0  0  0  0  0  0  0
  -15.8505   12.3326  -22.2787 C   0  0  0  0  0  0  0  0  0  0  0  0
  -16.1368   11.1684  -21.5808 C   0  0  0  0  0  0  0  0  0  0  0  0
  -15.1916   10.1246  -21.5555 N   0  0  0  0  0  0  0  0  0  0  0  0
  -17.3303   11.0287  -20.9280 N   0  0  0  0  0  0  0  0  0  0  0  0
  -18.2277   12.0358  -20.9688 C   0  0  0  0  0  0  0  0  0  0  0  0
  -17.9170   13.1416  -21.6506 N   0  0  0  0  0  0  0  0  0  0  0  0
  -14.3289   10.2377  -21.0006 H   0  0  0  0  0  0  0  0  0  0  0  0
  -15.3521    9.2543  -22.0879 H   0  0  0  0  0  0  0  0  0  0  0  0
  1  2  1  0  0  0
  2  3  2  0  0  0
  3  4  1  0  0  0
  4  5  2  0  0  0
  5  6  1  0  0  0
  6  7  2  0  0  0
  7 22  1  0  0  0
 22 24  1  0  0  0
 24 25  2  0  0  0
 25 26  1  0  0  0
 26 27  2  0  0  0
 27 28  1  0  0  0
 28 29  2  0  0  0
 29 30  1  0  0  0
 30 31  2  0  0  0
 31 32  1  0  0  0
 32 33  1  0  0  0
 33 34  2  0  0  0
 34 35  1  0  0  0
 35 36  1  0  0  0
 35 37  2  0  0  0
 37 38  1  0  0  0
 38 39  2  0  0  0
  5  8  1  0  0  0
  8  9  2  0  0  0
  8 10  1  0  0  0
 10 12  1  0  0  0
 12 13  2  0  0  0
 13 14  1  0  0  0
 14 15  2  0  0  0
 15 16  1  0  0  0
 16 17  2  0  0  0
 16 18  1  0  0  0
 18 19  1  0  0  0
 18 20  1  0  0  0
 18 21  1  0  0  0
  7  2  1  0  0  0
 32 24  1  0  0  0
 39 33  1  0  0  0
 17 12  1  0  0  0
 31 26  1  0  0  0
 22 23  1  0  0  0
 36 40  1  0  0  0
 36 41  1  0  0  0
 10 11  1  0  0  0
M  END
> <minimizedAffinity>
-8.58738

> <CNNscore>
0.1937148571

> <CNNaffinity>
7.3199067116

> <CNN_VS>
1.4179747105

> <CNNaffinity_variance>
0.2239610255

$$$$
[H]c1nc(N([H])[H])c([H])c(-n2c(N([H])c3c([H])c(C(=O)N([H])c4c([H])c([H])c([H])c(C(C([H])([H])[H])(C([H])([H])[H])C([H])([H])[H])c4[H])c([H])c([H])c3C([H])([H])[H])nc3c([H])c([H])c([H])c([H])c32)n1


 41 45  0  0  0  0  0  0  0  0999 V2000
  -15.5292   11.5229  -22.6709 C   0  0  0  0  0  0  0  0  0  0  0  0
  -16.4078   11.4916  -21.4744 C   0  0  0  0  0  0  0  0  0  0  0  0
  -16.0881   10.5805  -20.4915 C   0  0  0  0  0  0  0  0  0  0  0  0
  -16.8432   10.4688  -19.3581 C   0  0  0  0  0  0  0  0  0  0  0  0
  -17.9540   11.3052  -19.2174 C   0  0  0  0  0  0  0  0  0  0  0  0
  -18.2773   12.2129  -20.1926 C   0  0  0  0  0  0  0  0  0  0  0  0
  -17.5242   12.3475  -21.3546 C   0  0  0  0  0  0  0  0  0  0  0  0
  -18.6564   11.1091  -17.9404 C   0  0  0  0  0  0  0  0  0  0  0  0
  -19.1165   12.0799  -17.3022 O   0  0  0  0  0  0  0  0  0  0  0  0
  -18.8466    9.8149  -17.3989 N   0  0  0  0  0  0  0  0  0  0  0  0
  -18.4070    9.0135  -17.9521 H   0  0  0  0  0  0  0  0  0  0  0  0
  -19.5510    9.4757  -16.2253 C   0  0  0  0  0  0  0  0  0  0  0  0
  -18.9801    8.6266  -15.3170 C   0  0  0  0  0  0  0  0  0  0  0  0
  -19.6762    8.2119  -14.2124 C   0  0  0  0  0  0  0  0  0  0  0  0
  -20.9575    8.6444  -14.0078 C   0  0  0  0  0  0  0  0  0  0  0  0
  -21.5858    9.5138  -14.9112 C   0  0  0  0  0  0  0  0  0  0  0  0
  -20.8644    9.9095  -15.9977 C   0  0  0  0  0  0  0  0  0  0  0  0
  -22.9659    9.9390  -14.6962 C   0  0  0  0  0  0  0  0  0  0  0  0
  -23.0299   11.4731  -14.6246 C   0  0  0  0  0  0  0  0  0  0  0  0
  -23.9648    9.4101  -15.6851 C   0  0  0  0  0  0  0  0  0  0  0  0
  -23.3690    9.4835  -13.2748 C   0  0  0  0  0  0  0  0  0  0  0  0
  -17.7187   13.2557  -22.3744 N   0  0  0  0  0  0  0  0  0  0  0  0
  -17.5579   12.8823  -23.3692 H   0  0  0  0  0  0  0  0  0  0  0  0
  -18.0798   14.6208  -22.3248 C   0  0  0  0  0  0  0  0  0  0  0  0
  -19.0396   15.2347  -21.6013 N   0  0  0  0  0  0  0  0  0  0  0  0
  -19.0684   16.5612  -21.8695 C   0  0  0  0  0  0  0  0  0  0  0  0
  -19.8636   17.5989  -21.4137 C   0  0  0  0  0  0  0  0  0  0  0  0
  -19.6559   18.8893  -21.9129 C   0  0  0  0  0  0  0  0  0  0  0  0
  -18.6492   19.0428  -22.8452 C   0  0  0  0  0  0  0  0  0  0  0  0
  -17.8568   18.0454  -23.3083 C   0  0  0  0  0  0  0  0  0  0  0  0
  -18.0759   16.7455  -22.7967 C   0  0  0  0  0  0  0  0  0  0  0  0
  -17.4661   15.5875  -23.0842 N   0  0  0  0  0  0  0  0  0  0  0  0
  -16.3962   15.4375  -24.0082 C   0  0  0  0  0  0  0  0  0  0  0  0
  -16.5598   15.6950  -25.3459 C   0  0  0  0  0  0  0  0  0  0  0  0
  -15.4824   15.5286  -26.2037 C   0  0  0  0  0  0  0  0  0  0  0  0
  -15.6453   15.7821  -27.5795 N   0  0  0  0  0  0  0  0  0  0  0  0
  -14.2716   15.1138  -25.7217 N   0  0  0  0  0  0  0  0  0  0  0  0
  -14.1349   14.8683  -24.4018 C   0  0  0  0  0  0  0  0  0  0  0  0
  -15.1944   15.0395  -23.6065 N   0  0  0  0  0  0  0  0  0  0  0  0
  -15.7463   16.7561  -27.9052 H   0  0  0  0  0  0  0  0  0  0  0  0
  -15.6689   15.0056  -28.2600 H   0  0  0  0  0  0  0  0  0  0  0  0
  1  2  1  0  0  0
  2  3  2  0  0  0
  3  4  1  0  0  0
  4  5  2  0  0  0
  5  6  1  0  0  0
  6  7  2  0  0  0
  7 22  1  0  0  0
 22 24  1  0  0  0
 24 25  2  0  0  0
 25 26  1  0  0  0
 26 27  2  0  0  0
 27 28  1  0  0  0
 28 29  2  0  0  0
 29 30  1  0  0  0
 30 31  2  0  0  0
 31 32  1  0  0  0
 32 33  1  0  0  0
 33 34  2  0  0  0
 34 35  1  0  0  0
 35 36  1  0  0  0
 35 37  2  0  0  0
 37 38  1  0  0  0
 38 39  2  0  0  0
  5  8  1  0  0  0
  8  9  2  0  0  0
  8 10  1  0  0  0
 10 12  1  0  0  0
 12 13  2  0  0  0
 13 14  1  0  0  0
 14 15  2  0  0  0
 15 16  1  0  0  0
 16 17  2  0  0  0
 16 18  1  0  0  0
 18 19  1  0  0  0
 18 20  1  0  0  0
 18 21  1  0  0  0
  7  2  1  0  0  0
 32 24  1  0  0  0
 39 33  1  0  0  0
 17 12  1  0  0  0
 31 26  1  0  0  0
 22 23  1  0  0  0
 36 40  1  0  0  0
 36 41  1  0  0  0
 10 11  1  0  0  0
M  END
> <minimizedAffinity>
-9.83810

> <CNNscore>
0.1894763112

> <CNNaffinity>
6.7724914551

> <CNN_VS>
1.2832267284

> <CNNaffinity_variance>
0.3300762177

$$$$
[H]c1nc(N([H])[H])c([H])c(-n2c(N([H])c3c([H])c(C(=O)N([H])c4c([H])c([H])c([H])c(C(C([H])([H])[H])(C([H])([H])[H])C([H])([H])[H])c4[H])c([H])c([H])c3C([H])([H])[H])nc3c([H])c([H])c([H])c([H])c32)n1


 41 45  0  0  0  0  0  0  0  0999 V2000
  -19.5906   17.5073  -23.3620 C   0  0  0  0  0  0  0  0  0  0  0  0
  -19.7590   17.3302  -21.8974 C   0  0  0  0  0  0  0  0  0  0  0  0
  -20.3439   18.3701  -21.2083 C   0  0  0  0  0  0  0  0  0  0  0  0
  -20.5314   18.3056  -19.8563 C   0  0  0  0  0  0  0  0  0  0  0  0
  -20.1142   17.1536  -19.1841 C   0  0  0  0  0  0  0  0  0  0  0  0
  -19.5308   16.1162  -19.8646 C   0  0  0  0  0  0  0  0  0  0  0  0
  -19.3301   16.1562  -21.2407 C   0  0  0  0  0  0  0  0  0  0  0  0
  -20.4063   17.1974  -17.7435 C   0  0  0  0  0  0  0  0  0  0  0  0
  -20.6704   16.1548  -17.1074 O   0  0  0  0  0  0  0  0  0  0  0  0
  -20.3846   18.4185  -17.0274 N   0  0  0  0  0  0  0  0  0  0  0  0
  -20.1928   19.2928  -17.6108 H   0  0  0  0  0  0  0  0  0  0  0  0
  -20.5808   18.5996  -15.6427 C   0  0  0  0  0  0  0  0  0  0  0  0
  -19.5226   18.4587  -14.7870 C   0  0  0  0  0  0  0  0  0  0  0  0
  -19.7022   18.5429  -13.4315 C   0  0  0  0  0  0  0  0  0  0  0  0
  -20.9499   18.7679  -12.9184 C   0  0  0  0  0  0  0  0  0  0  0  0
  -22.0654   18.9175  -13.7551 C   0  0  0  0  0  0  0  0  0  0  0  0
  -21.8515   18.8315  -15.0983 C   0  0  0  0  0  0  0  0  0  0  0  0
  -23.3961   19.1230  -13.1903 C   0  0  0  0  0  0  0  0  0  0  0  0
  -23.4684   20.5071  -12.5257 C   0  0  0  0  0  0  0  0  0  0  0  0
  -24.5386   18.9310  -14.1459 C   0  0  0  0  0  0  0  0  0  0  0  0
  -23.5499   18.1358  -12.0105 C   0  0  0  0  0  0  0  0  0  0  0  0
  -18.8065   15.1591  -22.0370 N   0  0  0  0  0  0  0  0  0  0  0  0
  -18.9127   15.3034  -23.0966 H   0  0  0  0  0  0  0  0  0  0  0  0
  -18.1624   13.9522  -21.6836 C   0  0  0  0  0  0  0  0  0  0  0  0
  -18.3305   13.1694  -20.5969 N   0  0  0  0  0  0  0  0  0  0  0  0
  -17.4909   12.1082  -20.6353 C   0  0  0  0  0  0  0  0  0  0  0  0
  -17.2655   11.0517  -19.7693 C   0  0  0  0  0  0  0  0  0  0  0  0
  -16.2865   10.1042  -20.0873 C   0  0  0  0  0  0  0  0  0  0  0  0
  -15.5983   10.2912  -21.2695 C   0  0  0  0  0  0  0  0  0  0  0  0
  -15.7985   11.3152  -22.1346 C   0  0  0  0  0  0  0  0  0  0  0  0
  -16.7904   12.2668  -21.8027 C   0  0  0  0  0  0  0  0  0  0  0  0
  -17.1813   13.3725  -22.4510 N   0  0  0  0  0  0  0  0  0  0  0  0
  -16.6498   13.8207  -23.6910 C   0  0  0  0  0  0  0  0  0  0  0  0
  -15.3571   14.2674  -23.7999 C   0  0  0  0  0  0  0  0  0  0  0  0
  -14.8912   14.6968  -25.0340 C   0  0  0  0  0  0  0  0  0  0  0  0
  -13.5683   15.1654  -25.1515 N   0  0  0  0  0  0  0  0  0  0  0  0
  -15.7104   14.6743  -26.1289 N   0  0  0  0  0  0  0  0  0  0  0  0
  -16.9775   14.2292  -25.9971 C   0  0  0  0  0  0  0  0  0  0  0  0
  -17.3907   13.8238  -24.7933 N   0  0  0  0  0  0  0  0  0  0  0  0
  -12.7875   14.4927  -25.0978 H   0  0  0  0  0  0  0  0  0  0  0  0
  -13.3745   16.1709  -25.2856 H   0  0  0  0  0  0  0  0  0  0  0  0
  1  2  1  0  0  0
  2  3  2  0  0  0
  3  4  1  0  0  0
  4  5  2  0  0  0
  5  6  1  0  0  0
  6  7  2  0  0  0
  7 22  1  0  0  0
 22 24  1  0  0  0
 24 25  2  0  0  0
 25 26  1  0  0  0
 26 27  2  0  0  0
 27 28  1  0  0  0
 28 29  2  0  0  0
 29 30  1  0  0  0
 30 31  2  0  0  0
 31 32  1  0  0  0
 32 33  1  0  0  0
 33 34  2  0  0  0
 34 35  1  0  0  0
 35 36  1  0  0  0
 35 37  2  0  0  0
 37 38  1  0  0  0
 38 39  2  0  0  0
  5  8  1  0  0  0
  8  9  2  0  0  0
  8 10  1  0  0  0
 10 12  1  0  0  0
 12 13  2  0  0  0
 13 14  1  0  0  0
 14 15  2  0  0  0
 15 16  1  0  0  0
 16 17  2  0  0  0
 16 18  1  0  0  0
 18 19  1  0  0  0
 18 20  1  0  0  0
 18 21  1  0  0  0
  7  2  1  0  0  0
 32 24  1  0  0  0
 39 33  1  0  0  0
 17 12  1  0  0  0
 31 26  1  0  0  0
 22 23  1  0  0  0
 36 40  1  0  0  0
 36 41  1  0  0  0
 10 11  1  0  0  0
M  END
> <minimizedAffinity>
-8.82817

> <CNNscore>
0.1719845384

> <CNNaffinity>
6.4630250931

> <CNN_VS>
1.1115404367

> <CNNaffinity_variance>
0.2090055496

$$$$
[H]c1nc(N([H])[H])c([H])c(-n2c(N([H])c3c([H])c(C(=O)N([H])c4c([H])c([H])c([H])c(C(C([H])([H])[H])(C([H])([H])[H])C([H])([H])[H])c4[H])c([H])c([H])c3C([H])([H])[H])nc3c([H])c([H])c([H])c([H])c32)n1


 41 45  0  0  0  0  0  0  0  0999 V2000
  -15.5921   10.3378  -21.5397 C   0  0  0  0  0  0  0  0  0  0  0  0
  -16.4636   11.0068  -20.5408 C   0  0  0  0  0  0  0  0  0  0  0  0
  -16.2247   10.7187  -19.2148 C   0  0  0  0  0  0  0  0  0  0  0  0
  -16.9811   11.2762  -18.2227 C   0  0  0  0  0  0  0  0  0  0  0  0
  -18.0086   12.1512  -18.5857 C   0  0  0  0  0  0  0  0  0  0  0  0
  -18.2513   12.4408  -19.9036 C   0  0  0  0  0  0  0  0  0  0  0  0
  -17.4950   11.8879  -20.9322 C   0  0  0  0  0  0  0  0  0  0  0  0
  -18.7194   12.7077  -17.4248 C   0  0  0  0  0  0  0  0  0  0  0  0
  -18.3174   13.7476  -16.8606 O   0  0  0  0  0  0  0  0  0  0  0  0
  -19.8891   12.0926  -16.9170 N   0  0  0  0  0  0  0  0  0  0  0  0
  -20.1811   11.1855  -17.4001 H   0  0  0  0  0  0  0  0  0  0  0  0
  -20.7023   12.5481  -15.8586 C   0  0  0  0  0  0  0  0  0  0  0  0
  -20.8043   11.8018  -14.7165 C   0  0  0  0  0  0  0  0  0  0  0  0
  -21.6540   12.1760  -13.7091 C   0  0  0  0  0  0  0  0  0  0  0  0
  -22.4144   13.3055  -13.8384 C   0  0  0  0  0  0  0  0  0  0  0  0
  -22.3457   14.1019  -14.9907 C   0  0  0  0  0  0  0  0  0  0  0  0
  -21.4882   13.7032  -15.9722 C   0  0  0  0  0  0  0  0  0  0  0  0
  -23.1893   15.2857  -15.1276 C   0  0  0  0  0  0  0  0  0  0  0  0
  -22.7186   16.3730  -14.1484 C   0  0  0  0  0  0  0  0  0  0  0  0
  -23.3054   15.8370  -16.5198 C   0  0  0  0  0  0  0  0  0  0  0  0
  -24.5970   14.9064  -14.6130 C   0  0  0  0  0  0  0  0  0  0  0  0
  -17.6096   12.1440  -22.2826 N   0  0  0  0  0  0  0  0  0  0  0  0
  -18.2772   11.4999  -22.8251 H   0  0  0  0  0  0  0  0  0  0  0  0
  -16.9692   13.1144  -23.0855 C   0  0  0  0  0  0  0  0  0  0  0  0
  -16.1595   12.9542  -24.1535 N   0  0  0  0  0  0  0  0  0  0  0  0
  -15.7379   14.1529  -24.6202 C   0  0  0  0  0  0  0  0  0  0  0  0
  -14.8983   14.5187  -25.6586 C   0  0  0  0  0  0  0  0  0  0  0  0
  -14.6328   15.8748  -25.8776 C   0  0  0  0  0  0  0  0  0  0  0  0
  -15.2408   16.7749  -25.0252 C   0  0  0  0  0  0  0  0  0  0  0  0
  -16.0661   16.4444  -24.0021 C   0  0  0  0  0  0  0  0  0  0  0  0
  -16.3270   15.0710  -23.7902 C   0  0  0  0  0  0  0  0  0  0  0  0
  -17.0753   14.4652  -22.8582 N   0  0  0  0  0  0  0  0  0  0  0  0
  -17.8159   15.1349  -21.8462 C   0  0  0  0  0  0  0  0  0  0  0  0
  -17.2411   15.4945  -20.6533 C   0  0  0  0  0  0  0  0  0  0  0  0
  -18.0115   16.1431  -19.6993 C   0  0  0  0  0  0  0  0  0  0  0  0
  -17.4308   16.5068  -18.4689 N   0  0  0  0  0  0  0  0  0  0  0  0
  -19.3277   16.4215  -19.9452 N   0  0  0  0  0  0  0  0  0  0  0  0
  -19.8702   16.0593  -21.1266 C   0  0  0  0  0  0  0  0  0  0  0  0
  -19.0975   15.4365  -22.0207 N   0  0  0  0  0  0  0  0  0  0  0  0
  -16.7525   17.2841  -18.4406 H   0  0  0  0  0  0  0  0  0  0  0  0
  -17.6735   16.0022  -17.6011 H   0  0  0  0  0  0  0  0  0  0  0  0
  1  2  1  0  0  0
  2  3  2  0  0  0
  3  4  1  0  0  0
  4  5  2  0  0  0
  5  6  1  0  0  0
  6  7  2  0  0  0
  7 22  1  0  0  0
 22 24  1  0  0  0
 24 25  2  0  0  0
 25 26  1  0  0  0
 26 27  2  0  0  0
 27 28  1  0  0  0
 28 29  2  0  0  0
 29 30  1  0  0  0
 30 31  2  0  0  0
 31 32  1  0  0  0
 32 33  1  0  0  0
 33 34  2  0  0  0
 34 35  1  0  0  0
 35 36  1  0  0  0
 35 37  2  0  0  0
 37 38  1  0  0  0
 38 39  2  0  0  0
  5  8  1  0  0  0
  8  9  2  0  0  0
  8 10  1  0  0  0
 10 12  1  0  0  0
 12 13  2  0  0  0
 13 14  1  0  0  0
 14 15  2  0  0  0
 15 16  1  0  0  0
 16 17  2  0  0  0
 16 18  1  0  0  0
 18 19  1  0  0  0
 18 20  1  0  0  0
 18 21  1  0  0  0
  7  2  1  0  0  0
 32 24  1  0  0  0
 39 33  1  0  0  0
 17 12  1  0  0  0
 31 26  1  0  0  0
 22 23  1  0  0  0
 36 40  1  0  0  0
 36 41  1  0  0  0
 10 11  1  0  0  0
M  END
> <minimizedAffinity>
-9.63836

> <CNNscore>
0.1429210901

> <CNNaffinity>
6.7526650429

> <CNN_VS>
0.9650982618

> <CNNaffinity_variance>
0.4434315562

$$$$
[H]c1nc(N([H])[H])c([H])c(-n2c(N([H])c3c([H])c(C(=O)N([H])c4c([H])c([H])c([H])c(C(C([H])([H])[H])(C([H])([H])[H])C([H])([H])[H])c4[H])c([H])c([H])c3C([H])([H])[H])nc3c([H])c([H])c([H])c([H])c32)n1


 41 45  0  0  0  0  0  0  0  0999 V2000
  -19.4268   17.5033  -23.3754 C   0  0  0  0  0  0  0  0  0  0  0  0
  -19.9162   17.4269  -21.9757 C   0  0  0  0  0  0  0  0  0  0  0  0
  -20.6346   18.5057  -21.5082 C   0  0  0  0  0  0  0  0  0  0  0  0
  -21.1171   18.5337  -20.2301 C   0  0  0  0  0  0  0  0  0  0  0  0
  -20.8644   17.4361  -19.4027 C   0  0  0  0  0  0  0  0  0  0  0  0
  -20.1494   16.3604  -19.8623 C   0  0  0  0  0  0  0  0  0  0  0  0
  -19.6488   16.3066  -21.1593 C   0  0  0  0  0  0  0  0  0  0  0  0
  -21.4681   17.5771  -18.0692 C   0  0  0  0  0  0  0  0  0  0  0  0
  -21.3000   16.7051  -17.1902 O   0  0  0  0  0  0  0  0  0  0  0  0
  -22.2473   18.7102  -17.7328 N   0  0  0  0  0  0  0  0  0  0  0  0
  -22.4010   19.4156  -18.5205 H   0  0  0  0  0  0  0  0  0  0  0  0
  -22.8294   19.0053  -16.4827 C   0  0  0  0  0  0  0  0  0  0  0  0
  -24.1714   18.8117  -16.3004 C   0  0  0  0  0  0  0  0  0  0  0  0
  -24.7776   19.1719  -15.1258 C   0  0  0  0  0  0  0  0  0  0  0  0
  -24.0417   19.7339  -14.1192 C   0  0  0  0  0  0  0  0  0  0  0  0
  -22.6638   19.9535  -14.2596 C   0  0  0  0  0  0  0  0  0  0  0  0
  -22.0915   19.5810  -15.4391 C   0  0  0  0  0  0  0  0  0  0  0  0
  -21.8989   20.5860  -13.1887 C   0  0  0  0  0  0  0  0  0  0  0  0
  -21.3397   19.5085  -12.2459 C   0  0  0  0  0  0  0  0  0  0  0  0
  -20.8099   21.5175  -13.6379 C   0  0  0  0  0  0  0  0  0  0  0  0
  -22.9025   21.3656  -12.3083 C   0  0  0  0  0  0  0  0  0  0  0  0
  -18.9663   15.2622  -21.7475 N   0  0  0  0  0  0  0  0  0  0  0  0
  -18.7665   15.3677  -22.7982 H   0  0  0  0  0  0  0  0  0  0  0  0
  -18.4978   14.0501  -21.1929 C   0  0  0  0  0  0  0  0  0  0  0  0
  -18.7609   13.4904  -19.9932 N   0  0  0  0  0  0  0  0  0  0  0  0
  -18.0838   12.3274  -19.8472 C   0  0  0  0  0  0  0  0  0  0  0  0
  -18.0003   11.4073  -18.8160 C   0  0  0  0  0  0  0  0  0  0  0  0
  -17.1729   10.2887  -18.9633 C   0  0  0  0  0  0  0  0  0  0  0  0
  -16.4826   10.1761  -20.1537 C   0  0  0  0  0  0  0  0  0  0  0  0
  -16.5459   11.0610  -21.1784 C   0  0  0  0  0  0  0  0  0  0  0  0
  -17.3851   12.1877  -21.0182 C   0  0  0  0  0  0  0  0  0  0  0  0
  -17.6220   13.2156  -21.8444 N   0  0  0  0  0  0  0  0  0  0  0  0
  -17.0500   13.3709  -23.1366 C   0  0  0  0  0  0  0  0  0  0  0  0
  -17.5103   12.6612  -24.2168 C   0  0  0  0  0  0  0  0  0  0  0  0
  -16.9127   12.8493  -25.4545 C   0  0  0  0  0  0  0  0  0  0  0  0
  -17.3737   12.1174  -26.5659 N   0  0  0  0  0  0  0  0  0  0  0  0
  -15.8779   13.7322  -25.5963 N   0  0  0  0  0  0  0  0  0  0  0  0
  -15.4437   14.4199  -24.5194 C   0  0  0  0  0  0  0  0  0  0  0  0
  -16.0435   14.2124  -23.3440 N   0  0  0  0  0  0  0  0  0  0  0  0
  -18.2898   12.3509  -26.9797 H   0  0  0  0  0  0  0  0  0  0  0  0
  -16.8078   11.3511  -26.9647 H   0  0  0  0  0  0  0  0  0  0  0  0
  1  2  1  0  0  0
  2  3  2  0  0  0
  3  4  1  0  0  0
  4  5  2  0  0  0
  5  6  1  0  0  0
  6  7  2  0  0  0
  7 22  1  0  0  0
 22 24  1  0  0  0
 24 25  2  0  0  0
 25 26  1  0  0  0
 26 27  2  0  0  0
 27 28  1  0  0  0
 28 29  2  0  0  0
 29 30  1  0  0  0
 30 31  2  0  0  0
 31 32  1  0  0  0
 32 33  1  0  0  0
 33 34  2  0  0  0
 34 35  1  0  0  0
 35 36  1  0  0  0
 35 37  2  0  0  0
 37 38  1  0  0  0
 38 39  2  0  0  0
  5  8  1  0  0  0
  8  9  2  0  0  0
  8 10  1  0  0  0
 10 12  1  0  0  0
 12 13  2  0  0  0
 13 14  1  0  0  0
 14 15  2  0  0  0
 15 16  1  0  0  0
 16 17  2  0  0  0
 16 18  1  0  0  0
 18 19  1  0  0  0
 18 20  1  0  0  0
 18 21  1  0  0  0
  7  2  1  0  0  0
 32 24  1  0  0  0
 39 33  1  0  0  0
 17 12  1  0  0  0
 31 26  1  0  0  0
 22 23  1  0  0  0
 36 40  1  0  0  0
 36 41  1  0  0  0
 10 11  1  0  0  0
M  END
> <minimizedAffinity>
-8.33430

> <CNNscore>
0.1425888687

> <CNNaffinity>
6.4210004807

> <CNN_VS>
0.9155631661

> <CNNaffinity_variance>
0.1162553579

$$$$
[H]c1nc(N([H])[H])c([H])c(-n2c(N([H])c3c([H])c(N([H])C(=O)c4sc(C(C([H])([H])[H])(C([H])([H])[H])C([H])([H])[H])c([H])c4[H])c([H])c([H])c3C([H])([H])[H])nc3c([H])c([H])c([H])c([H])c32)n1


 40 44  0  0  0  0  0  0  0  0999 V2000
  -16.2896   18.3966  -20.7999 C   0  0  0  0  0  0  0  0  0  0  0  0
  -17.1496   17.3268  -20.2297 C   0  0  0  0  0  0  0  0  0  0  0  0
  -18.1074   17.6576  -19.3297 C   0  0  0  0  0  0  0  0  0  0  0  0
  -18.9227   16.6541  -18.7854 C   0  0  0  0  0  0  0  0  0  0  0  0
  -18.7434   15.3520  -19.1679 C   0  0  0  0  0  0  0  0  0  0  0  0
  -17.7419   15.0591  -20.0989 C   0  0  0  0  0  0  0  0  0  0  0  0
  -16.9223   16.0117  -20.6558 C   0  0  0  0  0  0  0  0  0  0  0  0
  -19.5651   14.3403  -18.6274 N   0  0  0  0  0  0  0  0  0  0  0  0
  -19.1739   13.6948  -17.4393 C   0  0  0  0  0  0  0  0  0  0  0  0
  -18.1047   14.0245  -16.8790 O   0  0  0  0  0  0  0  0  0  0  0  0
  -20.4731   14.0764  -19.1198 H   0  0  0  0  0  0  0  0  0  0  0  0
  -19.9703   12.6338  -16.8093 C   0  0  0  0  0  0  0  0  0  0  0  0
  -19.8635   11.2862  -16.9924 C   0  0  0  0  0  0  0  0  0  0  0  0
  -20.7038   10.4951  -16.3077 C   0  0  0  0  0  0  0  0  0  0  0  0
  -21.6028   11.1093  -15.4776 C   0  0  0  0  0  0  0  0  0  0  0  0
  -21.2416   12.7665  -15.6847 S   0  0  0  0  0  0  0  0  0  0  0  0
  -22.6442   10.4552  -14.6053 C   0  0  0  0  0  0  0  0  0  0  0  0
  -23.7234   11.4746  -14.2749 C   0  0  0  0  0  0  0  0  0  0  0  0
  -22.0275    9.8774  -13.3664 C   0  0  0  0  0  0  0  0  0  0  0  0
  -23.2461    9.3200  -15.4064 C   0  0  0  0  0  0  0  0  0  0  0  0
  -15.9275   15.7435  -21.6008 N   0  0  0  0  0  0  0  0  0  0  0  0
  -14.9254   15.7713  -21.2347 H   0  0  0  0  0  0  0  0  0  0  0  0
  -16.0898   15.4493  -22.9528 C   0  0  0  0  0  0  0  0  0  0  0  0
  -15.9450   16.2597  -24.0271 N   0  0  0  0  0  0  0  0  0  0  0  0
  -16.1894   15.6150  -25.1520 C   0  0  0  0  0  0  0  0  0  0  0  0
  -16.1681   16.0228  -26.4729 C   0  0  0  0  0  0  0  0  0  0  0  0
  -16.4742   15.1038  -27.4563 C   0  0  0  0  0  0  0  0  0  0  0  0
  -16.7926   13.8079  -27.0952 C   0  0  0  0  0  0  0  0  0  0  0  0
  -16.8115   13.4137  -25.7715 C   0  0  0  0  0  0  0  0  0  0  0  0
  -16.5055   14.3275  -24.7722 C   0  0  0  0  0  0  0  0  0  0  0  0
  -16.4504   14.2086  -23.4402 N   0  0  0  0  0  0  0  0  0  0  0  0
  -16.7015   13.0630  -22.6601 C   0  0  0  0  0  0  0  0  0  0  0  0
  -15.6864   12.1157  -22.5150 C   0  0  0  0  0  0  0  0  0  0  0  0
  -15.8910   10.9788  -21.7640 C   0  0  0  0  0  0  0  0  0  0  0  0
  -14.8922    9.9878  -21.5885 N   0  0  0  0  0  0  0  0  0  0  0  0
  -17.0912   10.8011  -21.1722 N   0  0  0  0  0  0  0  0  0  0  0  0
  -18.0738   11.6984  -21.3024 C   0  0  0  0  0  0  0  0  0  0  0  0
  -17.8536   12.7879  -22.0319 N   0  0  0  0  0  0  0  0  0  0  0  0
  -14.3115    9.6561  -22.3849 H   0  0  0  0  0  0  0  0  0  0  0  0
  -14.7216    9.5743  -20.6470 H   0  0  0  0  0  0  0  0  0  0  0  0
  1  2  1  0  0  0
  2  3  2  0  0  0
  3  4  1  0  0  0
  4  5  2  0  0  0
  5  8  1  0  0  0
  8  9  1  0  0  0
  9 10  2  0  0  0
  9 12  1  0  0  0
 12 13  2  0  0  0
 13 14  1  0  0  0
 14 15  2  0  0  0
 15 16  1  0  0  0
 15 17  1  0  0  0
 17 18  1  0  0  0
 17 19  1  0  0  0
 17 20  1  0  0  0
  5  6  1  0  0  0
  6  7  2  0  0  0
  7 21  1  0  0  0
 21 23  1  0  0  0
 23 24  2  0  0  0
 24 25  1  0  0  0
 25 26  2  0  0  0
 26 27  1  0  0  0
 27 28  2  0  0  0
 28 29  1  0  0  0
 29 30  2  0  0  0
 30 31  1  0  0  0
 31 32  1  0  0  0
 32 33  2  0  0  0
 33 34  1  0  0  0
 34 35  1  0  0  0
 34 36  2  0  0  0
 36 37  1  0  0  0
 37 38  2  0  0  0
  7  2  1  0  0  0
 31 23  1  0  0  0
 38 32  1  0  0  0
 16 12  1  0  0  0
 30 25  1  0  0  0
  8 11  1  0  0  0
 21 22  1  0  0  0
 35 39  1  0  0  0
 35 40  1  0  0  0
M  END
> <minimizedAffinity>
-8.75301

> <CNNscore>
0.2903581560

> <CNNaffinity>
7.5084815025

> <CNN_VS>
2.1801488400

> <CNNaffinity_variance>
0.2005501688

$$$$
[H]c1nc(N([H])[H])c([H])c(-n2c(N([H])c3c([H])c(N([H])C(=O)c4sc(C(C([H])([H])[H])(C([H])([H])[H])C([H])([H])[H])c([H])c4[H])c([H])c([H])c3C([H])([H])[H])nc3c([H])c([H])c([H])c([H])c32)n1


 40 44  0  0  0  0  0  0  0  0999 V2000
  -18.1270   17.1846  -23.6770 C   0  0  0  0  0  0  0  0  0  0  0  0
  -18.2572   17.4293  -22.2168 C   0  0  0  0  0  0  0  0  0  0  0  0
  -18.0779   18.6843  -21.7379 C   0  0  0  0  0  0  0  0  0  0  0  0
  -18.1975   18.9241  -20.3608 C   0  0  0  0  0  0  0  0  0  0  0  0
  -18.4938   17.8894  -19.5149 C   0  0  0  0  0  0  0  0  0  0  0  0
  -18.6694   16.6117  -20.0553 C   0  0  0  0  0  0  0  0  0  0  0  0
  -18.5611   16.3344  -21.3973 C   0  0  0  0  0  0  0  0  0  0  0  0
  -18.6208   18.1271  -18.1299 N   0  0  0  0  0  0  0  0  0  0  0  0
  -19.9018   18.3093  -17.5757 C   0  0  0  0  0  0  0  0  0  0  0  0
  -20.9094   18.2593  -18.3161 O   0  0  0  0  0  0  0  0  0  0  0  0
  -17.7493   18.1637  -17.5170 H   0  0  0  0  0  0  0  0  0  0  0  0
  -20.1232   18.5597  -16.1455 C   0  0  0  0  0  0  0  0  0  0  0  0
  -19.2914   18.2646  -15.1055 C   0  0  0  0  0  0  0  0  0  0  0  0
  -19.7014   18.5846  -13.8685 C   0  0  0  0  0  0  0  0  0  0  0  0
  -20.9268   19.1842  -13.7525 C   0  0  0  0  0  0  0  0  0  0  0  0
  -21.4597   19.2778  -15.3733 S   0  0  0  0  0  0  0  0  0  0  0  0
  -21.6112   19.6402  -12.4887 C   0  0  0  0  0  0  0  0  0  0  0  0
  -21.4962   21.1530  -12.3826 C   0  0  0  0  0  0  0  0  0  0  0  0
  -21.0384   18.9535  -11.2848 C   0  0  0  0  0  0  0  0  0  0  0  0
  -23.0691   19.2487  -12.6064 C   0  0  0  0  0  0  0  0  0  0  0  0
  -18.7501   15.0688  -21.9604 N   0  0  0  0  0  0  0  0  0  0  0  0
  -19.4662   15.0188  -22.7500 H   0  0  0  0  0  0  0  0  0  0  0  0
  -18.1202   13.8758  -21.6128 C   0  0  0  0  0  0  0  0  0  0  0  0
  -18.2775   13.1186  -20.5020 N   0  0  0  0  0  0  0  0  0  0  0  0
  -17.4976   12.0547  -20.5312 C   0  0  0  0  0  0  0  0  0  0  0  0
  -17.3181   11.0171  -19.6353 C   0  0  0  0  0  0  0  0  0  0  0  0
  -16.4132   10.0218  -19.9450 C   0  0  0  0  0  0  0  0  0  0  0  0
  -15.7146   10.0899  -21.1359 C   0  0  0  0  0  0  0  0  0  0  0  0
  -15.9024   11.1329  -22.0218 C   0  0  0  0  0  0  0  0  0  0  0  0
  -16.8095   12.1406  -21.7232 C   0  0  0  0  0  0  0  0  0  0  0  0
  -17.1746   13.2403  -22.3930 N   0  0  0  0  0  0  0  0  0  0  0  0
  -16.7096   13.6883  -23.6448 C   0  0  0  0  0  0  0  0  0  0  0  0
  -15.4177   14.2104  -23.7318 C   0  0  0  0  0  0  0  0  0  0  0  0
  -14.9247   14.6636  -24.9359 C   0  0  0  0  0  0  0  0  0  0  0  0
  -13.6208   15.2033  -25.0744 N   0  0  0  0  0  0  0  0  0  0  0  0
  -15.7155   14.5914  -26.0276 N   0  0  0  0  0  0  0  0  0  0  0  0
  -16.9551   14.0951  -25.9606 C   0  0  0  0  0  0  0  0  0  0  0  0
  -17.4096   13.6639  -24.7880 N   0  0  0  0  0  0  0  0  0  0  0  0
  -13.2361   15.8764  -24.3814 H   0  0  0  0  0  0  0  0  0  0  0  0
  -13.0208   14.9277  -25.8809 H   0  0  0  0  0  0  0  0  0  0  0  0
  1  2  1  0  0  0
  2  3  2  0  0  0
  3  4  1  0  0  0
  4  5  2  0  0  0
  5  8  1  0  0  0
  8  9  1  0  0  0
  9 10  2  0  0  0
  9 12  1  0  0  0
 12 13  2  0  0  0
 13 14  1  0  0  0
 14 15  2  0  0  0
 15 16  1  0  0  0
 15 17  1  0  0  0
 17 18  1  0  0  0
 17 19  1  0  0  0
 17 20  1  0  0  0
  5  6  1  0  0  0
  6  7  2  0  0  0
  7 21  1  0  0  0
 21 23  1  0  0  0
 23 24  2  0  0  0
 24 25  1  0  0  0
 25 26  2  0  0  0
 26 27  1  0  0  0
 27 28  2  0  0  0
 28 29  1  0  0  0
 29 30  2  0  0  0
 30 31  1  0  0  0
 31 32  1  0  0  0
 32 33  2  0  0  0
 33 34  1  0  0  0
 34 35  1  0  0  0
 34 36  2  0  0  0
 36 37  1  0  0  0
 37 38  2  0  0  0
  7  2  1  0  0  0
 31 23  1  0  0  0
 38 32  1  0  0  0
 16 12  1  0  0  0
 30 25  1  0  0  0
  8 11  1  0  0  0
 21 22  1  0  0  0
 35 39  1  0  0  0
 35 40  1  0  0  0
M  END
> <minimizedAffinity>
-9.39489

> <CNNscore>
0.2358111888

> <CNNaffinity>
6.7849235535

> <CNN_VS>
1.5999609232

> <CNNaffinity_variance>
0.3471570015

$$$$
[H]c1nc(N([H])[H])c([H])c(-n2c(N([H])c3c([H])c(N([H])C(=O)c4sc(C(C([H])([H])[H])(C([H])([H])[H])C([H])([H])[H])c([H])c4[H])c([H])c([H])c3C([H])([H])[H])nc3c([H])c([H])c([H])c([H])c32)n1


 40 44  0  0  0  0  0  0  0  0999 V2000
  -15.2920   11.4327  -22.3971 C   0  0  0  0  0  0  0  0  0  0  0  0
  -16.3030   11.4218  -21.3076 C   0  0  0  0  0  0  0  0  0  0  0  0
  -16.1517   10.5589  -20.2736 C   0  0  0  0  0  0  0  0  0  0  0  0
  -17.1018   10.5409  -19.2417 C   0  0  0  0  0  0  0  0  0  0  0  0
  -18.1715   11.3939  -19.2888 C   0  0  0  0  0  0  0  0  0  0  0  0
  -18.2855   12.2658  -20.3761 C   0  0  0  0  0  0  0  0  0  0  0  0
  -17.3775   12.3154  -21.4069 C   0  0  0  0  0  0  0  0  0  0  0  0
  -19.1263   11.3832  -18.2500 N   0  0  0  0  0  0  0  0  0  0  0  0
  -19.1524   12.4444  -17.3258 C   0  0  0  0  0  0  0  0  0  0  0  0
  -18.3302   13.3813  -17.4357 O   0  0  0  0  0  0  0  0  0  0  0  0
  -19.8190   10.5761  -18.1761 H   0  0  0  0  0  0  0  0  0  0  0  0
  -20.1132   12.5122  -16.2170 C   0  0  0  0  0  0  0  0  0  0  0  0
  -21.1511   13.3834  -16.0607 C   0  0  0  0  0  0  0  0  0  0  0  0
  -21.9067   13.2624  -14.9584 C   0  0  0  0  0  0  0  0  0  0  0  0
  -21.5715   12.2690  -14.0777 C   0  0  0  0  0  0  0  0  0  0  0  0
  -20.2152   11.5429  -14.8211 S   0  0  0  0  0  0  0  0  0  0  0  0
  -22.2534   11.9244  -12.7778 C   0  0  0  0  0  0  0  0  0  0  0  0
  -21.1976   11.5436  -11.7516 C   0  0  0  0  0  0  0  0  0  0  0  0
  -23.2623   10.8314  -12.9689 C   0  0  0  0  0  0  0  0  0  0  0  0
  -22.9853   13.1670  -12.3165 C   0  0  0  0  0  0  0  0  0  0  0  0
  -17.4626   13.1909  -22.4935 N   0  0  0  0  0  0  0  0  0  0  0  0
  -17.1531   12.7899  -23.4328 H   0  0  0  0  0  0  0  0  0  0  0  0
  -17.8980   14.5143  -22.4929 C   0  0  0  0  0  0  0  0  0  0  0  0
  -18.9184   15.0778  -21.8051 N   0  0  0  0  0  0  0  0  0  0  0  0
  -19.0244   16.3656  -22.0718 C   0  0  0  0  0  0  0  0  0  0  0  0
  -19.8999   17.3336  -21.6157 C   0  0  0  0  0  0  0  0  0  0  0  0
  -19.7627   18.6255  -22.0820 C   0  0  0  0  0  0  0  0  0  0  0  0
  -18.7593   18.9143  -22.9880 C   0  0  0  0  0  0  0  0  0  0  0  0
  -17.8919   17.9375  -23.4367 C   0  0  0  0  0  0  0  0  0  0  0  0
  -18.0183   16.6340  -22.9759 C   0  0  0  0  0  0  0  0  0  0  0  0
  -17.3242   15.5213  -23.2435 N   0  0  0  0  0  0  0  0  0  0  0  0
  -16.2234   15.3725  -24.1095 C   0  0  0  0  0  0  0  0  0  0  0  0
  -16.3976   15.6461  -25.4674 C   0  0  0  0  0  0  0  0  0  0  0  0
  -15.3483   15.5096  -26.3499 C   0  0  0  0  0  0  0  0  0  0  0  0
  -15.4760   15.7738  -27.7371 N   0  0  0  0  0  0  0  0  0  0  0  0
  -14.1506   15.1072  -25.8744 N   0  0  0  0  0  0  0  0  0  0  0  0
  -13.9680   14.8403  -24.5771 C   0  0  0  0  0  0  0  0  0  0  0  0
  -14.9949   14.9790  -23.7442 N   0  0  0  0  0  0  0  0  0  0  0  0
  -16.2989   15.4411  -28.2790 H   0  0  0  0  0  0  0  0  0  0  0  0
  -14.7395   16.3141  -28.2393 H   0  0  0  0  0  0  0  0  0  0  0  0
  1  2  1  0  0  0
  2  3  2  0  0  0
  3  4  1  0  0  0
  4  5  2  0  0  0
  5  8  1  0  0  0
  8  9  1  0  0  0
  9 10  2  0  0  0
  9 12  1  0  0  0
 12 13  2  0  0  0
 13 14  1  0  0  0
 14 15  2  0  0  0
 15 16  1  0  0  0
 15 17  1  0  0  0
 17 18  1  0  0  0
 17 19  1  0  0  0
 17 20  1  0  0  0
  5  6  1  0  0  0
  6  7  2  0  0  0
  7 21  1  0  0  0
 21 23  1  0  0  0
 23 24  2  0  0  0
 24 25  1  0  0  0
 25 26  2  0  0  0
 26 27  1  0  0  0
 27 28  2  0  0  0
 28 29  1  0  0  0
 29 30  2  0  0  0
 30 31  1  0  0  0
 31 32  1  0  0  0
 32 33  2  0  0  0
 33 34  1  0  0  0
 34 35  1  0  0  0
 34 36  2  0  0  0
 36 37  1  0  0  0
 37 38  2  0  0  0
  7  2  1  0  0  0
 31 23  1  0  0  0
 38 32  1  0  0  0
 16 12  1  0  0  0
 30 25  1  0  0  0
  8 11  1  0  0  0
 21 22  1  0  0  0
 35 39  1  0  0  0
 35 40  1  0  0  0
M  END
> <minimizedAffinity>
-9.30958

> <CNNscore>
0.1831000745

> <CNNaffinity>
6.8549752235

> <CNN_VS>
1.2551465034

> <CNNaffinity_variance>
0.3481432498

$$$$
[H]c1nc(N([H])[H])c([H])c(-n2c(N([H])c3c([H])c(N([H])C(=O)c4sc(C(C([H])([H])[H])(C([H])([H])[H])C([H])([H])[H])c([H])c4[H])c([H])c([H])c3C([H])([H])[H])nc3c([H])c([H])c([H])c([H])c32)n1


 40 44  0  0  0  0  0  0  0  0999 V2000
  -15.4830   11.4206  -22.4364 C   0  0  0  0  0  0  0  0  0  0  0  0
  -16.3672   11.4629  -21.2425 C   0  0  0  0  0  0  0  0  0  0  0  0
  -16.1087   10.6385  -20.1984 C   0  0  0  0  0  0  0  0  0  0  0  0
  -16.9389   10.6707  -19.0681 C   0  0  0  0  0  0  0  0  0  0  0  0
  -18.0010   11.5336  -19.0304 C   0  0  0  0  0  0  0  0  0  0  0  0
  -18.2284   12.3646  -20.1318 C   0  0  0  0  0  0  0  0  0  0  0  0
  -17.4397   12.3643  -21.2576 C   0  0  0  0  0  0  0  0  0  0  0  0
  -18.8352   11.5735  -17.8931 N   0  0  0  0  0  0  0  0  0  0  0  0
  -19.2368   10.3672  -17.2892 C   0  0  0  0  0  0  0  0  0  0  0  0
  -18.8512    9.2771  -17.7675 O   0  0  0  0  0  0  0  0  0  0  0  0
  -19.1504   12.5133  -17.5006 H   0  0  0  0  0  0  0  0  0  0  0  0
  -20.1017   10.3190  -16.1031 C   0  0  0  0  0  0  0  0  0  0  0  0
  -21.4464   10.5388  -16.0382 C   0  0  0  0  0  0  0  0  0  0  0  0
  -22.0371   10.4425  -14.8372 C   0  0  0  0  0  0  0  0  0  0  0  0
  -21.2368   10.1296  -13.7711 C   0  0  0  0  0  0  0  0  0  0  0  0
  -19.6916    9.9825  -14.4854 S   0  0  0  0  0  0  0  0  0  0  0  0
  -21.6488    9.9616  -12.3305 C   0  0  0  0  0  0  0  0  0  0  0  0
  -23.1384    9.6605  -12.2743 C   0  0  0  0  0  0  0  0  0  0  0  0
  -21.2959   11.1742  -11.5216 C   0  0  0  0  0  0  0  0  0  0  0  0
  -20.8715    8.7845  -11.7801 C   0  0  0  0  0  0  0  0  0  0  0  0
  -17.6382   13.1986  -22.3618 N   0  0  0  0  0  0  0  0  0  0  0  0
  -17.4657   12.7498  -23.3145 H   0  0  0  0  0  0  0  0  0  0  0  0
  -18.0289   14.5358  -22.3635 C   0  0  0  0  0  0  0  0  0  0  0  0
  -19.0239   15.1362  -21.6695 N   0  0  0  0  0  0  0  0  0  0  0  0
  -19.0890   16.4257  -21.9411 C   0  0  0  0  0  0  0  0  0  0  0  0
  -19.9276   17.4244  -21.4819 C   0  0  0  0  0  0  0  0  0  0  0  0
  -19.7512   18.7090  -21.9552 C   0  0  0  0  0  0  0  0  0  0  0  0
  -18.7466   18.9601  -22.8710 C   0  0  0  0  0  0  0  0  0  0  0  0
  -17.9164   17.9529  -23.3227 C   0  0  0  0  0  0  0  0  0  0  0  0
  -18.0823   16.6563  -22.8549 C   0  0  0  0  0  0  0  0  0  0  0  0
  -17.4283   15.5199  -23.1234 N   0  0  0  0  0  0  0  0  0  0  0  0
  -16.3406   15.3305  -23.9981 C   0  0  0  0  0  0  0  0  0  0  0  0
  -16.5451   15.5030  -25.3683 C   0  0  0  0  0  0  0  0  0  0  0  0
  -15.5095   15.3238  -26.2593 C   0  0  0  0  0  0  0  0  0  0  0  0
  -15.6678   15.4857  -27.6590 N   0  0  0  0  0  0  0  0  0  0  0  0
  -14.2954   14.9793  -25.7801 N   0  0  0  0  0  0  0  0  0  0  0  0
  -14.0837   14.8093  -24.4709 C   0  0  0  0  0  0  0  0  0  0  0  0
  -15.0979   14.9876  -23.6299 N   0  0  0  0  0  0  0  0  0  0  0  0
  -16.4935   15.0996  -28.1597 H   0  0  0  0  0  0  0  0  0  0  0  0
  -14.9518   16.0026  -28.2127 H   0  0  0  0  0  0  0  0  0  0  0  0
  1  2  1  0  0  0
  2  3  2  0  0  0
  3  4  1  0  0  0
  4  5  2  0  0  0
  5  8  1  0  0  0
  8  9  1  0  0  0
  9 10  2  0  0  0
  9 12  1  0  0  0
 12 13  2  0  0  0
 13 14  1  0  0  0
 14 15  2  0  0  0
 15 16  1  0  0  0
 15 17  1  0  0  0
 17 18  1  0  0  0
 17 19  1  0  0  0
 17 20  1  0  0  0
  5  6  1  0  0  0
  6  7  2  0  0  0
  7 21  1  0  0  0
 21 23  1  0  0  0
 23 24  2  0  0  0
 24 25  1  0  0  0
 25 26  2  0  0  0
 26 27  1  0  0  0
 27 28  2  0  0  0
 28 29  1  0  0  0
 29 30  2  0  0  0
 30 31  1  0  0  0
 31 32  1  0  0  0
 32 33  2  0  0  0
 33 34  1  0  0  0
 34 35  1  0  0  0
 34 36  2  0  0  0
 36 37  1  0  0  0
 37 38  2  0  0  0
  7  2  1  0  0  0
 31 23  1  0  0  0
 38 32  1  0  0  0
 16 12  1  0  0  0
 30 25  1  0  0  0
  8 11  1  0  0  0
 21 22  1  0  0  0
 35 39  1  0  0  0
 35 40  1  0  0  0
M  END
> <minimizedAffinity>
-9.41739

> <CNNscore>
0.1647419184

> <CNNaffinity>
6.6716971397

> <CNN_VS>
1.0991082191

> <CNNaffinity_variance>
0.3647077978

$$$$
[H]c1nc(N([H])[H])c([H])c(-n2c(N([H])c3c([H])c(N([H])C(=O)c4sc(C(C([H])([H])[H])(C([H])([H])[H])C([H])([H])[H])c([H])c4[H])c([H])c([H])c3C([H])([H])[H])nc3c([H])c([H])c([H])c([H])c32)n1


 40 44  0  0  0  0  0  0  0  0999 V2000
  -15.5154   10.3813  -21.5352 C   0  0  0  0  0  0  0  0  0  0  0  0
  -16.3917   10.9391  -20.4721 C   0  0  0  0  0  0  0  0  0  0  0  0
  -16.1427   10.6250  -19.1775 C   0  0  0  0  0  0  0  0  0  0  0  0
  -16.9655   11.1458  -18.1676 C   0  0  0  0  0  0  0  0  0  0  0  0
  -18.0109   11.9652  -18.4991 C   0  0  0  0  0  0  0  0  0  0  0  0
  -18.2290   12.2604  -19.8484 C   0  0  0  0  0  0  0  0  0  0  0  0
  -17.4470   11.7714  -20.8676 C   0  0  0  0  0  0  0  0  0  0  0  0
  -18.8375   12.4959  -17.4861 N   0  0  0  0  0  0  0  0  0  0  0  0
  -19.7568   11.6533  -16.8335 C   0  0  0  0  0  0  0  0  0  0  0  0
  -19.8303   10.4473  -17.1592 O   0  0  0  0  0  0  0  0  0  0  0  0
  -18.7569   13.5259  -17.2227 H   0  0  0  0  0  0  0  0  0  0  0  0
  -20.6522   12.1236  -15.7686 C   0  0  0  0  0  0  0  0  0  0  0  0
  -21.4462   13.2328  -15.7716 C   0  0  0  0  0  0  0  0  0  0  0  0
  -22.1882   13.4719  -14.6794 C   0  0  0  0  0  0  0  0  0  0  0  0
  -22.0864   12.5778  -13.6474 C   0  0  0  0  0  0  0  0  0  0  0  0
  -20.9593   11.4387  -14.2405 S   0  0  0  0  0  0  0  0  0  0  0  0
  -22.8072   12.6159  -12.3236 C   0  0  0  0  0  0  0  0  0  0  0  0
  -23.3631   14.0143  -12.1036 C   0  0  0  0  0  0  0  0  0  0  0  0
  -21.9042   12.1941  -11.2031 C   0  0  0  0  0  0  0  0  0  0  0  0
  -23.9478   11.6237  -12.4097 C   0  0  0  0  0  0  0  0  0  0  0  0
  -17.6362   12.0678  -22.2207 N   0  0  0  0  0  0  0  0  0  0  0  0
  -18.3672   11.4752  -22.7238 H   0  0  0  0  0  0  0  0  0  0  0  0
  -16.9860   13.0361  -22.9827 C   0  0  0  0  0  0  0  0  0  0  0  0
  -16.1535   12.8763  -24.0379 N   0  0  0  0  0  0  0  0  0  0  0  0
  -15.7303   14.0387  -24.4966 C   0  0  0  0  0  0  0  0  0  0  0  0
  -14.8831   14.3666  -25.5389 C   0  0  0  0  0  0  0  0  0  0  0  0
  -14.6211   15.6988  -25.7873 C   0  0  0  0  0  0  0  0  0  0  0  0
  -15.2095   16.6635  -24.9910 C   0  0  0  0  0  0  0  0  0  0  0  0
  -16.0532   16.3224  -23.9519 C   0  0  0  0  0  0  0  0  0  0  0  0
  -16.3256   14.9864  -23.6909 C   0  0  0  0  0  0  0  0  0  0  0  0
  -17.0915   14.3957  -22.7657 N   0  0  0  0  0  0  0  0  0  0  0  0
  -17.8646   15.0075  -21.7597 C   0  0  0  0  0  0  0  0  0  0  0  0
  -17.2087   15.6152  -20.6875 C   0  0  0  0  0  0  0  0  0  0  0  0
  -17.9265   16.2217  -19.6798 C   0  0  0  0  0  0  0  0  0  0  0  0
  -17.3065   16.8502  -18.5703 N   0  0  0  0  0  0  0  0  0  0  0  0
  -19.2746   16.2164  -19.7516 N   0  0  0  0  0  0  0  0  0  0  0  0
  -19.9174   15.6378  -20.7712 C   0  0  0  0  0  0  0  0  0  0  0  0
  -19.2040   15.0587  -21.7321 N   0  0  0  0  0  0  0  0  0  0  0  0
  -16.5084   16.4071  -18.0722 H   0  0  0  0  0  0  0  0  0  0  0  0
  -17.6439   17.7778  -18.2355 H   0  0  0  0  0  0  0  0  0  0  0  0
  1  2  1  0  0  0
  2  3  2  0  0  0
  3  4  1  0  0  0
  4  5  2  0  0  0
  5  8  1  0  0  0
  8  9  1  0  0  0
  9 10  2  0  0  0
  9 12  1  0  0  0
 12 13  2  0  0  0
 13 14  1  0  0  0
 14 15  2  0  0  0
 15 16  1  0  0  0
 15 17  1  0  0  0
 17 18  1  0  0  0
 17 19  1  0  0  0
 17 20  1  0  0  0
  5  6  1  0  0  0
  6  7  2  0  0  0
  7 21  1  0  0  0
 21 23  1  0  0  0
 23 24  2  0  0  0
 24 25  1  0  0  0
 25 26  2  0  0  0
 26 27  1  0  0  0
 27 28  2  0  0  0
 28 29  1  0  0  0
 29 30  2  0  0  0
 30 31  1  0  0  0
 31 32  1  0  0  0
 32 33  2  0  0  0
 33 34  1  0  0  0
 34 35  1  0  0  0
 34 36  2  0  0  0
 36 37  1  0  0  0
 37 38  2  0  0  0
  7  2  1  0  0  0
 31 23  1  0  0  0
 38 32  1  0  0  0
 16 12  1  0  0  0
 30 25  1  0  0  0
  8 11  1  0  0  0
 21 22  1  0  0  0
 35 39  1  0  0  0
 35 40  1  0  0  0
M  END
> <minimizedAffinity>
-9.30704

> <CNNscore>
0.1396972090

> <CNNaffinity>
6.8169908524

> <CNN_VS>
0.9523146152

> <CNNaffinity_variance>
0.3073669076

$$$$
[H]c1nc(N([H])[H])c([H])c(-n2c(N([H])c3c([H])c(N([H])C(=O)c4sc(C(C([H])([H])[H])(C([H])([H])[H])C([H])([H])[H])c([H])c4[H])c([H])c([H])c3C([H])([H])[H])nc3c([H])c([H])c([H])c([H])c32)n1


 40 44  0  0  0  0  0  0  0  0999 V2000
  -15.9896   10.4086  -20.5081 C   0  0  0  0  0  0  0  0  0  0  0  0
  -17.1145   10.6661  -19.5714 C   0  0  0  0  0  0  0  0  0  0  0  0
  -17.4065    9.7466  -18.6197 C   0  0  0  0  0  0  0  0  0  0  0  0
  -18.4674    9.9808  -17.7322 C   0  0  0  0  0  0  0  0  0  0  0  0
  -19.1969   11.1345  -17.8359 C   0  0  0  0  0  0  0  0  0  0  0  0
  -18.8588   12.0535  -18.8343 C   0  0  0  0  0  0  0  0  0  0  0  0
  -17.8277   11.8625  -19.7230 C   0  0  0  0  0  0  0  0  0  0  0  0
  -20.2611   11.3769  -16.9417 N   0  0  0  0  0  0  0  0  0  0  0  0
  -20.3187   12.6036  -16.2538 C   0  0  0  0  0  0  0  0  0  0  0  0
  -19.4274   13.4614  -16.4425 O   0  0  0  0  0  0  0  0  0  0  0  0
  -21.0112   10.6331  -16.7974 H   0  0  0  0  0  0  0  0  0  0  0  0
  -21.3912   12.9372  -15.3076 C   0  0  0  0  0  0  0  0  0  0  0  0
  -22.0885   14.1056  -15.2105 C   0  0  0  0  0  0  0  0  0  0  0  0
  -23.0333   14.1913  -14.2615 C   0  0  0  0  0  0  0  0  0  0  0  0
  -23.2202   13.0929  -13.4655 C   0  0  0  0  0  0  0  0  0  0  0  0
  -22.0705   11.9837  -14.0715 S   0  0  0  0  0  0  0  0  0  0  0  0
  -24.2086   12.9320  -12.3384 C   0  0  0  0  0  0  0  0  0  0  0  0
  -24.5248   14.3021  -11.7589 C   0  0  0  0  0  0  0  0  0  0  0  0
  -23.6880   11.9926  -11.2917 C   0  0  0  0  0  0  0  0  0  0  0  0
  -25.4647   12.3291  -12.9311 C   0  0  0  0  0  0  0  0  0  0  0  0
  -17.4615   12.7754  -20.7165 N   0  0  0  0  0  0  0  0  0  0  0  0
  -17.0559   12.3487  -21.6066 H   0  0  0  0  0  0  0  0  0  0  0  0
  -17.5610   14.1645  -20.6796 C   0  0  0  0  0  0  0  0  0  0  0  0
  -17.9939   14.9639  -19.6768 N   0  0  0  0  0  0  0  0  0  0  0  0
  -17.9448   16.2365  -20.0214 C   0  0  0  0  0  0  0  0  0  0  0  0
  -18.2795   17.3912  -19.3385 C   0  0  0  0  0  0  0  0  0  0  0  0
  -18.1155   18.6073  -19.9706 C   0  0  0  0  0  0  0  0  0  0  0  0
  -17.6243   18.6370  -21.2624 C   0  0  0  0  0  0  0  0  0  0  0  0
  -17.2949   17.4759  -21.9339 C   0  0  0  0  0  0  0  0  0  0  0  0
  -17.4545   16.2459  -21.3103 C   0  0  0  0  0  0  0  0  0  0  0  0
  -17.2161   14.9963  -21.7264 N   0  0  0  0  0  0  0  0  0  0  0  0
  -16.7128   14.5783  -22.9738 C   0  0  0  0  0  0  0  0  0  0  0  0
  -15.4508   15.0243  -23.3705 C   0  0  0  0  0  0  0  0  0  0  0  0
  -14.9224   14.6428  -24.5845 C   0  0  0  0  0  0  0  0  0  0  0  0
  -13.6468   15.0705  -25.0320 N   0  0  0  0  0  0  0  0  0  0  0  0
  -15.6492   13.8297  -25.3801 N   0  0  0  0  0  0  0  0  0  0  0  0
  -16.8597   13.3949  -25.0150 C   0  0  0  0  0  0  0  0  0  0  0  0
  -17.3493   13.7760  -23.8392 N   0  0  0  0  0  0  0  0  0  0  0  0
  -13.3389   16.0584  -24.9286 H   0  0  0  0  0  0  0  0  0  0  0  0
  -12.9901   14.3922  -25.4739 H   0  0  0  0  0  0  0  0  0  0  0  0
  1  2  1  0  0  0
  2  3  2  0  0  0
  3  4  1  0  0  0
  4  5  2  0  0  0
  5  8  1  0  0  0
  8  9  1  0  0  0
  9 10  2  0  0  0
  9 12  1  0  0  0
 12 13  2  0  0  0
 13 14  1  0  0  0
 14 15  2  0  0  0
 15 16  1  0  0  0
 15 17  1  0  0  0
 17 18  1  0  0  0
 17 19  1  0  0  0
 17 20  1  0  0  0
  5  6  1  0  0  0
  6  7  2  0  0  0
  7 21  1  0  0  0
 21 23  1  0  0  0
 23 24  2  0  0  0
 24 25  1  0  0  0
 25 26  2  0  0  0
 26 27  1  0  0  0
 27 28  2  0  0  0
 28 29  1  0  0  0
 29 30  2  0  0  0
 30 31  1  0  0  0
 31 32  1  0  0  0
 32 33  2  0  0  0
 33 34  1  0  0  0
 34 35  1  0  0  0
 34 36  2  0  0  0
 36 37  1  0  0  0
 37 38  2  0  0  0
  7  2  1  0  0  0
 31 23  1  0  0  0
 38 32  1  0  0  0
 16 12  1  0  0  0
 30 25  1  0  0  0
  8 11  1  0  0  0
 21 22  1  0  0  0
 35 39  1  0  0  0
 35 40  1  0  0  0
M  END
> <minimizedAffinity>
-8.81895

> <CNNscore>
0.1205095947

> <CNNaffinity>
6.8054122925

> <CNN_VS>
0.8201174736

> <CNNaffinity_variance>
0.1521354765

$$$$
[H]c1nc(N([H])[H])c([H])c(-n2c(N([H])c3c([H])c(N([H])C(=O)c4sc(C(C([H])([H])[H])(C([H])([H])[H])C([H])([H])[H])c([H])c4[H])c([H])c([H])c3C([H])([H])[H])nc3c([H])c([H])c([H])c([H])c32)n1


 40 44  0  0  0  0  0  0  0  0999 V2000
  -16.7279   17.6133  -21.8955 C   0  0  0  0  0  0  0  0  0  0  0  0
  -17.7648   17.6719  -20.8322 C   0  0  0  0  0  0  0  0  0  0  0  0
  -17.8797   18.7944  -20.0816 C   0  0  0  0  0  0  0  0  0  0  0  0
  -18.8546   18.8579  -19.0749 C   0  0  0  0  0  0  0  0  0  0  0  0
  -19.6796   17.7866  -18.8604 C   0  0  0  0  0  0  0  0  0  0  0  0
  -19.5229   16.6499  -19.6596 C   0  0  0  0  0  0  0  0  0  0  0  0
  -18.5812   16.5471  -20.6556 C   0  0  0  0  0  0  0  0  0  0  0  0
  -20.6655   17.8484  -17.8528 N   0  0  0  0  0  0  0  0  0  0  0  0
  -20.3927   17.2990  -16.5860 C   0  0  0  0  0  0  0  0  0  0  0  0
  -19.2828   16.7632  -16.3695 O   0  0  0  0  0  0  0  0  0  0  0  0
  -21.6037   18.3113  -18.0579 H   0  0  0  0  0  0  0  0  0  0  0  0
  -21.3611   17.3220  -15.4820 C   0  0  0  0  0  0  0  0  0  0  0  0
  -21.8832   16.2596  -14.8041 C   0  0  0  0  0  0  0  0  0  0  0  0
  -22.7617   16.5164  -13.8228 C   0  0  0  0  0  0  0  0  0  0  0  0
  -23.0624   17.8303  -13.5820 C   0  0  0  0  0  0  0  0  0  0  0  0
  -22.1085   18.6564  -14.7341 S   0  0  0  0  0  0  0  0  0  0  0  0
  -24.0079   18.3818  -12.5451 C   0  0  0  0  0  0  0  0  0  0  0  0
  -23.4117   19.6520  -11.9584 C   0  0  0  0  0  0  0  0  0  0  0  0
  -24.3012   17.3637  -11.4837 C   0  0  0  0  0  0  0  0  0  0  0  0
  -25.3042   18.7102  -13.2552 C   0  0  0  0  0  0  0  0  0  0  0  0
  -18.4193   15.4278  -21.4776 N   0  0  0  0  0  0  0  0  0  0  0  0
  -18.6692   15.5715  -22.5051 H   0  0  0  0  0  0  0  0  0  0  0  0
  -17.9762   14.1578  -21.1148 C   0  0  0  0  0  0  0  0  0  0  0  0
  -18.1363   13.4993  -19.9431 N   0  0  0  0  0  0  0  0  0  0  0  0
  -17.5673   12.3095  -19.9789 C   0  0  0  0  0  0  0  0  0  0  0  0
  -17.4731   11.3027  -19.0360 C   0  0  0  0  0  0  0  0  0  0  0  0
  -16.8021   10.1430  -19.3680 C   0  0  0  0  0  0  0  0  0  0  0  0
  -16.2452   10.0210  -20.6273 C   0  0  0  0  0  0  0  0  0  0  0  0
  -16.3454   11.0351  -21.5598 C   0  0  0  0  0  0  0  0  0  0  0  0
  -17.0175   12.2068  -21.2395 C   0  0  0  0  0  0  0  0  0  0  0  0
  -17.2558   13.3202  -21.9430 N   0  0  0  0  0  0  0  0  0  0  0  0
  -16.8665   13.6112  -23.2651 C   0  0  0  0  0  0  0  0  0  0  0  0
  -17.3092   12.7766  -24.2928 C   0  0  0  0  0  0  0  0  0  0  0  0
  -16.9487   13.0226  -25.5997 C   0  0  0  0  0  0  0  0  0  0  0  0
  -17.3713   12.2035  -26.6771 N   0  0  0  0  0  0  0  0  0  0  0  0
  -16.1606   14.0861  -25.8646 N   0  0  0  0  0  0  0  0  0  0  0  0
  -15.7275   14.8942  -24.8915 C   0  0  0  0  0  0  0  0  0  0  0  0
  -16.0881   14.6372  -23.6379 N   0  0  0  0  0  0  0  0  0  0  0  0
  -17.3557   11.1660  -26.6082 H   0  0  0  0  0  0  0  0  0  0  0  0
  -17.7105   12.6344  -27.5636 H   0  0  0  0  0  0  0  0  0  0  0  0
  1  2  1  0  0  0
  2  3  2  0  0  0
  3  4  1  0  0  0
  4  5  2  0  0  0
  5  8  1  0  0  0
  8  9  1  0  0  0
  9 10  2  0  0  0
  9 12  1  0  0  0
 12 13  2  0  0  0
 13 14  1  0  0  0
 14 15  2  0  0  0
 15 16  1  0  0  0
 15 17  1  0  0  0
 17 18  1  0  0  0
 17 19  1  0  0  0
 17 20  1  0  0  0
  5  6  1  0  0  0
  6  7  2  0  0  0
  7 21  1  0  0  0
 21 23  1  0  0  0
 23 24  2  0  0  0
 24 25  1  0  0  0
 25 26  2  0  0  0
 26 27  1  0  0  0
 27 28  2  0  0  0
 28 29  1  0  0  0
 29 30  2  0  0  0
 30 31  1  0  0  0
 31 32  1  0  0  0
 32 33  2  0  0  0
 33 34  1  0  0  0
 34 35  1  0  0  0
 34 36  2  0  0  0
 36 37  1  0  0  0
 37 38  2  0  0  0
  7  2  1  0  0  0
 31 23  1  0  0  0
 38 32  1  0  0  0
 16 12  1  0  0  0
 30 25  1  0  0  0
  8 11  1  0  0  0
 21 22  1  0  0  0
 35 39  1  0  0  0
 35 40  1  0  0  0
M  END
> <minimizedAffinity>
-8.32968

> <CNNscore>
0.0963933021

> <CNNaffinity>
6.5601339340

> <CNN_VS>
0.6323529482

> <CNNaffinity_variance>
0.1062629670

$$$$
[H]c1nc(N([H])[H])c([H])c(-n2c(N([H])c3c([H])c(N([H])C(=O)c4sc(C(C([H])([H])[H])(C([H])([H])[H])C([H])([H])[H])c([H])c4[H])c([H])c([H])c3C([H])([H])[H])nc3c([H])c([H])c([H])c([H])c32)n1


 40 44  0  0  0  0  0  0  0  0999 V2000
  -18.1294   17.1701  -23.4559 C   0  0  0  0  0  0  0  0  0  0  0  0
  -18.2728   17.4661  -22.0064 C   0  0  0  0  0  0  0  0  0  0  0  0
  -18.0249   18.7215  -21.5601 C   0  0  0  0  0  0  0  0  0  0  0  0
  -18.1564   19.0095  -20.1934 C   0  0  0  0  0  0  0  0  0  0  0  0
  -18.5333   18.0210  -19.3247 C   0  0  0  0  0  0  0  0  0  0  0  0
  -18.7777   16.7409  -19.8317 C   0  0  0  0  0  0  0  0  0  0  0  0
  -18.6605   16.4172  -21.1625 C   0  0  0  0  0  0  0  0  0  0  0  0
  -18.6725   18.3076  -17.9501 N   0  0  0  0  0  0  0  0  0  0  0  0
  -19.9584   18.3392  -17.3786 C   0  0  0  0  0  0  0  0  0  0  0  0
  -20.9597   18.1143  -18.0946 O   0  0  0  0  0  0  0  0  0  0  0  0
  -17.8058   18.4942  -17.3579 H   0  0  0  0  0  0  0  0  0  0  0  0
  -20.1921   18.6276  -15.9576 C   0  0  0  0  0  0  0  0  0  0  0  0
  -19.3280   18.4578  -14.9158 C   0  0  0  0  0  0  0  0  0  0  0  0
  -19.7576   18.7893  -13.6885 C   0  0  0  0  0  0  0  0  0  0  0  0
  -21.0341   19.2733  -13.5834 C   0  0  0  0  0  0  0  0  0  0  0  0
  -21.5856   19.2467  -15.2004 S   0  0  0  0  0  0  0  0  0  0  0  0
  -21.7496   19.7149  -12.3319 C   0  0  0  0  0  0  0  0  0  0  0  0
  -21.5884   21.2190  -12.1749 C   0  0  0  0  0  0  0  0  0  0  0  0
  -21.2454   18.9735  -11.1297 C   0  0  0  0  0  0  0  0  0  0  0  0
  -23.2143   19.3775  -12.5145 C   0  0  0  0  0  0  0  0  0  0  0  0
  -18.9170   15.1494  -21.6929 N   0  0  0  0  0  0  0  0  0  0  0  0
  -19.7653   15.0831  -22.3370 H   0  0  0  0  0  0  0  0  0  0  0  0
  -18.2026   13.9727  -21.4789 C   0  0  0  0  0  0  0  0  0  0  0  0
  -17.2298   13.4139  -22.2360 N   0  0  0  0  0  0  0  0  0  0  0  0
  -16.7938   12.2880  -21.7040 C   0  0  0  0  0  0  0  0  0  0  0  0
  -15.8277   11.3873  -22.1128 C   0  0  0  0  0  0  0  0  0  0  0  0
  -15.5839   10.2755  -21.3320 C   0  0  0  0  0  0  0  0  0  0  0  0
  -16.3090   10.0938  -20.1691 C   0  0  0  0  0  0  0  0  0  0  0  0
  -17.2724   11.0007  -19.7726 C   0  0  0  0  0  0  0  0  0  0  0  0
  -17.5278   12.1234  -20.5482 C   0  0  0  0  0  0  0  0  0  0  0  0
  -18.3886   13.1369  -20.3955 N   0  0  0  0  0  0  0  0  0  0  0  0
  -19.3111   13.3421  -19.3510 C   0  0  0  0  0  0  0  0  0  0  0  0
  -18.9812   12.8981  -18.0692 C   0  0  0  0  0  0  0  0  0  0  0  0
  -19.8561   13.0749  -17.0196 C   0  0  0  0  0  0  0  0  0  0  0  0
  -19.5673   12.6403  -15.7012 N   0  0  0  0  0  0  0  0  0  0  0  0
  -21.0363   13.6860  -17.2565 N   0  0  0  0  0  0  0  0  0  0  0  0
  -21.3674   14.1159  -18.4785 C   0  0  0  0  0  0  0  0  0  0  0  0
  -20.5074   13.9343  -19.4759 N   0  0  0  0  0  0  0  0  0  0  0  0
  -19.1476   11.7067  -15.5177 H   0  0  0  0  0  0  0  0  0  0  0  0
  -19.7714   13.2586  -14.8873 H   0  0  0  0  0  0  0  0  0  0  0  0
  1  2  1  0  0  0
  2  3  2  0  0  0
  3  4  1  0  0  0
  4  5  2  0  0  0
  5  8  1  0  0  0
  8  9  1  0  0  0
  9 10  2  0  0  0
  9 12  1  0  0  0
 12 13  2  0  0  0
 13 14  1  0  0  0
 14 15  2  0  0  0
 15 16  1  0  0  0
 15 17  1  0  0  0
 17 18  1  0  0  0
 17 19  1  0  0  0
 17 20  1  0  0  0
  5  6  1  0  0  0
  6  7  2  0  0  0
  7 21  1  0  0  0
 21 23  1  0  0  0
 23 24  2  0  0  0
 24 25  1  0  0  0
 25 26  2  0  0  0
 26 27  1  0  0  0
 27 28  2  0  0  0
 28 29  1  0  0  0
 29 30  2  0  0  0
 30 31  1  0  0  0
 31 32  1  0  0  0
 32 33  2  0  0  0
 33 34  1  0  0  0
 34 35  1  0  0  0
 34 36  2  0  0  0
 36 37  1  0  0  0
 37 38  2  0  0  0
  7  2  1  0  0  0
 31 23  1  0  0  0
 38 32  1  0  0  0
 16 12  1  0  0  0
 30 25  1  0  0  0
  8 11  1  0  0  0
 21 22  1  0  0  0
 35 39  1  0  0  0
 35 40  1  0  0  0
M  END
> <minimizedAffinity>
-8.47911

> <CNNscore>
0.0893730596

> <CNNaffinity>
6.3321523666

> <CNN_VS>
0.5659238100

> <CNNaffinity_variance>
0.4973218441

$$$$
[H]c1nc(N([H])[H])c([H])c(-n2c(N([H])c3c([H])c(N([H])C(=O)c4sc(C(C([H])([H])[H])(C([H])([H])[H])C([H])([H])[H])c([H])c4[H])c([H])c([H])c3C([H])([H])[H])nc3c([H])c([H])c([H])c([H])c32)n1


 40 44  0  0  0  0  0  0  0  0999 V2000
  -16.6072   12.0282  -22.0305 C   0  0  0  0  0  0  0  0  0  0  0  0
  -17.2631   11.7465  -20.7269 C   0  0  0  0  0  0  0  0  0  0  0  0
  -16.7476   10.7868  -19.9208 C   0  0  0  0  0  0  0  0  0  0  0  0
  -17.3611   10.5133  -18.6892 C   0  0  0  0  0  0  0  0  0  0  0  0
  -18.4735   11.2174  -18.3139 C   0  0  0  0  0  0  0  0  0  0  0  0
  -18.9694   12.1977  -19.1791 C   0  0  0  0  0  0  0  0  0  0  0  0
  -18.3985   12.4964  -20.3933 C   0  0  0  0  0  0  0  0  0  0  0  0
  -19.0903   10.9497  -17.0734 N   0  0  0  0  0  0  0  0  0  0  0  0
  -19.2639    9.6145  -16.6630 C   0  0  0  0  0  0  0  0  0  0  0  0
  -18.8712    8.6839  -17.4015 O   0  0  0  0  0  0  0  0  0  0  0  0
  -19.4156   11.7577  -16.4586 H   0  0  0  0  0  0  0  0  0  0  0  0
  -19.8940    9.2482  -15.3879 C   0  0  0  0  0  0  0  0  0  0  0  0
  -19.2803    8.9181  -14.2152 C   0  0  0  0  0  0  0  0  0  0  0  0
  -20.0606    8.6140  -13.1667 C   0  0  0  0  0  0  0  0  0  0  0  0
  -21.4150    8.6609  -13.3620 C   0  0  0  0  0  0  0  0  0  0  0  0
  -21.5475    9.1268  -15.0006 S   0  0  0  0  0  0  0  0  0  0  0  0
  -22.4995    8.3685  -12.3561 C   0  0  0  0  0  0  0  0  0  0  0  0
  -22.4691    6.8871  -12.0132 C   0  0  0  0  0  0  0  0  0  0  0  0
  -23.8431    8.7926  -12.8698 C   0  0  0  0  0  0  0  0  0  0  0  0
  -22.1889    9.1828  -11.1180 C   0  0  0  0  0  0  0  0  0  0  0  0
  -18.8670   13.4839  -21.2651 N   0  0  0  0  0  0  0  0  0  0  0  0
  -19.3465   13.1273  -22.1493 H   0  0  0  0  0  0  0  0  0  0  0  0
  -18.7795   14.8664  -21.1170 C   0  0  0  0  0  0  0  0  0  0  0  0
  -19.2716   15.6530  -20.1316 N   0  0  0  0  0  0  0  0  0  0  0  0
  -18.9869   16.9237  -20.3437 C   0  0  0  0  0  0  0  0  0  0  0  0
  -19.2769   18.0674  -19.6228 C   0  0  0  0  0  0  0  0  0  0  0  0
  -18.8364   19.2842  -20.1030 C   0  0  0  0  0  0  0  0  0  0  0  0
  -18.1216   19.3257  -21.2854 C   0  0  0  0  0  0  0  0  0  0  0  0
  -17.8396   18.1758  -21.9967 C   0  0  0  0  0  0  0  0  0  0  0  0
  -18.2763   16.9451  -21.5253 C   0  0  0  0  0  0  0  0  0  0  0  0
  -18.1410   15.7046  -22.0093 N   0  0  0  0  0  0  0  0  0  0  0  0
  -17.4841   15.2998  -23.1877 C   0  0  0  0  0  0  0  0  0  0  0  0
  -16.0982   15.4488  -23.2669 C   0  0  0  0  0  0  0  0  0  0  0  0
  -15.4165   15.0694  -24.4026 C   0  0  0  0  0  0  0  0  0  0  0  0
  -14.0107   15.2023  -24.5313 N   0  0  0  0  0  0  0  0  0  0  0  0
  -16.1156   14.5510  -25.4345 N   0  0  0  0  0  0  0  0  0  0  0  0
  -17.4430   14.4028  -25.3746 C   0  0  0  0  0  0  0  0  0  0  0  0
  -18.0796   14.7759  -24.2687 N   0  0  0  0  0  0  0  0  0  0  0  0
  -13.5171   16.0644  -24.2238 H   0  0  0  0  0  0  0  0  0  0  0  0
  -13.4445   14.4276  -24.9383 H   0  0  0  0  0  0  0  0  0  0  0  0
  1  2  1  0  0  0
  2  3  2  0  0  0
  3  4  1  0  0  0
  4  5  2  0  0  0
  5  8  1  0  0  0
  8  9  1  0  0  0
  9 10  2  0  0  0
  9 12  1  0  0  0
 12 13  2  0  0  0
 13 14  1  0  0  0
 14 15  2  0  0  0
 15 16  1  0  0  0
 15 17  1  0  0  0
 17 18  1  0  0  0
 17 19  1  0  0  0
 17 20  1  0  0  0
  5  6  1  0  0  0
  6  7  2  0  0  0
  7 21  1  0  0  0
 21 23  1  0  0  0
 23 24  2  0  0  0
 24 25  1  0  0  0
 25 26  2  0  0  0
 26 27  1  0  0  0
 27 28  2  0  0  0
 28 29  1  0  0  0
 29 30  2  0  0  0
 30 31  1  0  0  0
 31 32  1  0  0  0
 32 33  2  0  0  0
 33 34  1  0  0  0
 34 35  1  0  0  0
 34 36  2  0  0  0
 36 37  1  0  0  0
 37 38  2  0  0  0
  7  2  1  0  0  0
 31 23  1  0  0  0
 38 32  1  0  0  0
 16 12  1  0  0  0
 30 25  1  0  0  0
  8 11  1  0  0  0
 21 22  1  0  0  0
 35 39  1  0  0  0
 35 40  1  0  0  0
M  END
> <minimizedAffinity>
-8.62968

> <CNNscore>
0.0759112239

> <CNNaffinity>
6.6001420021

> <CNN_VS>
0.5010248423

> <CNNaffinity_variance>
0.1789682209

$$$$
[H]/C(C(=O)N([H])c1c(OC([H])([H])[H])c([H])c2nc(N([H])c3c([H])c([H])c([H])c([H])c3C([H])([H])[H])c3c([H])nc([H])n3c2c1[H])=C(/[H])C([H])([H])N(C([H])([H])[H])C([H])([H])[H]


 34 37  0  0  0  0  0  0  0  0999 V2000
  -20.1321   14.0306  -19.4814 C   0  0  0  0  0  0  0  0  0  0  0  0
  -19.4271   14.1638  -20.6625 C   0  0  0  0  0  0  0  0  0  0  0  0
  -18.4172   13.2963  -20.9953 C   0  0  0  0  0  0  0  0  0  0  0  0
  -17.7091   13.3914  -22.1321 N   0  0  0  0  0  0  0  0  0  0  0  0
  -16.7191   12.5618  -22.4849 C   0  0  0  0  0  0  0  0  0  0  0  0
  -16.4593   11.5456  -21.5521 C   0  0  0  0  0  0  0  0  0  0  0  0
  -15.5462   10.5267  -21.5515 C   0  0  0  0  0  0  0  0  0  0  0  0
  -15.7101    9.8267  -20.4175 N   0  0  0  0  0  0  0  0  0  0  0  0
  -16.7014   10.3695  -19.6945 C   0  0  0  0  0  0  0  0  0  0  0  0
  -17.1510   11.4260  -20.4073 N   0  0  0  0  0  0  0  0  0  0  0  0
  -18.1425   12.2941  -20.1015 C   0  0  0  0  0  0  0  0  0  0  0  0
  -18.8440   12.1485  -18.9096 C   0  0  0  0  0  0  0  0  0  0  0  0
  -19.8621   13.0107  -18.5585 C   0  0  0  0  0  0  0  0  0  0  0  0
  -20.6224   12.9459  -17.3860 N   0  0  0  0  0  0  0  0  0  0  0  0
  -20.7120   11.9093  -16.4453 C   0  0  0  0  0  0  0  0  0  0  0  0
  -20.0956   10.8404  -16.5206 O   0  0  0  0  0  0  0  0  0  0  0  0
  -21.2227   13.8146  -17.1783 H   0  0  0  0  0  0  0  0  0  0  0  0
  -21.6110   12.1152  -15.2794 C   0  0  0  0  0  0  0  0  0  0  0  0
  -22.4698   11.1741  -14.9252 C   0  0  0  0  0  0  0  0  0  0  0  0
  -23.3710   11.3715  -13.7625 C   0  0  0  0  0  0  0  0  0  0  0  0
  -24.6059   10.6037  -13.9262 N   0  0  0  0  0  0  0  0  0  0  0  0
  -24.6199    9.9003  -15.1759 C   0  0  0  0  0  0  0  0  0  0  0  0
  -24.7332    9.7022  -12.7940 C   0  0  0  0  0  0  0  0  0  0  0  0
  -20.7932   16.2535  -18.8572 C   0  0  0  0  0  0  0  0  0  0  0  0
  -21.1453   14.9246  -19.1781 O   0  0  0  0  0  0  0  0  0  0  0  0
  -15.9499   12.6154  -23.6564 N   0  0  0  0  0  0  0  0  0  0  0  0
  -15.3763   11.7197  -23.8446 H   0  0  0  0  0  0  0  0  0  0  0  0
  -15.8086   13.6210  -24.6005 C   0  0  0  0  0  0  0  0  0  0  0  0
  -14.8867   14.6160  -24.5452 C   0  0  0  0  0  0  0  0  0  0  0  0
  -14.7870   15.6063  -25.5252 C   0  0  0  0  0  0  0  0  0  0  0  0
  -15.6336   15.6034  -26.5932 C   0  0  0  0  0  0  0  0  0  0  0  0
  -16.5716   14.6235  -26.6858 C   0  0  0  0  0  0  0  0  0  0  0  0
  -16.6566   13.6529  -25.7092 C   0  0  0  0  0  0  0  0  0  0  0  0
  -17.6887   12.5881  -25.8259 C   0  0  0  0  0  0  0  0  0  0  0  0
 24 25  1  0  0  0
 25  1  1  0  0  0
  1  2  2  0  0  0
  2  3  1  0  0  0
  3  4  1  0  0  0
  4  5  2  0  0  0
  5 26  1  0  0  0
 26 28  1  0  0  0
 28 29  2  0  0  0
 29 30  1  0  0  0
 30 31  2  0  0  0
 31 32  1  0  0  0
 32 33  2  0  0  0
 33 34  1  0  0  0
  5  6  1  0  0  0
  6  7  2  0  0  0
  7  8  1  0  0  0
  8  9  2  0  0  0
  9 10  1  0  0  0
 10 11  1  0  0  0
 11 12  1  0  0  0
 12 13  2  0  0  0
 13 14  1  0  0  0
 14 15  1  0  0  0
 15 16  2  0  0  0
 15 18  1  0  0  0
 18 19  2  0  0  0
 19 20  1  0  0  0
 20 21  1  0  0  0
 21 22  1  0  0  0
 21 23  1  0  0  0
 13  1  1  0  0  0
 11  3  2  0  0  0
 33 28  1  0  0  0
 10  6  1  0  0  0
 26 27  1  0  0  0
 14 17  1  0  0  0
M  END
> <minimizedAffinity>
-8.81304

> <CNNscore>
0.9775418043

> <CNNaffinity>
7.5905122757

> <CNN_VS>
7.4200429916

> <CNNaffinity_variance>
0.0149736824

$$$$
[H]/C(C(=O)N([H])c1c(OC([H])([H])[H])c([H])c2nc(N([H])c3c([H])c([H])c([H])c([H])c3C([H])([H])[H])c3c([H])nc([H])n3c2c1[H])=C(/[H])C([H])([H])N(C([H])([H])[H])C([H])([H])[H]


 34 37  0  0  0  0  0  0  0  0999 V2000
  -20.0682   14.0881  -19.3340 C   0  0  0  0  0  0  0  0  0  0  0  0
  -19.4258   14.1815  -20.5540 C   0  0  0  0  0  0  0  0  0  0  0  0
  -18.4322   13.3041  -20.9091 C   0  0  0  0  0  0  0  0  0  0  0  0
  -17.7843   13.3609  -22.0837 N   0  0  0  0  0  0  0  0  0  0  0  0
  -16.8117   12.5207  -22.4590 C   0  0  0  0  0  0  0  0  0  0  0  0
  -16.5011   11.5372  -21.5069 C   0  0  0  0  0  0  0  0  0  0  0  0
  -15.5865   10.5198  -21.5190 C   0  0  0  0  0  0  0  0  0  0  0  0
  -15.6894    9.8587  -20.3548 N   0  0  0  0  0  0  0  0  0  0  0  0
  -16.6433   10.4250  -19.6002 C   0  0  0  0  0  0  0  0  0  0  0  0
  -17.1321   11.4561  -20.3242 N   0  0  0  0  0  0  0  0  0  0  0  0
  -18.1088   12.3332  -19.9971 C   0  0  0  0  0  0  0  0  0  0  0  0
  -18.7471   12.2278  -18.7661 C   0  0  0  0  0  0  0  0  0  0  0  0
  -19.7479   13.1006  -18.3921 C   0  0  0  0  0  0  0  0  0  0  0  0
  -20.4461   13.0752  -17.1802 N   0  0  0  0  0  0  0  0  0  0  0  0
  -20.8329   11.9724  -16.4045 C   0  0  0  0  0  0  0  0  0  0  0  0
  -20.5986   10.7943  -16.6966 O   0  0  0  0  0  0  0  0  0  0  0  0
  -20.7252   14.0384  -16.7897 H   0  0  0  0  0  0  0  0  0  0  0  0
  -21.5750   12.2443  -15.1453 C   0  0  0  0  0  0  0  0  0  0  0  0
  -21.2344   11.6305  -14.0247 C   0  0  0  0  0  0  0  0  0  0  0  0
  -21.9700   11.8961  -12.7632 C   0  0  0  0  0  0  0  0  0  0  0  0
  -21.3365   11.2083  -11.6377 N   0  0  0  0  0  0  0  0  0  0  0  0
  -19.9800   10.8548  -11.9404 C   0  0  0  0  0  0  0  0  0  0  0  0
  -21.4261   12.0694  -10.4710 C   0  0  0  0  0  0  0  0  0  0  0  0
  -20.9965   16.2924  -19.5518 C   0  0  0  0  0  0  0  0  0  0  0  0
  -21.0667   14.9910  -19.0091 O   0  0  0  0  0  0  0  0  0  0  0  0
  -16.1045   12.5349  -23.6700 N   0  0  0  0  0  0  0  0  0  0  0  0
  -15.6619   11.5844  -23.9295 H   0  0  0  0  0  0  0  0  0  0  0  0
  -15.8844   13.5604  -24.5770 C   0  0  0  0  0  0  0  0  0  0  0  0
  -14.9577   14.5418  -24.4316 C   0  0  0  0  0  0  0  0  0  0  0  0
  -14.7767   15.5534  -25.3777 C   0  0  0  0  0  0  0  0  0  0  0  0
  -15.5442   15.5864  -26.5034 C   0  0  0  0  0  0  0  0  0  0  0  0
  -16.4841   14.6211  -26.6866 C   0  0  0  0  0  0  0  0  0  0  0  0
  -16.6500   13.6291  -25.7425 C   0  0  0  0  0  0  0  0  0  0  0  0
  -17.6829   12.5808  -25.9586 C   0  0  0  0  0  0  0  0  0  0  0  0
 24 25  1  0  0  0
 25  1  1  0  0  0
  1  2  2  0  0  0
  2  3  1  0  0  0
  3  4  1  0  0  0
  4  5  2  0  0  0
  5 26  1  0  0  0
 26 28  1  0  0  0
 28 29  2  0  0  0
 29 30  1  0  0  0
 30 31  2  0  0  0
 31 32  1  0  0  0
 32 33  2  0  0  0
 33 34  1  0  0  0
  5  6  1  0  0  0
  6  7  2  0  0  0
  7  8  1  0  0  0
  8  9  2  0  0  0
  9 10  1  0  0  0
 10 11  1  0  0  0
 11 12  1  0  0  0
 12 13  2  0  0  0
 13 14  1  0  0  0
 14 15  1  0  0  0
 15 16  2  0  0  0
 15 18  1  0  0  0
 18 19  2  0  0  0
 19 20  1  0  0  0
 20 21  1  0  0  0
 21 22  1  0  0  0
 21 23  1  0  0  0
 13  1  1  0  0  0
 11  3  2  0  0  0
 33 28  1  0  0  0
 10  6  1  0  0  0
 26 27  1  0  0  0
 14 17  1  0  0  0
M  END
> <minimizedAffinity>
-9.00229

> <CNNscore>
0.9703859091

> <CNNaffinity>
7.6477684975

> <CNN_VS>
7.4212865829

> <CNNaffinity_variance>
0.0232794471

$$$$
[H]/C(C(=O)N([H])c1c(OC([H])([H])[H])c([H])c2nc(N([H])c3c([H])c([H])c([H])c([H])c3C([H])([H])[H])c3c([H])nc([H])n3c2c1[H])=C(/[H])C([H])([H])N(C([H])([H])[H])C([H])([H])[H]


 34 37  0  0  0  0  0  0  0  0999 V2000
  -19.9279   14.2310  -19.3854 C   0  0  0  0  0  0  0  0  0  0  0  0
  -19.2488   14.3229  -20.5855 C   0  0  0  0  0  0  0  0  0  0  0  0
  -18.2979   13.4002  -20.9426 C   0  0  0  0  0  0  0  0  0  0  0  0
  -17.6166   13.4540  -22.0983 N   0  0  0  0  0  0  0  0  0  0  0  0
  -16.6840   12.5702  -22.4750 C   0  0  0  0  0  0  0  0  0  0  0  0
  -16.4556   11.5428  -21.5463 C   0  0  0  0  0  0  0  0  0  0  0  0
  -15.6006   10.4749  -21.5671 C   0  0  0  0  0  0  0  0  0  0  0  0
  -15.7722    9.7869  -20.4268 N   0  0  0  0  0  0  0  0  0  0  0  0
  -16.7121   10.3850  -19.6791 C   0  0  0  0  0  0  0  0  0  0  0  0
  -17.1216   11.4636  -20.3829 N   0  0  0  0  0  0  0  0  0  0  0  0
  -18.0550   12.3858  -20.0533 C   0  0  0  0  0  0  0  0  0  0  0  0
  -18.7309   12.2813  -18.8425 C   0  0  0  0  0  0  0  0  0  0  0  0
  -19.6898   13.1992  -18.4668 C   0  0  0  0  0  0  0  0  0  0  0  0
  -20.4206   13.1786  -17.2741 N   0  0  0  0  0  0  0  0  0  0  0  0
  -20.8082   12.0804  -16.4924 C   0  0  0  0  0  0  0  0  0  0  0  0
  -20.5444   10.9027  -16.7601 O   0  0  0  0  0  0  0  0  0  0  0  0
  -20.7280   14.1421  -16.9061 H   0  0  0  0  0  0  0  0  0  0  0  0
  -21.5895   12.3569  -15.2583 C   0  0  0  0  0  0  0  0  0  0  0  0
  -22.0602   13.5703  -15.0248 C   0  0  0  0  0  0  0  0  0  0  0  0
  -22.8412   13.8550  -13.7951 C   0  0  0  0  0  0  0  0  0  0  0  0
  -24.2756   13.7116  -14.0460 N   0  0  0  0  0  0  0  0  0  0  0  0
  -25.0110   13.6080  -12.8191 C   0  0  0  0  0  0  0  0  0  0  0  0
  -24.7116   14.8426  -14.8469 C   0  0  0  0  0  0  0  0  0  0  0  0
  -21.6598   15.7351  -20.0967 C   0  0  0  0  0  0  0  0  0  0  0  0
  -20.8816   15.1802  -19.0578 O   0  0  0  0  0  0  0  0  0  0  0  0
  -15.9449   12.5792  -23.6670 N   0  0  0  0  0  0  0  0  0  0  0  0
  -15.4260   11.6532  -23.8670 H   0  0  0  0  0  0  0  0  0  0  0  0
  -15.7749   13.5734  -24.6185 C   0  0  0  0  0  0  0  0  0  0  0  0
  -14.8007   14.5183  -24.5906 C   0  0  0  0  0  0  0  0  0  0  0  0
  -14.6740   15.4993  -25.5768 C   0  0  0  0  0  0  0  0  0  0  0  0
  -15.5466   15.5383  -26.6230 C   0  0  0  0  0  0  0  0  0  0  0  0
  -16.5371   14.6091  -26.6877 C   0  0  0  0  0  0  0  0  0  0  0  0
  -16.6481   13.6470  -25.7054 C   0  0  0  0  0  0  0  0  0  0  0  0
  -17.7376   12.6379  -25.7915 C   0  0  0  0  0  0  0  0  0  0  0  0
 24 25  1  0  0  0
 25  1  1  0  0  0
  1  2  2  0  0  0
  2  3  1  0  0  0
  3  4  1  0  0  0
  4  5  2  0  0  0
  5 26  1  0  0  0
 26 28  1  0  0  0
 28 29  2  0  0  0
 29 30  1  0  0  0
 30 31  2  0  0  0
 31 32  1  0  0  0
 32 33  2  0  0  0
 33 34  1  0  0  0
  5  6  1  0  0  0
  6  7  2  0  0  0
  7  8  1  0  0  0
  8  9  2  0  0  0
  9 10  1  0  0  0
 10 11  1  0  0  0
 11 12  1  0  0  0
 12 13  2  0  0  0
 13 14  1  0  0  0
 14 15  1  0  0  0
 15 16  2  0  0  0
 15 18  1  0  0  0
 18 19  2  0  0  0
 19 20  1  0  0  0
 20 21  1  0  0  0
 21 22  1  0  0  0
 21 23  1  0  0  0
 13  1  1  0  0  0
 11  3  2  0  0  0
 33 28  1  0  0  0
 10  6  1  0  0  0
 26 27  1  0  0  0
 14 17  1  0  0  0
M  END
> <minimizedAffinity>
-8.80138

> <CNNscore>
0.9599214196

> <CNNaffinity>
7.6096601486

> <CNN_VS>
7.3046755791

> <CNNaffinity_variance>
0.0288153328

$$$$
[H]/C(C(=O)N([H])c1c(OC([H])([H])[H])c([H])c2nc(N([H])c3c([H])c([H])c([H])c([H])c3C([H])([H])[H])c3c([H])nc([H])n3c2c1[H])=C(/[H])C([H])([H])N(C([H])([H])[H])C([H])([H])[H]


 34 37  0  0  0  0  0  0  0  0999 V2000
  -20.2862   14.3992  -19.7689 C   0  0  0  0  0  0  0  0  0  0  0  0
  -19.4908   14.4712  -20.8966 C   0  0  0  0  0  0  0  0  0  0  0  0
  -18.5071   13.5457  -21.1393 C   0  0  0  0  0  0  0  0  0  0  0  0
  -17.7138   13.5804  -22.2220 N   0  0  0  0  0  0  0  0  0  0  0  0
  -16.7465   12.6933  -22.4868 C   0  0  0  0  0  0  0  0  0  0  0  0
  -16.6101   11.6843  -21.5206 C   0  0  0  0  0  0  0  0  0  0  0  0
  -15.7554   10.6194  -21.4355 C   0  0  0  0  0  0  0  0  0  0  0  0
  -16.0388    9.9523  -20.3052 N   0  0  0  0  0  0  0  0  0  0  0  0
  -17.0498   10.5607  -19.6667 C   0  0  0  0  0  0  0  0  0  0  0  0
  -17.3890   11.6244  -20.4282 N   0  0  0  0  0  0  0  0  0  0  0  0
  -18.3524   12.5490  -20.2111 C   0  0  0  0  0  0  0  0  0  0  0  0
  -19.1458   12.4647  -19.0722 C   0  0  0  0  0  0  0  0  0  0  0  0
  -20.1392   13.3858  -18.8117 C   0  0  0  0  0  0  0  0  0  0  0  0
  -20.9855   13.3847  -17.6978 N   0  0  0  0  0  0  0  0  0  0  0  0
  -20.9573   14.2100  -16.5640 C   0  0  0  0  0  0  0  0  0  0  0  0
  -20.1321   15.1106  -16.3740 O   0  0  0  0  0  0  0  0  0  0  0  0
  -21.7677   12.6458  -17.7149 H   0  0  0  0  0  0  0  0  0  0  0  0
  -21.9931   13.9821  -15.5221 C   0  0  0  0  0  0  0  0  0  0  0  0
  -21.8817   12.9671  -14.6819 C   0  0  0  0  0  0  0  0  0  0  0  0
  -22.9113   12.7324  -13.6388 C   0  0  0  0  0  0  0  0  0  0  0  0
  -22.3343   12.8638  -12.3006 N   0  0  0  0  0  0  0  0  0  0  0  0
  -23.3516   13.0858  -11.3144 C   0  0  0  0  0  0  0  0  0  0  0  0
  -21.5588   11.6674  -12.0212 C   0  0  0  0  0  0  0  0  0  0  0  0
  -21.2243   16.5424  -20.3121 C   0  0  0  0  0  0  0  0  0  0  0  0
  -21.2697   15.3509  -19.5563 O   0  0  0  0  0  0  0  0  0  0  0  0
  -15.8920   12.6827  -23.5989 N   0  0  0  0  0  0  0  0  0  0  0  0
  -15.2818   11.7946  -23.6734 H   0  0  0  0  0  0  0  0  0  0  0  0
  -15.7064   13.6176  -24.6059 C   0  0  0  0  0  0  0  0  0  0  0  0
  -14.6991   14.5267  -24.6473 C   0  0  0  0  0  0  0  0  0  0  0  0
  -14.5579   15.4482  -25.6875 C   0  0  0  0  0  0  0  0  0  0  0  0
  -15.4496   15.4626  -26.7181 C   0  0  0  0  0  0  0  0  0  0  0  0
  -16.4733   14.5679  -26.7141 C   0  0  0  0  0  0  0  0  0  0  0  0
  -16.5983   13.6645  -25.6791 C   0  0  0  0  0  0  0  0  0  0  0  0
  -17.7242   12.6925  -25.6903 C   0  0  0  0  0  0  0  0  0  0  0  0
 24 25  1  0  0  0
 25  1  1  0  0  0
  1  2  2  0  0  0
  2  3  1  0  0  0
  3  4  1  0  0  0
  4  5  2  0  0  0
  5 26  1  0  0  0
 26 28  1  0  0  0
 28 29  2  0  0  0
 29 30  1  0  0  0
 30 31  2  0  0  0
 31 32  1  0  0  0
 32 33  2  0  0  0
 33 34  1  0  0  0
  5  6  1  0  0  0
  6  7  2  0  0  0
  7  8  1  0  0  0
  8  9  2  0  0  0
  9 10  1  0  0  0
 10 11  1  0  0  0
 11 12  1  0  0  0
 12 13  2  0  0  0
 13 14  1  0  0  0
 14 15  1  0  0  0
 15 16  2  0  0  0
 15 18  1  0  0  0
 18 19  2  0  0  0
 19 20  1  0  0  0
 20 21  1  0  0  0
 21 22  1  0  0  0
 21 23  1  0  0  0
 13  1  1  0  0  0
 11  3  2  0  0  0
 33 28  1  0  0  0
 10  6  1  0  0  0
 26 27  1  0  0  0
 14 17  1  0  0  0
M  END
> <minimizedAffinity>
-8.71357

> <CNNscore>
0.9299216270

> <CNNaffinity>
7.5757980347

> <CNN_VS>
7.0448985100

> <CNNaffinity_variance>
0.0913227648

$$$$
[H]/C(C(=O)N([H])c1c(OC([H])([H])[H])c([H])c2nc(N([H])c3c([H])c([H])c([H])c([H])c3C([H])([H])[H])c3c([H])nc([H])n3c2c1[H])=C(/[H])C([H])([H])N(C([H])([H])[H])C([H])([H])[H]


 34 37  0  0  0  0  0  0  0  0999 V2000
  -19.9852   13.6193  -18.2204 C   0  0  0  0  0  0  0  0  0  0  0  0
  -19.6342   13.8331  -19.5398 C   0  0  0  0  0  0  0  0  0  0  0  0
  -18.6634   13.0818  -20.1532 C   0  0  0  0  0  0  0  0  0  0  0  0
  -18.2938   13.2578  -21.4319 N   0  0  0  0  0  0  0  0  0  0  0  0
  -17.3514   12.5421  -22.0583 C   0  0  0  0  0  0  0  0  0  0  0  0
  -16.7509   11.5563  -21.2595 C   0  0  0  0  0  0  0  0  0  0  0  0
  -15.7695   10.6426  -21.5310 C   0  0  0  0  0  0  0  0  0  0  0  0
  -15.5552    9.9242  -20.4170 N   0  0  0  0  0  0  0  0  0  0  0  0
  -16.3716   10.3532  -19.4425 C   0  0  0  0  0  0  0  0  0  0  0  0
  -17.1002   11.3576  -19.9781 N   0  0  0  0  0  0  0  0  0  0  0  0
  -18.0605   12.1116  -19.3955 C   0  0  0  0  0  0  0  0  0  0  0  0
  -18.4040   11.8858  -18.0671 C   0  0  0  0  0  0  0  0  0  0  0  0
  -19.3772   12.6310  -17.4339 C   0  0  0  0  0  0  0  0  0  0  0  0
  -19.7906   12.4792  -16.1061 N   0  0  0  0  0  0  0  0  0  0  0  0
  -20.6690   11.5346  -15.5551 C   0  0  0  0  0  0  0  0  0  0  0  0
  -21.2381   10.6474  -16.2010 O   0  0  0  0  0  0  0  0  0  0  0  0
  -19.3753   13.1880  -15.4110 H   0  0  0  0  0  0  0  0  0  0  0  0
  -20.9301   11.6096  -14.0935 C   0  0  0  0  0  0  0  0  0  0  0  0
  -20.1341   10.9865  -13.2411 C   0  0  0  0  0  0  0  0  0  0  0  0
  -20.3876   11.0562  -11.7803 C   0  0  0  0  0  0  0  0  0  0  0  0
  -19.7434    9.9398  -11.0874 N   0  0  0  0  0  0  0  0  0  0  0  0
  -19.1169    9.0432  -12.0149 C   0  0  0  0  0  0  0  0  0  0  0  0
  -18.7935   10.4853  -10.1331 C   0  0  0  0  0  0  0  0  0  0  0  0
  -21.5935   15.3921  -18.4166 C   0  0  0  0  0  0  0  0  0  0  0  0
  -20.9697   14.3968  -17.6336 O   0  0  0  0  0  0  0  0  0  0  0  0
  -16.9280   12.6837  -23.3878 N   0  0  0  0  0  0  0  0  0  0  0  0
  -17.2162   11.8633  -24.0286 H   0  0  0  0  0  0  0  0  0  0  0  0
  -16.2074   13.6950  -24.0048 C   0  0  0  0  0  0  0  0  0  0  0  0
  -14.8581   13.8338  -23.9495 C   0  0  0  0  0  0  0  0  0  0  0  0
  -14.1806   14.8734  -24.5910 C   0  0  0  0  0  0  0  0  0  0  0  0
  -14.8712   15.8029  -25.3097 C   0  0  0  0  0  0  0  0  0  0  0  0
  -16.2245   15.6993  -25.3897 C   0  0  0  0  0  0  0  0  0  0  0  0
  -16.8782   14.6665  -24.7502 C   0  0  0  0  0  0  0  0  0  0  0  0
  -18.3592   14.5680  -24.8480 C   0  0  0  0  0  0  0  0  0  0  0  0
 24 25  1  0  0  0
 25  1  1  0  0  0
  1  2  2  0  0  0
  2  3  1  0  0  0
  3  4  1  0  0  0
  4  5  2  0  0  0
  5 26  1  0  0  0
 26 28  1  0  0  0
 28 29  2  0  0  0
 29 30  1  0  0  0
 30 31  2  0  0  0
 31 32  1  0  0  0
 32 33  2  0  0  0
 33 34  1  0  0  0
  5  6  1  0  0  0
  6  7  2  0  0  0
  7  8  1  0  0  0
  8  9  2  0  0  0
  9 10  1  0  0  0
 10 11  1  0  0  0
 11 12  1  0  0  0
 12 13  2  0  0  0
 13 14  1  0  0  0
 14 15  1  0  0  0
 15 16  2  0  0  0
 15 18  1  0  0  0
 18 19  2  0  0  0
 19 20  1  0  0  0
 20 21  1  0  0  0
 21 22  1  0  0  0
 21 23  1  0  0  0
 13  1  1  0  0  0
 11  3  2  0  0  0
 33 28  1  0  0  0
 10  6  1  0  0  0
 26 27  1  0  0  0
 14 17  1  0  0  0
M  END
> <minimizedAffinity>
-8.70762

> <CNNscore>
0.8980929852

> <CNNaffinity>
7.4346313477

> <CNN_VS>
6.6769900322

> <CNNaffinity_variance>
0.0550960600

$$$$
[H]/C(C(=O)N([H])c1c(OC([H])([H])[H])c([H])c2nc(N([H])c3c([H])c([H])c([H])c([H])c3C([H])([H])[H])c3c([H])nc([H])n3c2c1[H])=C(/[H])C([H])([H])N(C([H])([H])[H])C([H])([H])[H]


 34 37  0  0  0  0  0  0  0  0999 V2000
  -20.2137   13.0644  -17.6258 C   0  0  0  0  0  0  0  0  0  0  0  0
  -19.9325   13.5366  -18.8937 C   0  0  0  0  0  0  0  0  0  0  0  0
  -18.9597   12.9619  -19.6724 C   0  0  0  0  0  0  0  0  0  0  0  0
  -18.6564   13.3905  -20.9082 N   0  0  0  0  0  0  0  0  0  0  0  0
  -17.7140   12.8516  -21.6919 C   0  0  0  0  0  0  0  0  0  0  0  0
  -17.0366   11.7661  -21.1147 C   0  0  0  0  0  0  0  0  0  0  0  0
  -16.0307   10.9690  -21.5887 C   0  0  0  0  0  0  0  0  0  0  0  0
  -15.7356   10.0680  -20.6378 N   0  0  0  0  0  0  0  0  0  0  0  0
  -16.5243   10.2673  -19.5708 C   0  0  0  0  0  0  0  0  0  0  0  0
  -17.3184   11.3158  -19.8814 N   0  0  0  0  0  0  0  0  0  0  0  0
  -18.2823   11.8994  -19.1328 C   0  0  0  0  0  0  0  0  0  0  0  0
  -18.5551   11.4141  -17.8585 C   0  0  0  0  0  0  0  0  0  0  0  0
  -19.5292   11.9791  -17.0615 C   0  0  0  0  0  0  0  0  0  0  0  0
  -19.8750   11.5629  -15.7714 N   0  0  0  0  0  0  0  0  0  0  0  0
  -20.8437   10.6305  -15.3720 C   0  0  0  0  0  0  0  0  0  0  0  0
  -21.5749   10.0047  -16.1479 O   0  0  0  0  0  0  0  0  0  0  0  0
  -19.3183   12.0245  -14.9744 H   0  0  0  0  0  0  0  0  0  0  0  0
  -20.9978   10.3811  -13.9146 C   0  0  0  0  0  0  0  0  0  0  0  0
  -20.2842   11.0710  -13.0409 C   0  0  0  0  0  0  0  0  0  0  0  0
  -20.4319   10.8282  -11.5840 C   0  0  0  0  0  0  0  0  0  0  0  0
  -19.3735    9.9441  -11.0948 N   0  0  0  0  0  0  0  0  0  0  0  0
  -18.6238   10.5632  -10.0406 C   0  0  0  0  0  0  0  0  0  0  0  0
  -19.9850    8.6976  -10.6670 C   0  0  0  0  0  0  0  0  0  0  0  0
  -21.7260   14.9033  -17.3103 C   0  0  0  0  0  0  0  0  0  0  0  0
  -21.2025   13.6691  -16.8678 O   0  0  0  0  0  0  0  0  0  0  0  0
  -17.3579   13.2585  -22.9859 N   0  0  0  0  0  0  0  0  0  0  0  0
  -17.2439   12.4432  -23.6852 H   0  0  0  0  0  0  0  0  0  0  0  0
  -17.1313   14.5238  -23.5060 C   0  0  0  0  0  0  0  0  0  0  0  0
  -18.0816   15.4794  -23.6691 C   0  0  0  0  0  0  0  0  0  0  0  0
  -17.7989   16.7405  -24.1990 C   0  0  0  0  0  0  0  0  0  0  0  0
  -16.5287   17.0574  -24.5778 C   0  0  0  0  0  0  0  0  0  0  0  0
  -15.5476   16.1276  -24.4307 C   0  0  0  0  0  0  0  0  0  0  0  0
  -15.8437   14.8868  -23.9056 C   0  0  0  0  0  0  0  0  0  0  0  0
  -14.7585   13.8813  -23.7516 C   0  0  0  0  0  0  0  0  0  0  0  0
 24 25  1  0  0  0
 25  1  1  0  0  0
  1  2  2  0  0  0
  2  3  1  0  0  0
  3  4  1  0  0  0
  4  5  2  0  0  0
  5 26  1  0  0  0
 26 28  1  0  0  0
 28 29  2  0  0  0
 29 30  1  0  0  0
 30 31  2  0  0  0
 31 32  1  0  0  0
 32 33  2  0  0  0
 33 34  1  0  0  0
  5  6  1  0  0  0
  6  7  2  0  0  0
  7  8  1  0  0  0
  8  9  2  0  0  0
  9 10  1  0  0  0
 10 11  1  0  0  0
 11 12  1  0  0  0
 12 13  2  0  0  0
 13 14  1  0  0  0
 14 15  1  0  0  0
 15 16  2  0  0  0
 15 18  1  0  0  0
 18 19  2  0  0  0
 19 20  1  0  0  0
 20 21  1  0  0  0
 21 22  1  0  0  0
 21 23  1  0  0  0
 13  1  1  0  0  0
 11  3  2  0  0  0
 33 28  1  0  0  0
 10  6  1  0  0  0
 26 27  1  0  0  0
 14 17  1  0  0  0
M  END
> <minimizedAffinity>
-8.09213

> <CNNscore>
0.8704903722

> <CNNaffinity>
7.4036698341

> <CNN_VS>
6.4448232651

> <CNNaffinity_variance>
0.1431725323

$$$$
[H]/C(C(=O)N([H])c1c(OC([H])([H])[H])c([H])c2nc(N([H])c3c([H])c([H])c([H])c([H])c3C([H])([H])[H])c3c([H])nc([H])n3c2c1[H])=C(/[H])C([H])([H])N(C([H])([H])[H])C([H])([H])[H]


 34 37  0  0  0  0  0  0  0  0999 V2000
  -20.1648   12.9077  -17.9675 C   0  0  0  0  0  0  0  0  0  0  0  0
  -19.8498   13.4244  -19.2099 C   0  0  0  0  0  0  0  0  0  0  0  0
  -18.8371   12.8950  -19.9697 C   0  0  0  0  0  0  0  0  0  0  0  0
  -18.5002   13.3676  -21.1804 N   0  0  0  0  0  0  0  0  0  0  0  0
  -17.5185   12.8736  -21.9453 C   0  0  0  0  0  0  0  0  0  0  0  0
  -16.8371   11.7861  -21.3766 C   0  0  0  0  0  0  0  0  0  0  0  0
  -15.7970   11.0261  -21.8373 C   0  0  0  0  0  0  0  0  0  0  0  0
  -15.5152   10.1032  -20.9035 N   0  0  0  0  0  0  0  0  0  0  0  0
  -16.3455   10.2525  -19.8603 C   0  0  0  0  0  0  0  0  0  0  0  0
  -17.1520   11.2924  -20.1681 N   0  0  0  0  0  0  0  0  0  0  0  0
  -18.1550   11.8317  -19.4378 C   0  0  0  0  0  0  0  0  0  0  0  0
  -18.4615   11.3019  -18.1891 C   0  0  0  0  0  0  0  0  0  0  0  0
  -19.4759   11.8209  -17.4113 C   0  0  0  0  0  0  0  0  0  0  0  0
  -19.8575   11.3581  -16.1475 N   0  0  0  0  0  0  0  0  0  0  0  0
  -20.0327   10.0392  -15.7036 C   0  0  0  0  0  0  0  0  0  0  0  0
  -19.8653    9.0359  -16.4062 O   0  0  0  0  0  0  0  0  0  0  0  0
  -20.0424   12.1234  -15.4138 H   0  0  0  0  0  0  0  0  0  0  0  0
  -20.4482    9.8392  -14.2902 C   0  0  0  0  0  0  0  0  0  0  0  0
  -21.7289    9.7254  -13.9814 C   0  0  0  0  0  0  0  0  0  0  0  0
  -22.1523    9.5256  -12.5729 C   0  0  0  0  0  0  0  0  0  0  0  0
  -23.2308    8.5401  -12.4895 N   0  0  0  0  0  0  0  0  0  0  0  0
  -24.1365    8.6646  -13.5944 C   0  0  0  0  0  0  0  0  0  0  0  0
  -22.6330    7.2176  -12.4234 C   0  0  0  0  0  0  0  0  0  0  0  0
  -21.4304   14.8534  -17.3509 C   0  0  0  0  0  0  0  0  0  0  0  0
  -21.1935   13.4672  -17.2281 O   0  0  0  0  0  0  0  0  0  0  0  0
  -17.1262   13.3275  -23.2130 N   0  0  0  0  0  0  0  0  0  0  0  0
  -16.9659   12.5364  -23.9307 H   0  0  0  0  0  0  0  0  0  0  0  0
  -16.9136   14.6129  -23.6877 C   0  0  0  0  0  0  0  0  0  0  0  0
  -17.8843   15.5431  -23.8758 C   0  0  0  0  0  0  0  0  0  0  0  0
  -17.6150   16.8263  -24.3575 C   0  0  0  0  0  0  0  0  0  0  0  0
  -16.3377   17.1922  -24.6606 C   0  0  0  0  0  0  0  0  0  0  0  0
  -15.3363   16.2892  -24.4862 C   0  0  0  0  0  0  0  0  0  0  0  0
  -15.6193   15.0260  -24.0095 C   0  0  0  0  0  0  0  0  0  0  0  0
  -14.5119   14.0503  -23.8245 C   0  0  0  0  0  0  0  0  0  0  0  0
 24 25  1  0  0  0
 25  1  1  0  0  0
  1  2  2  0  0  0
  2  3  1  0  0  0
  3  4  1  0  0  0
  4  5  2  0  0  0
  5 26  1  0  0  0
 26 28  1  0  0  0
 28 29  2  0  0  0
 29 30  1  0  0  0
 30 31  2  0  0  0
 31 32  1  0  0  0
 32 33  2  0  0  0
 33 34  1  0  0  0
  5  6  1  0  0  0
  6  7  2  0  0  0
  7  8  1  0  0  0
  8  9  2  0  0  0
  9 10  1  0  0  0
 10 11  1  0  0  0
 11 12  1  0  0  0
 12 13  2  0  0  0
 13 14  1  0  0  0
 14 15  1  0  0  0
 15 16  2  0  0  0
 15 18  1  0  0  0
 18 19  2  0  0  0
 19 20  1  0  0  0
 20 21  1  0  0  0
 21 22  1  0  0  0
 21 23  1  0  0  0
 13  1  1  0  0  0
 11  3  2  0  0  0
 33 28  1  0  0  0
 10  6  1  0  0  0
 26 27  1  0  0  0
 14 17  1  0  0  0
M  END
> <minimizedAffinity>
-7.81585

> <CNNscore>
0.8679313660

> <CNNaffinity>
7.4225363731

> <CNN_VS>
6.4422521591

> <CNNaffinity_variance>
0.1076902896

$$$$
[H]/C(C(=O)N([H])c1c(OC([H])([H])[H])c([H])c2nc(N([H])c3c([H])c([H])c([H])c([H])c3C([H])([H])[H])c3c([H])nc([H])n3c2c1[H])=C(/[H])C([H])([H])N(C([H])([H])[H])C([H])([H])[H]


 34 37  0  0  0  0  0  0  0  0999 V2000
  -18.3811   11.0824  -17.7773 C   0  0  0  0  0  0  0  0  0  0  0  0
  -17.7625   10.9034  -19.0001 C   0  0  0  0  0  0  0  0  0  0  0  0
  -17.8280   11.8593  -19.9825 C   0  0  0  0  0  0  0  0  0  0  0  0
  -17.2413   11.7237  -21.1825 N   0  0  0  0  0  0  0  0  0  0  0  0
  -17.2868   12.6370  -22.1606 C   0  0  0  0  0  0  0  0  0  0  0  0
  -18.0168   13.7915  -21.8370 C   0  0  0  0  0  0  0  0  0  0  0  0
  -18.2870   14.9245  -22.5546 C   0  0  0  0  0  0  0  0  0  0  0  0
  -19.0326   15.7328  -21.7841 N   0  0  0  0  0  0  0  0  0  0  0  0
  -19.2459   15.1481  -20.5954 C   0  0  0  0  0  0  0  0  0  0  0  0
  -18.6139   13.9545  -20.6453 N   0  0  0  0  0  0  0  0  0  0  0  0
  -18.5350   12.9973  -19.6927 C   0  0  0  0  0  0  0  0  0  0  0  0
  -19.1622   13.1904  -18.4666 C   0  0  0  0  0  0  0  0  0  0  0  0
  -19.1072   12.2408  -17.4674 C   0  0  0  0  0  0  0  0  0  0  0  0
  -19.7033   12.3436  -16.2061 N   0  0  0  0  0  0  0  0  0  0  0  0
  -20.8704   11.7312  -15.7261 C   0  0  0  0  0  0  0  0  0  0  0  0
  -21.5827   10.9671  -16.3871 O   0  0  0  0  0  0  0  0  0  0  0  0
  -19.1933   12.9832  -15.5068 H   0  0  0  0  0  0  0  0  0  0  0  0
  -21.2742   12.0243  -14.3257 C   0  0  0  0  0  0  0  0  0  0  0  0
  -20.8713   11.2427  -13.3381 C   0  0  0  0  0  0  0  0  0  0  0  0
  -21.2699   11.5281  -11.9371 C   0  0  0  0  0  0  0  0  0  0  0  0
  -20.3033   10.9609  -10.9962 N   0  0  0  0  0  0  0  0  0  0  0  0
  -20.9403   10.0737  -10.0668 C   0  0  0  0  0  0  0  0  0  0  0  0
  -19.2645   10.2923  -11.7607 C   0  0  0  0  0  0  0  0  0  0  0  0
  -18.8856    8.8422  -17.0741 C   0  0  0  0  0  0  0  0  0  0  0  0
  -18.2940   10.0962  -16.8090 O   0  0  0  0  0  0  0  0  0  0  0  0
  -16.6939   12.5466  -23.4283 N   0  0  0  0  0  0  0  0  0  0  0  0
  -16.8528   11.5976  -23.9191 H   0  0  0  0  0  0  0  0  0  0  0  0
  -15.9453   13.4681  -24.1446 C   0  0  0  0  0  0  0  0  0  0  0  0
  -14.7884   14.0332  -23.7142 C   0  0  0  0  0  0  0  0  0  0  0  0
  -14.0721   14.9582  -24.4773 C   0  0  0  0  0  0  0  0  0  0  0  0
  -14.5244   15.3305  -25.7079 C   0  0  0  0  0  0  0  0  0  0  0  0
  -15.6798   14.7873  -26.1756 C   0  0  0  0  0  0  0  0  0  0  0  0
  -16.3750   13.8751  -25.4091 C   0  0  0  0  0  0  0  0  0  0  0  0
  -17.6373   13.2904  -25.9359 C   0  0  0  0  0  0  0  0  0  0  0  0
 24 25  1  0  0  0
 25  1  1  0  0  0
  1  2  2  0  0  0
  2  3  1  0  0  0
  3  4  1  0  0  0
  4  5  2  0  0  0
  5 26  1  0  0  0
 26 28  1  0  0  0
 28 29  2  0  0  0
 29 30  1  0  0  0
 30 31  2  0  0  0
 31 32  1  0  0  0
 32 33  2  0  0  0
 33 34  1  0  0  0
  5  6  1  0  0  0
  6  7  2  0  0  0
  7  8  1  0  0  0
  8  9  2  0  0  0
  9 10  1  0  0  0
 10 11  1  0  0  0
 11 12  1  0  0  0
 12 13  2  0  0  0
 13 14  1  0  0  0
 14 15  1  0  0  0
 15 16  2  0  0  0
 15 18  1  0  0  0
 18 19  2  0  0  0
 19 20  1  0  0  0
 20 21  1  0  0  0
 21 22  1  0  0  0
 21 23  1  0  0  0
 13  1  1  0  0  0
 11  3  2  0  0  0
 33 28  1  0  0  0
 10  6  1  0  0  0
 26 27  1  0  0  0
 14 17  1  0  0  0
M  END
> <minimizedAffinity>
-8.21171

> <CNNscore>
0.7704513669

> <CNNaffinity>
7.3240027428

> <CNN_VS>
5.6427879333

> <CNNaffinity_variance>
0.0442338213

$$$$
[H]/C(C(=O)N([H])c1c(OC([H])([H])[H])c([H])c2nc(N([H])c3c([H])c([H])c([H])c([H])c3C([H])([H])[H])c3c([H])nc([H])n3c2c1[H])=C(/[H])C([H])([H])N(C([H])([H])[H])C([H])([H])[H]


 34 37  0  0  0  0  0  0  0  0999 V2000
  -20.7739   12.8864  -16.4404 C   0  0  0  0  0  0  0  0  0  0  0  0
  -20.2020   13.6072  -17.4715 C   0  0  0  0  0  0  0  0  0  0  0  0
  -19.2551   13.0514  -18.2946 C   0  0  0  0  0  0  0  0  0  0  0  0
  -18.6761   13.7175  -19.3064 N   0  0  0  0  0  0  0  0  0  0  0  0
  -17.7504   13.2037  -20.1261 C   0  0  0  0  0  0  0  0  0  0  0  0
  -17.4110   11.8704  -19.8480 C   0  0  0  0  0  0  0  0  0  0  0  0
  -16.5266   11.0156  -20.4471 C   0  0  0  0  0  0  0  0  0  0  0  0
  -16.5788    9.8436  -19.7940 N   0  0  0  0  0  0  0  0  0  0  0  0
  -17.4711    9.9259  -18.7953 C   0  0  0  0  0  0  0  0  0  0  0  0
  -17.9735   11.1796  -18.8431 N   0  0  0  0  0  0  0  0  0  0  0  0
  -18.9051   11.7499  -18.0450 C   0  0  0  0  0  0  0  0  0  0  0  0
  -19.4726   11.0130  -17.0111 C   0  0  0  0  0  0  0  0  0  0  0  0
  -20.4257   11.5550  -16.1738 C   0  0  0  0  0  0  0  0  0  0  0  0
  -21.0520   10.8959  -15.1106 N   0  0  0  0  0  0  0  0  0  0  0  0
  -22.1780   10.0597  -15.1277 C   0  0  0  0  0  0  0  0  0  0  0  0
  -22.8173    9.7670  -16.1445 O   0  0  0  0  0  0  0  0  0  0  0  0
  -20.6056   11.0539  -14.1442 H   0  0  0  0  0  0  0  0  0  0  0  0
  -22.6297    9.4887  -13.8315 C   0  0  0  0  0  0  0  0  0  0  0  0
  -21.7497    8.9906  -12.9794 C   0  0  0  0  0  0  0  0  0  0  0  0
  -22.1921    8.4186  -11.6833 C   0  0  0  0  0  0  0  0  0  0  0  0
  -21.6389    9.1807  -10.5633 N   0  0  0  0  0  0  0  0  0  0  0  0
  -22.5827    9.2864   -9.4887 C   0  0  0  0  0  0  0  0  0  0  0  0
  -20.4059    8.5380  -10.1421 C   0  0  0  0  0  0  0  0  0  0  0  0
  -21.8613   14.8844  -15.6700 C   0  0  0  0  0  0  0  0  0  0  0  0
  -21.7269   13.4797  -15.6293 O   0  0  0  0  0  0  0  0  0  0  0  0
  -17.1154   13.8529  -21.1949 N   0  0  0  0  0  0  0  0  0  0  0  0
  -16.2694   14.4564  -20.8999 H   0  0  0  0  0  0  0  0  0  0  0  0
  -17.3953   13.8452  -22.5529 C   0  0  0  0  0  0  0  0  0  0  0  0
  -17.0290   12.8642  -23.4169 C   0  0  0  0  0  0  0  0  0  0  0  0
  -17.3373   12.9057  -24.7787 C   0  0  0  0  0  0  0  0  0  0  0  0
  -18.0325   13.9587  -25.2937 C   0  0  0  0  0  0  0  0  0  0  0  0
  -18.4179   14.9623  -24.4612 C   0  0  0  0  0  0  0  0  0  0  0  0
  -18.1053   14.9057  -23.1188 C   0  0  0  0  0  0  0  0  0  0  0  0
  -18.5346   16.0121  -22.2219 C   0  0  0  0  0  0  0  0  0  0  0  0
 24 25  1  0  0  0
 25  1  1  0  0  0
  1  2  2  0  0  0
  2  3  1  0  0  0
  3  4  1  0  0  0
  4  5  2  0  0  0
  5 26  1  0  0  0
 26 28  1  0  0  0
 28 29  2  0  0  0
 29 30  1  0  0  0
 30 31  2  0  0  0
 31 32  1  0  0  0
 32 33  2  0  0  0
 33 34  1  0  0  0
  5  6  1  0  0  0
  6  7  2  0  0  0
  7  8  1  0  0  0
  8  9  2  0  0  0
  9 10  1  0  0  0
 10 11  1  0  0  0
 11 12  1  0  0  0
 12 13  2  0  0  0
 13 14  1  0  0  0
 14 15  1  0  0  0
 15 16  2  0  0  0
 15 18  1  0  0  0
 18 19  2  0  0  0
 19 20  1  0  0  0
 20 21  1  0  0  0
 21 22  1  0  0  0
 21 23  1  0  0  0
 13  1  1  0  0  0
 11  3  2  0  0  0
 33 28  1  0  0  0
 10  6  1  0  0  0
 26 27  1  0  0  0
 14 17  1  0  0  0
M  END
> <minimizedAffinity>
-7.19768

> <CNNscore>
0.5959102511

> <CNNaffinity>
7.0277175903

> <CNN_VS>
4.1878890991

> <CNNaffinity_variance>
0.3455480635

$$$$
[H]c1nc2sc(-c3c([H])c(C([H])([H])N(C([H])([H])[H])C([H])([H])[H])c([H])c([H])c3OC([H])([H])[H])c([H])c2c(N([H])c2c([H])c([H])c3c(c([H])c([H])n3[H])c2C([H])([H])[H])c1C#N


 36 40  0  0  0  0  0  0  0  0999 V2000
  -18.4530   11.3930  -18.5580 C   0  0  0  0  0  0  0  0  0  0  0  0
  -18.3654   12.2218  -19.6331 C   0  0  0  0  0  0  0  0  0  0  0  0
  -17.4174   11.9580  -20.5568 C   0  0  0  0  0  0  0  0  0  0  0  0
  -17.1061   12.6440  -21.7577 C   0  0  0  0  0  0  0  0  0  0  0  0
  -16.1011   12.2365  -22.5889 C   0  0  0  0  0  0  0  0  0  0  0  0
  -15.3244   11.1194  -22.3000 C   0  0  0  0  0  0  0  0  0  0  0  0
  -15.6183   10.4675  -21.1614 N   0  0  0  0  0  0  0  0  0  0  0  0
  -16.6213   10.8691  -20.3257 C   0  0  0  0  0  0  0  0  0  0  0  0
  -17.2202   10.2590  -18.8414 S   0  0  0  0  0  0  0  0  0  0  0  0
  -19.8540   12.6905  -17.0368 C   0  0  0  0  0  0  0  0  0  0  0  0
  -20.7257   12.7195  -15.9681 C   0  0  0  0  0  0  0  0  0  0  0  0
  -21.1248   11.5824  -15.2968 C   0  0  0  0  0  0  0  0  0  0  0  0
  -20.6537   10.3413  -15.6800 C   0  0  0  0  0  0  0  0  0  0  0  0
  -19.7814   10.3148  -16.7497 C   0  0  0  0  0  0  0  0  0  0  0  0
  -19.3842   11.4481  -17.4186 C   0  0  0  0  0  0  0  0  0  0  0  0
  -18.6659   14.7844  -16.9839 C   0  0  0  0  0  0  0  0  0  0  0  0
  -19.4641   13.8594  -17.7017 O   0  0  0  0  0  0  0  0  0  0  0  0
  -21.0546    9.0893  -14.9908 C   0  0  0  0  0  0  0  0  0  0  0  0
  -19.9085    8.2898  -14.6133 N   0  0  0  0  0  0  0  0  0  0  0  0
  -20.2015    6.8895  -14.5405 C   0  0  0  0  0  0  0  0  0  0  0  0
  -19.2222    8.8014  -13.4686 C   0  0  0  0  0  0  0  0  0  0  0  0
  -17.8484   13.7977  -22.1366 N   0  0  0  0  0  0  0  0  0  0  0  0
  -18.5471   13.7310  -22.9023 H   0  0  0  0  0  0  0  0  0  0  0  0
  -17.6742   15.0559  -21.5063 C   0  0  0  0  0  0  0  0  0  0  0  0
  -16.4455   15.6610  -21.5286 C   0  0  0  0  0  0  0  0  0  0  0  0
  -16.2813   16.8779  -20.9214 C   0  0  0  0  0  0  0  0  0  0  0  0
  -17.3111   17.5299  -20.2804 C   0  0  0  0  0  0  0  0  0  0  0  0
  -17.4130   18.7067  -19.6197 N   0  0  0  0  0  0  0  0  0  0  0  0
  -18.6663   18.8851  -19.1696 C   0  0  0  0  0  0  0  0  0  0  0  0
  -19.3692   17.7621  -19.5738 C   0  0  0  0  0  0  0  0  0  0  0  0
  -18.5437   16.9073  -20.2661 C   0  0  0  0  0  0  0  0  0  0  0  0
  -18.7228   15.6777  -20.8758 C   0  0  0  0  0  0  0  0  0  0  0  0
  -20.0867   15.0656  -20.8186 C   0  0  0  0  0  0  0  0  0  0  0  0
  -16.6117   19.3761  -19.4869 H   0  0  0  0  0  0  0  0  0  0  0  0
  -15.8503   13.0007  -23.8016 C   0  0  0  0  0  0  0  0  0  0  0  0
  -15.6660   13.6224  -24.7617 N   0  0  0  0  0  0  0  0  0  0  0  0
 16 17  1  0  0  0
 17 10  1  0  0  0
 10 11  2  0  0  0
 11 12  1  0  0  0
 12 13  2  0  0  0
 13 18  1  0  0  0
 18 19  1  0  0  0
 19 20  1  0  0  0
 19 21  1  0  0  0
 13 14  1  0  0  0
 14 15  2  0  0  0
 15  1  1  0  0  0
  1  2  2  0  0  0
  2  3  1  0  0  0
  3  4  2  0  0  0
  4 22  1  0  0  0
 22 24  1  0  0  0
 24 25  2  0  0  0
 25 26  1  0  0  0
 26 27  2  0  0  0
 27 28  1  0  0  0
 28 29  1  0  0  0
 29 30  2  0  0  0
 30 31  1  0  0  0
 31 32  2  0  0  0
 32 33  1  0  0  0
  4  5  1  0  0  0
  5  6  2  0  0  0
  6  7  1  0  0  0
  7  8  2  0  0  0
  8  9  1  0  0  0
  5 35  1  0  0  0
 35 36  3  0  0  0
 15 10  1  0  0  0
  9  1  1  0  0  0
  8  3  1  0  0  0
 32 24  1  0  0  0
 31 27  1  0  0  0
 22 23  1  0  0  0
 28 34  1  0  0  0
M  END
> <minimizedAffinity>
-8.85510

> <CNNscore>
0.9289605618

> <CNNaffinity>
8.0022678375

> <CNN_VS>
7.4337911606

> <CNNaffinity_variance>
0.0740067437

$$$$
[H]c1nc2sc(-c3c([H])c(C([H])([H])N(C([H])([H])[H])C([H])([H])[H])c([H])c([H])c3OC([H])([H])[H])c([H])c2c(N([H])c2c([H])c([H])c3c(c([H])c([H])n3[H])c2C([H])([H])[H])c1C#N


 36 40  0  0  0  0  0  0  0  0999 V2000
  -18.6836   11.5345  -18.3863 C   0  0  0  0  0  0  0  0  0  0  0  0
  -18.5167   12.3049  -19.4949 C   0  0  0  0  0  0  0  0  0  0  0  0
  -17.5339   11.9663  -20.3557 C   0  0  0  0  0  0  0  0  0  0  0  0
  -17.1422   12.5810  -21.5716 C   0  0  0  0  0  0  0  0  0  0  0  0
  -16.1118   12.1018  -22.3302 C   0  0  0  0  0  0  0  0  0  0  0  0
  -15.3869   10.9777  -21.9483 C   0  0  0  0  0  0  0  0  0  0  0  0
  -15.7572   10.3934  -20.7954 N   0  0  0  0  0  0  0  0  0  0  0  0
  -16.7860   10.8668  -20.0319 C   0  0  0  0  0  0  0  0  0  0  0  0
  -17.4761   10.3509  -18.5514 S   0  0  0  0  0  0  0  0  0  0  0  0
  -20.0115   10.5354  -16.5978 C   0  0  0  0  0  0  0  0  0  0  0  0
  -20.9333   10.6895  -15.5832 C   0  0  0  0  0  0  0  0  0  0  0  0
  -21.4981   11.9069  -15.2639 C   0  0  0  0  0  0  0  0  0  0  0  0
  -21.1524   13.0452  -15.9666 C   0  0  0  0  0  0  0  0  0  0  0  0
  -20.2297   12.8885  -16.9814 C   0  0  0  0  0  0  0  0  0  0  0  0
  -19.6669   11.6753  -17.2992 C   0  0  0  0  0  0  0  0  0  0  0  0
  -19.0884    8.4526  -15.8177 C   0  0  0  0  0  0  0  0  0  0  0  0
  -19.4527    9.2883  -16.9025 O   0  0  0  0  0  0  0  0  0  0  0  0
  -21.7308   14.3774  -15.6599 C   0  0  0  0  0  0  0  0  0  0  0  0
  -21.3432   15.3724  -16.6371 N   0  0  0  0  0  0  0  0  0  0  0  0
  -20.5740   16.4414  -16.0735 C   0  0  0  0  0  0  0  0  0  0  0  0
  -22.4318   15.8067  -17.4553 C   0  0  0  0  0  0  0  0  0  0  0  0
  -17.8270   13.7360  -22.0434 N   0  0  0  0  0  0  0  0  0  0  0  0
  -18.4760   13.6551  -22.8504 H   0  0  0  0  0  0  0  0  0  0  0  0
  -17.6605   15.0142  -21.4525 C   0  0  0  0  0  0  0  0  0  0  0  0
  -16.4369   15.6281  -21.4986 C   0  0  0  0  0  0  0  0  0  0  0  0
  -16.2800   16.8643  -20.9295 C   0  0  0  0  0  0  0  0  0  0  0  0
  -17.3124   17.5272  -20.3041 C   0  0  0  0  0  0  0  0  0  0  0  0
  -17.4212   18.7228  -19.6792 N   0  0  0  0  0  0  0  0  0  0  0  0
  -18.6740   18.9048  -19.2292 C   0  0  0  0  0  0  0  0  0  0  0  0
  -19.3695   17.7644  -19.5960 C   0  0  0  0  0  0  0  0  0  0  0  0
  -18.5399   16.8955  -20.2654 C   0  0  0  0  0  0  0  0  0  0  0  0
  -18.7115   15.6465  -20.8367 C   0  0  0  0  0  0  0  0  0  0  0  0
  -20.0701   15.0255  -20.7549 C   0  0  0  0  0  0  0  0  0  0  0  0
  -16.6249   19.4024  -19.5703 H   0  0  0  0  0  0  0  0  0  0  0  0
  -15.7773   12.7958  -23.5648 C   0  0  0  0  0  0  0  0  0  0  0  0
  -15.5051   13.3300  -24.5561 N   0  0  0  0  0  0  0  0  0  0  0  0
 16 17  1  0  0  0
 17 10  1  0  0  0
 10 11  2  0  0  0
 11 12  1  0  0  0
 12 13  2  0  0  0
 13 18  1  0  0  0
 18 19  1  0  0  0
 19 20  1  0  0  0
 19 21  1  0  0  0
 13 14  1  0  0  0
 14 15  2  0  0  0
 15  1  1  0  0  0
  1  2  2  0  0  0
  2  3  1  0  0  0
  3  4  2  0  0  0
  4 22  1  0  0  0
 22 24  1  0  0  0
 24 25  2  0  0  0
 25 26  1  0  0  0
 26 27  2  0  0  0
 27 28  1  0  0  0
 28 29  1  0  0  0
 29 30  2  0  0  0
 30 31  1  0  0  0
 31 32  2  0  0  0
 32 33  1  0  0  0
  4  5  1  0  0  0
  5  6  2  0  0  0
  6  7  1  0  0  0
  7  8  2  0  0  0
  8  9  1  0  0  0
  5 35  1  0  0  0
 35 36  3  0  0  0
 15 10  1  0  0  0
  9  1  1  0  0  0
  8  3  1  0  0  0
 32 24  1  0  0  0
 31 27  1  0  0  0
 22 23  1  0  0  0
 28 34  1  0  0  0
M  END
> <minimizedAffinity>
-8.80081

> <CNNscore>
0.8609562516

> <CNNaffinity>
7.9045591354

> <CNN_VS>
6.8054795265

> <CNNaffinity_variance>
0.0728842318

$$$$
[H]c1nc2sc(-c3c([H])c(C([H])([H])N(C([H])([H])[H])C([H])([H])[H])c([H])c([H])c3OC([H])([H])[H])c([H])c2c(N([H])c2c([H])c([H])c3c(c([H])c([H])n3[H])c2C([H])([H])[H])c1C#N


 36 40  0  0  0  0  0  0  0  0999 V2000
  -17.8745   11.4294  -19.1566 C   0  0  0  0  0  0  0  0  0  0  0  0
  -18.0498   12.2597  -20.2197 C   0  0  0  0  0  0  0  0  0  0  0  0
  -17.1504   12.1964  -21.2240 C   0  0  0  0  0  0  0  0  0  0  0  0
  -17.0891   12.9329  -22.4338 C   0  0  0  0  0  0  0  0  0  0  0  0
  -16.0970   12.7404  -23.3534 C   0  0  0  0  0  0  0  0  0  0  0  0
  -15.0872   11.8054  -23.1511 C   0  0  0  0  0  0  0  0  0  0  0  0
  -15.1438   11.1060  -22.0042 N   0  0  0  0  0  0  0  0  0  0  0  0
  -16.1324   11.2930  -21.0804 C   0  0  0  0  0  0  0  0  0  0  0  0
  -16.4654   10.5717  -19.5628 S   0  0  0  0  0  0  0  0  0  0  0  0
  -19.0881   12.4515  -17.3011 C   0  0  0  0  0  0  0  0  0  0  0  0
  -19.8582   12.3000  -16.1667 C   0  0  0  0  0  0  0  0  0  0  0  0
  -20.2327   11.0665  -15.6757 C   0  0  0  0  0  0  0  0  0  0  0  0
  -19.8400    9.9082  -16.3185 C   0  0  0  0  0  0  0  0  0  0  0  0
  -19.0694   10.0623  -17.4535 C   0  0  0  0  0  0  0  0  0  0  0  0
  -18.6966   11.2917  -17.9427 C   0  0  0  0  0  0  0  0  0  0  0  0
  -18.7775   14.8001  -16.8693 C   0  0  0  0  0  0  0  0  0  0  0  0
  -18.7210   13.7152  -17.7792 O   0  0  0  0  0  0  0  0  0  0  0  0
  -20.2186    8.5585  -15.8305 C   0  0  0  0  0  0  0  0  0  0  0  0
  -21.1933    8.6241  -14.7623 N   0  0  0  0  0  0  0  0  0  0  0  0
  -20.7102    8.0791  -13.5288 C   0  0  0  0  0  0  0  0  0  0  0  0
  -22.4807    8.1383  -15.1491 C   0  0  0  0  0  0  0  0  0  0  0  0
  -18.0804   13.9108  -22.7280 N   0  0  0  0  0  0  0  0  0  0  0  0
  -18.5640   13.8924  -23.6471 H   0  0  0  0  0  0  0  0  0  0  0  0
  -18.4438   14.9270  -21.8083 C   0  0  0  0  0  0  0  0  0  0  0  0
  -19.6131   14.8167  -21.1033 C   0  0  0  0  0  0  0  0  0  0  0  0
  -19.9598   15.7986  -20.2132 C   0  0  0  0  0  0  0  0  0  0  0  0
  -19.1741   16.9077  -19.9920 C   0  0  0  0  0  0  0  0  0  0  0  0
  -19.2827   17.9931  -19.1908 N   0  0  0  0  0  0  0  0  0  0  0  0
  -18.2235   18.8036  -19.3526 C   0  0  0  0  0  0  0  0  0  0  0  0
  -17.4244   18.1854  -20.3002 C   0  0  0  0  0  0  0  0  0  0  0  0
  -17.9986   17.0050  -20.7102 C   0  0  0  0  0  0  0  0  0  0  0  0
  -17.6368   16.0197  -21.6126 C   0  0  0  0  0  0  0  0  0  0  0  0
  -16.3490   16.1948  -22.3536 C   0  0  0  0  0  0  0  0  0  0  0  0
  -20.0913   18.1621  -18.5385 H   0  0  0  0  0  0  0  0  0  0  0  0
  -16.1116   13.5410  -24.5684 C   0  0  0  0  0  0  0  0  0  0  0  0
  -16.1413   14.1692  -25.5414 N   0  0  0  0  0  0  0  0  0  0  0  0
 16 17  1  0  0  0
 17 10  1  0  0  0
 10 11  2  0  0  0
 11 12  1  0  0  0
 12 13  2  0  0  0
 13 18  1  0  0  0
 18 19  1  0  0  0
 19 20  1  0  0  0
 19 21  1  0  0  0
 13 14  1  0  0  0
 14 15  2  0  0  0
 15  1  1  0  0  0
  1  2  2  0  0  0
  2  3  1  0  0  0
  3  4  2  0  0  0
  4 22  1  0  0  0
 22 24  1  0  0  0
 24 25  2  0  0  0
 25 26  1  0  0  0
 26 27  2  0  0  0
 27 28  1  0  0  0
 28 29  1  0  0  0
 29 30  2  0  0  0
 30 31  1  0  0  0
 31 32  2  0  0  0
 32 33  1  0  0  0
  4  5  1  0  0  0
  5  6  2  0  0  0
  6  7  1  0  0  0
  7  8  2  0  0  0
  8  9  1  0  0  0
  5 35  1  0  0  0
 35 36  3  0  0  0
 15 10  1  0  0  0
  9  1  1  0  0  0
  8  3  1  0  0  0
 32 24  1  0  0  0
 31 27  1  0  0  0
 22 23  1  0  0  0
 28 34  1  0  0  0
M  END
> <minimizedAffinity>
-7.94414

> <CNNscore>
0.8185546994

> <CNNaffinity>
7.9341492653

> <CNN_VS>
6.4945349693

> <CNNaffinity_variance>
0.1107771173

$$$$
[H]c1nc2sc(-c3c([H])c(C([H])([H])N(C([H])([H])[H])C([H])([H])[H])c([H])c([H])c3OC([H])([H])[H])c([H])c2c(N([H])c2c([H])c([H])c3c(c([H])c([H])n3[H])c2C([H])([H])[H])c1C#N


 36 40  0  0  0  0  0  0  0  0999 V2000
  -19.1441   16.0464  -21.5842 C   0  0  0  0  0  0  0  0  0  0  0  0
  -18.5288   14.9367  -22.0743 C   0  0  0  0  0  0  0  0  0  0  0  0
  -18.1540   13.9836  -21.1953 C   0  0  0  0  0  0  0  0  0  0  0  0
  -17.5050   12.7442  -21.4240 C   0  0  0  0  0  0  0  0  0  0  0  0
  -17.1948   11.8866  -20.4065 C   0  0  0  0  0  0  0  0  0  0  0  0
  -17.5010   12.1852  -19.0829 C   0  0  0  0  0  0  0  0  0  0  0  0
  -18.1165   13.3603  -18.8642 N   0  0  0  0  0  0  0  0  0  0  0  0
  -18.4296   14.2225  -19.8762 C   0  0  0  0  0  0  0  0  0  0  0  0
  -19.1951   15.7545  -19.9114 S   0  0  0  0  0  0  0  0  0  0  0  0
  -18.7248   18.1422  -22.7642 C   0  0  0  0  0  0  0  0  0  0  0  0
  -19.2210   19.2355  -23.4433 C   0  0  0  0  0  0  0  0  0  0  0  0
  -20.5679   19.4261  -23.6725 C   0  0  0  0  0  0  0  0  0  0  0  0
  -21.4927   18.5053  -23.2185 C   0  0  0  0  0  0  0  0  0  0  0  0
  -20.9937   17.4119  -22.5391 C   0  0  0  0  0  0  0  0  0  0  0  0
  -19.6514   17.2223  -22.3111 C   0  0  0  0  0  0  0  0  0  0  0  0
  -16.5713   17.4962  -23.6266 C   0  0  0  0  0  0  0  0  0  0  0  0
  -17.3525   17.9719  -22.5443 O   0  0  0  0  0  0  0  0  0  0  0  0
  -22.9515   18.6647  -23.4414 C   0  0  0  0  0  0  0  0  0  0  0  0
  -23.2819   18.7001  -24.8502 N   0  0  0  0  0  0  0  0  0  0  0  0
  -24.3671   19.5861  -25.1492 C   0  0  0  0  0  0  0  0  0  0  0  0
  -23.4169   17.3988  -25.4260 C   0  0  0  0  0  0  0  0  0  0  0  0
  -17.1540   12.3527  -22.7465 N   0  0  0  0  0  0  0  0  0  0  0  0
  -17.4577   11.4270  -23.1065 H   0  0  0  0  0  0  0  0  0  0  0  0
  -16.3949   13.1829  -23.6099 C   0  0  0  0  0  0  0  0  0  0  0  0
  -15.1770   13.6554  -23.1981 C   0  0  0  0  0  0  0  0  0  0  0  0
  -14.4447   14.4546  -24.0357 C   0  0  0  0  0  0  0  0  0  0  0  0
  -14.8844   14.8093  -25.2916 C   0  0  0  0  0  0  0  0  0  0  0  0
  -14.3703   15.5649  -26.2900 N   0  0  0  0  0  0  0  0  0  0  0  0
  -15.2138   15.5983  -27.3351 C   0  0  0  0  0  0  0  0  0  0  0  0
  -16.3001   14.8249  -26.9604 C   0  0  0  0  0  0  0  0  0  0  0  0
  -16.1142   14.3254  -25.6926 C   0  0  0  0  0  0  0  0  0  0  0  0
  -16.8638   13.5171  -24.8558 C   0  0  0  0  0  0  0  0  0  0  0  0
  -18.1861   13.0315  -25.3597 C   0  0  0  0  0  0  0  0  0  0  0  0
  -13.4382   16.0509  -26.2373 H   0  0  0  0  0  0  0  0  0  0  0  0
  -16.5280   10.6349  -20.7323 C   0  0  0  0  0  0  0  0  0  0  0  0
  -15.9915    9.6364  -20.9716 N   0  0  0  0  0  0  0  0  0  0  0  0
 16 17  1  0  0  0
 17 10  1  0  0  0
 10 11  2  0  0  0
 11 12  1  0  0  0
 12 13  2  0  0  0
 13 18  1  0  0  0
 18 19  1  0  0  0
 19 20  1  0  0  0
 19 21  1  0  0  0
 13 14  1  0  0  0
 14 15  2  0  0  0
 15  1  1  0  0  0
  1  2  2  0  0  0
  2  3  1  0  0  0
  3  4  2  0  0  0
  4 22  1  0  0  0
 22 24  1  0  0  0
 24 25  2  0  0  0
 25 26  1  0  0  0
 26 27  2  0  0  0
 27 28  1  0  0  0
 28 29  1  0  0  0
 29 30  2  0  0  0
 30 31  1  0  0  0
 31 32  2  0  0  0
 32 33  1  0  0  0
  4  5  1  0  0  0
  5  6  2  0  0  0
  6  7  1  0  0  0
  7  8  2  0  0  0
  8  9  1  0  0  0
  5 35  1  0  0  0
 35 36  3  0  0  0
 15 10  1  0  0  0
  9  1  1  0  0  0
  8  3  1  0  0  0
 32 24  1  0  0  0
 31 27  1  0  0  0
 22 23  1  0  0  0
 28 34  1  0  0  0
M  END
> <minimizedAffinity>
-9.72015

> <CNNscore>
0.7326645255

> <CNNaffinity>
7.8792595863

> <CNN_VS>
5.7728538513

> <CNNaffinity_variance>
0.1244904026

$$$$
[H]c1nc2sc(-c3c([H])c(C([H])([H])N(C([H])([H])[H])C([H])([H])[H])c([H])c([H])c3OC([H])([H])[H])c([H])c2c(N([H])c2c([H])c([H])c3c(c([H])c([H])n3[H])c2C([H])([H])[H])c1C#N


 36 40  0  0  0  0  0  0  0  0999 V2000
  -17.6020   13.4319  -21.6190 C   0  0  0  0  0  0  0  0  0  0  0  0
  -18.4290   13.4224  -20.5390 C   0  0  0  0  0  0  0  0  0  0  0  0
  -18.3798   12.3532  -19.7168 C   0  0  0  0  0  0  0  0  0  0  0  0
  -19.1167   12.0827  -18.5364 C   0  0  0  0  0  0  0  0  0  0  0  0
  -18.9397   10.9359  -17.8149 C   0  0  0  0  0  0  0  0  0  0  0  0
  -18.0212    9.9657  -18.2020 C   0  0  0  0  0  0  0  0  0  0  0  0
  -17.3214   10.2207  -19.3214 N   0  0  0  0  0  0  0  0  0  0  0  0
  -17.4929   11.3647  -20.0476 C   0  0  0  0  0  0  0  0  0  0  0  0
  -16.7669   11.9589  -21.4808 S   0  0  0  0  0  0  0  0  0  0  0  0
  -17.6116   15.7805  -22.2857 C   0  0  0  0  0  0  0  0  0  0  0  0
  -17.4655   16.7277  -23.2778 C   0  0  0  0  0  0  0  0  0  0  0  0
  -17.1749   16.4021  -24.5864 C   0  0  0  0  0  0  0  0  0  0  0  0
  -17.0155   15.0816  -24.9607 C   0  0  0  0  0  0  0  0  0  0  0  0
  -17.1621   14.1355  -23.9661 C   0  0  0  0  0  0  0  0  0  0  0  0
  -17.4515   14.4604  -22.6621 C   0  0  0  0  0  0  0  0  0  0  0  0
  -16.9232   16.8628  -20.2476 C   0  0  0  0  0  0  0  0  0  0  0  0
  -17.9069   16.1370  -20.9643 O   0  0  0  0  0  0  0  0  0  0  0  0
  -16.7009   14.6809  -26.3548 C   0  0  0  0  0  0  0  0  0  0  0  0
  -15.7593   15.5868  -26.9777 N   0  0  0  0  0  0  0  0  0  0  0  0
  -15.7935   15.5337  -28.4088 C   0  0  0  0  0  0  0  0  0  0  0  0
  -14.4452   15.4963  -26.4228 C   0  0  0  0  0  0  0  0  0  0  0  0
  -20.0784   13.0185  -18.0621 N   0  0  0  0  0  0  0  0  0  0  0  0
  -21.0515   12.7064  -17.8765 H   0  0  0  0  0  0  0  0  0  0  0  0
  -19.7635   14.3812  -17.8280 C   0  0  0  0  0  0  0  0  0  0  0  0
  -18.7843   14.7055  -16.9267 C   0  0  0  0  0  0  0  0  0  0  0  0
  -18.4803   16.0227  -16.7051 C   0  0  0  0  0  0  0  0  0  0  0  0
  -19.1243   17.0505  -17.3574 C   0  0  0  0  0  0  0  0  0  0  0  0
  -19.0184   18.3993  -17.3231 N   0  0  0  0  0  0  0  0  0  0  0  0
  -19.8960   18.9606  -18.1716 C   0  0  0  0  0  0  0  0  0  0  0  0
  -20.5748   17.9041  -18.7562 C   0  0  0  0  0  0  0  0  0  0  0  0
  -20.1092   16.7078  -18.2628 C   0  0  0  0  0  0  0  0  0  0  0  0
  -20.4258   15.3807  -18.4958 C   0  0  0  0  0  0  0  0  0  0  0  0
  -21.5040   15.0877  -19.4908 C   0  0  0  0  0  0  0  0  0  0  0  0
  -18.3379   18.9189  -16.7110 H   0  0  0  0  0  0  0  0  0  0  0  0
  -19.7396   10.7401  -16.6151 C   0  0  0  0  0  0  0  0  0  0  0  0
  -20.3791   10.5640  -15.6653 N   0  0  0  0  0  0  0  0  0  0  0  0
 16 17  1  0  0  0
 17 10  1  0  0  0
 10 11  2  0  0  0
 11 12  1  0  0  0
 12 13  2  0  0  0
 13 18  1  0  0  0
 18 19  1  0  0  0
 19 20  1  0  0  0
 19 21  1  0  0  0
 13 14  1  0  0  0
 14 15  2  0  0  0
 15  1  1  0  0  0
  1  2  2  0  0  0
  2  3  1  0  0  0
  3  4  2  0  0  0
  4 22  1  0  0  0
 22 24  1  0  0  0
 24 25  2  0  0  0
 25 26  1  0  0  0
 26 27  2  0  0  0
 27 28  1  0  0  0
 28 29  1  0  0  0
 29 30  2  0  0  0
 30 31  1  0  0  0
 31 32  2  0  0  0
 32 33  1  0  0  0
  4  5  1  0  0  0
  5  6  2  0  0  0
  6  7  1  0  0  0
  7  8  2  0  0  0
  8  9  1  0  0  0
  5 35  1  0  0  0
 35 36  3  0  0  0
 15 10  1  0  0  0
  9  1  1  0  0  0
  8  3  1  0  0  0
 32 24  1  0  0  0
 31 27  1  0  0  0
 22 23  1  0  0  0
 28 34  1  0  0  0
M  END
> <minimizedAffinity>
-8.55621

> <CNNscore>
0.6904591322

> <CNNaffinity>
7.8807649612

> <CNN_VS>
5.4413461685

> <CNNaffinity_variance>
0.0916252732

$$$$
[H]c1nc2sc(-c3c([H])c(C([H])([H])N(C([H])([H])[H])C([H])([H])[H])c([H])c([H])c3OC([H])([H])[H])c([H])c2c(N([H])c2c([H])c([H])c3c(c([H])c([H])n3[H])c2C([H])([H])[H])c1C#N


 36 40  0  0  0  0  0  0  0  0999 V2000
  -18.0324   11.8340  -19.5611 C   0  0  0  0  0  0  0  0  0  0  0  0
  -18.2525   12.8801  -20.4023 C   0  0  0  0  0  0  0  0  0  0  0  0
  -17.4977   12.9613  -21.5181 C   0  0  0  0  0  0  0  0  0  0  0  0
  -17.5125   13.9288  -22.5542 C   0  0  0  0  0  0  0  0  0  0  0  0
  -16.6690   13.8593  -23.6268 C   0  0  0  0  0  0  0  0  0  0  0  0
  -15.7443   12.8289  -23.7611 C   0  0  0  0  0  0  0  0  0  0  0  0
  -15.7289   11.9104  -22.7794 N   0  0  0  0  0  0  0  0  0  0  0  0
  -16.5690   11.9735  -21.7043 C   0  0  0  0  0  0  0  0  0  0  0  0
  -16.7820   10.9766  -20.3277 S   0  0  0  0  0  0  0  0  0  0  0  0
  -19.2538   12.5512  -17.5726 C   0  0  0  0  0  0  0  0  0  0  0  0
  -19.8804   12.2228  -16.3884 C   0  0  0  0  0  0  0  0  0  0  0  0
  -19.9697   10.9272  -15.9232 C   0  0  0  0  0  0  0  0  0  0  0  0
  -19.4207    9.8846  -16.6448 C   0  0  0  0  0  0  0  0  0  0  0  0
  -18.7942   10.2157  -17.8296 C   0  0  0  0  0  0  0  0  0  0  0  0
  -18.7056   11.5069  -18.2929 C   0  0  0  0  0  0  0  0  0  0  0  0
  -18.4663   14.7989  -17.2171 C   0  0  0  0  0  0  0  0  0  0  0  0
  -19.1764   13.8746  -18.0230 O   0  0  0  0  0  0  0  0  0  0  0  0
  -19.4921    8.4743  -16.1874 C   0  0  0  0  0  0  0  0  0  0  0  0
  -20.3493    8.3245  -15.0306 N   0  0  0  0  0  0  0  0  0  0  0  0
  -19.6337    7.9493  -13.8478 C   0  0  0  0  0  0  0  0  0  0  0  0
  -21.5049    7.5244  -15.2906 C   0  0  0  0  0  0  0  0  0  0  0  0
  -18.4261   15.0190  -22.5031 N   0  0  0  0  0  0  0  0  0  0  0  0
  -19.2661   15.0149  -23.1140 H   0  0  0  0  0  0  0  0  0  0  0  0
  -18.2383   16.1299  -21.6421 C   0  0  0  0  0  0  0  0  0  0  0  0
  -17.0652   16.8353  -21.6917 C   0  0  0  0  0  0  0  0  0  0  0  0
  -16.8880   17.9099  -20.8608 C   0  0  0  0  0  0  0  0  0  0  0  0
  -17.8506   18.3188  -19.9648 C   0  0  0  0  0  0  0  0  0  0  0  0
  -17.9260   19.3191  -19.0562 N   0  0  0  0  0  0  0  0  0  0  0  0
  -19.1083   19.2860  -18.4190 C   0  0  0  0  0  0  0  0  0  0  0  0
  -19.7933   18.2121  -18.9631 C   0  0  0  0  0  0  0  0  0  0  0  0
  -19.0277   17.5976  -19.9262 C   0  0  0  0  0  0  0  0  0  0  0  0
  -19.2191   16.5099  -20.7605 C   0  0  0  0  0  0  0  0  0  0  0  0
  -20.5202   15.7781  -20.6611 C   0  0  0  0  0  0  0  0  0  0  0  0
  -17.1561   20.0164  -18.8861 H   0  0  0  0  0  0  0  0  0  0  0  0
  -16.7527   14.8962  -24.6443 C   0  0  0  0  0  0  0  0  0  0  0  0
  -16.8371   15.7129  -25.4617 N   0  0  0  0  0  0  0  0  0  0  0  0
 16 17  1  0  0  0
 17 10  1  0  0  0
 10 11  2  0  0  0
 11 12  1  0  0  0
 12 13  2  0  0  0
 13 18  1  0  0  0
 18 19  1  0  0  0
 19 20  1  0  0  0
 19 21  1  0  0  0
 13 14  1  0  0  0
 14 15  2  0  0  0
 15  1  1  0  0  0
  1  2  2  0  0  0
  2  3  1  0  0  0
  3  4  2  0  0  0
  4 22  1  0  0  0
 22 24  1  0  0  0
 24 25  2  0  0  0
 25 26  1  0  0  0
 26 27  2  0  0  0
 27 28  1  0  0  0
 28 29  1  0  0  0
 29 30  2  0  0  0
 30 31  1  0  0  0
 31 32  2  0  0  0
 32 33  1  0  0  0
  4  5  1  0  0  0
  5  6  2  0  0  0
  6  7  1  0  0  0
  7  8  2  0  0  0
  8  9  1  0  0  0
  5 35  1  0  0  0
 35 36  3  0  0  0
 15 10  1  0  0  0
  9  1  1  0  0  0
  8  3  1  0  0  0
 32 24  1  0  0  0
 31 27  1  0  0  0
 22 23  1  0  0  0
 28 34  1  0  0  0
M  END
> <minimizedAffinity>
-8.58027

> <CNNscore>
0.6706740260

> <CNNaffinity>
7.7398710251

> <CNN_VS>
5.1909303665

> <CNNaffinity_variance>
0.0707617030

$$$$
[H]c1nc2sc(-c3c([H])c(C([H])([H])N(C([H])([H])[H])C([H])([H])[H])c([H])c([H])c3OC([H])([H])[H])c([H])c2c(N([H])c2c([H])c([H])c3c(c([H])c([H])n3[H])c2C([H])([H])[H])c1C#N


 36 40  0  0  0  0  0  0  0  0999 V2000
  -20.0099   15.5271  -19.8271 C   0  0  0  0  0  0  0  0  0  0  0  0
  -19.3507   14.7009  -20.6834 C   0  0  0  0  0  0  0  0  0  0  0  0
  -18.5994   13.7130  -20.1533 C   0  0  0  0  0  0  0  0  0  0  0  0
  -17.8184   12.7218  -20.7993 C   0  0  0  0  0  0  0  0  0  0  0  0
  -17.1104   11.7843  -20.1017 C   0  0  0  0  0  0  0  0  0  0  0  0
  -17.1177   11.7514  -18.7111 C   0  0  0  0  0  0  0  0  0  0  0  0
  -17.8580   12.6907  -18.0968 N   0  0  0  0  0  0  0  0  0  0  0  0
  -18.5682   13.6309  -18.7875 C   0  0  0  0  0  0  0  0  0  0  0  0
  -19.5797   14.9238  -18.2983 S   0  0  0  0  0  0  0  0  0  0  0  0
  -21.9861   16.8665  -19.3165 C   0  0  0  0  0  0  0  0  0  0  0  0
  -22.7951   17.9420  -19.6194 C   0  0  0  0  0  0  0  0  0  0  0  0
  -22.5449   18.7924  -20.6764 C   0  0  0  0  0  0  0  0  0  0  0  0
  -21.4469   18.5928  -21.4910 C   0  0  0  0  0  0  0  0  0  0  0  0
  -20.6387   17.5159  -21.1859 C   0  0  0  0  0  0  0  0  0  0  0  0
  -20.8883   16.6688  -20.1325 C   0  0  0  0  0  0  0  0  0  0  0  0
  -23.1186   16.5092  -17.2216 C   0  0  0  0  0  0  0  0  0  0  0  0
  -22.2620   16.0176  -18.2378 O   0  0  0  0  0  0  0  0  0  0  0  0
  -21.1343   19.4806  -22.6388 C   0  0  0  0  0  0  0  0  0  0  0  0
  -22.0860   19.3233  -23.7181 N   0  0  0  0  0  0  0  0  0  0  0  0
  -23.1029   20.3322  -23.7199 C   0  0  0  0  0  0  0  0  0  0  0  0
  -22.5882   17.9899  -23.8312 C   0  0  0  0  0  0  0  0  0  0  0  0
  -17.7515   12.6762  -22.2203 N   0  0  0  0  0  0  0  0  0  0  0  0
  -18.2818   11.9478  -22.7369 H   0  0  0  0  0  0  0  0  0  0  0  0
  -16.9801   13.5953  -22.9759 C   0  0  0  0  0  0  0  0  0  0  0  0
  -16.1606   14.4836  -22.3310 C   0  0  0  0  0  0  0  0  0  0  0  0
  -15.4143   15.3681  -23.0640 C   0  0  0  0  0  0  0  0  0  0  0  0
  -15.4514   15.4048  -24.4401 C   0  0  0  0  0  0  0  0  0  0  0  0
  -14.8314   16.1581  -25.3783 N   0  0  0  0  0  0  0  0  0  0  0  0
  -15.2214   15.7884  -26.6096 C   0  0  0  0  0  0  0  0  0  0  0  0
  -16.1258   14.7567  -26.4186 C   0  0  0  0  0  0  0  0  0  0  0  0
  -16.2823   14.5034  -25.0759 C   0  0  0  0  0  0  0  0  0  0  0  0
  -17.0415   13.6046  -24.3469 C   0  0  0  0  0  0  0  0  0  0  0  0
  -17.9179   12.6590  -25.1059 C   0  0  0  0  0  0  0  0  0  0  0  0
  -14.1429   16.9225  -25.1558 H   0  0  0  0  0  0  0  0  0  0  0  0
  -16.3350   10.8037  -20.8466 C   0  0  0  0  0  0  0  0  0  0  0  0
  -15.7242   10.0318  -21.4576 N   0  0  0  0  0  0  0  0  0  0  0  0
 16 17  1  0  0  0
 17 10  1  0  0  0
 10 11  2  0  0  0
 11 12  1  0  0  0
 12 13  2  0  0  0
 13 18  1  0  0  0
 18 19  1  0  0  0
 19 20  1  0  0  0
 19 21  1  0  0  0
 13 14  1  0  0  0
 14 15  2  0  0  0
 15  1  1  0  0  0
  1  2  2  0  0  0
  2  3  1  0  0  0
  3  4  2  0  0  0
  4 22  1  0  0  0
 22 24  1  0  0  0
 24 25  2  0  0  0
 25 26  1  0  0  0
 26 27  2  0  0  0
 27 28  1  0  0  0
 28 29  1  0  0  0
 29 30  2  0  0  0
 30 31  1  0  0  0
 31 32  2  0  0  0
 32 33  1  0  0  0
  4  5  1  0  0  0
  5  6  2  0  0  0
  6  7  1  0  0  0
  7  8  2  0  0  0
  8  9  1  0  0  0
  5 35  1  0  0  0
 35 36  3  0  0  0
 15 10  1  0  0  0
  9  1  1  0  0  0
  8  3  1  0  0  0
 32 24  1  0  0  0
 31 27  1  0  0  0
 22 23  1  0  0  0
 28 34  1  0  0  0
M  END
> <minimizedAffinity>
-8.04789

> <CNNscore>
0.6293622255

> <CNNaffinity>
7.7322397232

> <CNN_VS>
4.8663797379

> <CNNaffinity_variance>
0.0929963365

$$$$
[H]c1nc2sc(-c3c([H])c(C([H])([H])N(C([H])([H])[H])C([H])([H])[H])c([H])c([H])c3OC([H])([H])[H])c([H])c2c(N([H])c2c([H])c([H])c3c(c([H])c([H])n3[H])c2C([H])([H])[H])c1C#N


 36 40  0  0  0  0  0  0  0  0999 V2000
  -16.9843   14.1153  -22.2845 C   0  0  0  0  0  0  0  0  0  0  0  0
  -17.4885   13.8047  -21.0600 C   0  0  0  0  0  0  0  0  0  0  0  0
  -17.3595   12.5320  -20.6295 C   0  0  0  0  0  0  0  0  0  0  0  0
  -17.7843   11.9387  -19.4141 C   0  0  0  0  0  0  0  0  0  0  0  0
  -17.5700   10.6184  -19.1351 C   0  0  0  0  0  0  0  0  0  0  0  0
  -16.9193    9.7798  -20.0340 C   0  0  0  0  0  0  0  0  0  0  0  0
  -16.5157   10.3409  -21.1872 N   0  0  0  0  0  0  0  0  0  0  0  0
  -16.7265   11.6598  -21.4730 C   0  0  0  0  0  0  0  0  0  0  0  0
  -16.3379   12.6395  -22.8234 S   0  0  0  0  0  0  0  0  0  0  0  0
  -15.8774   15.7252  -23.7486 C   0  0  0  0  0  0  0  0  0  0  0  0
  -15.9003   16.9417  -24.3986 C   0  0  0  0  0  0  0  0  0  0  0  0
  -16.9623   17.8176  -24.3100 C   0  0  0  0  0  0  0  0  0  0  0  0
  -18.0700   17.5004  -23.5474 C   0  0  0  0  0  0  0  0  0  0  0  0
  -18.0448   16.2824  -22.8979 C   0  0  0  0  0  0  0  0  0  0  0  0
  -16.9864   15.4097  -22.9866 C   0  0  0  0  0  0  0  0  0  0  0  0
  -14.0607   14.8600  -25.0714 C   0  0  0  0  0  0  0  0  0  0  0  0
  -14.7868   14.8535  -23.8546 O   0  0  0  0  0  0  0  0  0  0  0  0
  -19.2376   18.4082  -23.4221 C   0  0  0  0  0  0  0  0  0  0  0  0
  -18.8370   19.7635  -23.1093 N   0  0  0  0  0  0  0  0  0  0  0  0
  -18.6687   19.9881  -21.7046 C   0  0  0  0  0  0  0  0  0  0  0  0
  -19.6382   20.7491  -23.7648 C   0  0  0  0  0  0  0  0  0  0  0  0
  -18.4576   12.7194  -18.4328 N   0  0  0  0  0  0  0  0  0  0  0  0
  -18.2595   12.5615  -17.4255 H   0  0  0  0  0  0  0  0  0  0  0  0
  -19.4031   13.7197  -18.7734 C   0  0  0  0  0  0  0  0  0  0  0  0
  -20.4462   13.4112  -19.6059 C   0  0  0  0  0  0  0  0  0  0  0  0
  -21.3598   14.3791  -19.9304 C   0  0  0  0  0  0  0  0  0  0  0  0
  -21.2754   15.6670  -19.4502 C   0  0  0  0  0  0  0  0  0  0  0  0
  -22.0251   16.7823  -19.6114 N   0  0  0  0  0  0  0  0  0  0  0  0
  -21.5032   17.8035  -18.9116 C   0  0  0  0  0  0  0  0  0  0  0  0
  -20.3769   17.2902  -18.2896 C   0  0  0  0  0  0  0  0  0  0  0  0
  -20.2182   15.9628  -18.6123 C   0  0  0  0  0  0  0  0  0  0  0  0
  -19.2885   14.9940  -18.2766 C   0  0  0  0  0  0  0  0  0  0  0  0
  -18.1710   15.3896  -17.3640 C   0  0  0  0  0  0  0  0  0  0  0  0
  -22.8926   16.8251  -20.2057 H   0  0  0  0  0  0  0  0  0  0  0  0
  -18.0403   10.0926  -17.8623 C   0  0  0  0  0  0  0  0  0  0  0  0
  -18.4081    9.6916  -16.8395 N   0  0  0  0  0  0  0  0  0  0  0  0
 16 17  1  0  0  0
 17 10  1  0  0  0
 10 11  2  0  0  0
 11 12  1  0  0  0
 12 13  2  0  0  0
 13 18  1  0  0  0
 18 19  1  0  0  0
 19 20  1  0  0  0
 19 21  1  0  0  0
 13 14  1  0  0  0
 14 15  2  0  0  0
 15  1  1  0  0  0
  1  2  2  0  0  0
  2  3  1  0  0  0
  3  4  2  0  0  0
  4 22  1  0  0  0
 22 24  1  0  0  0
 24 25  2  0  0  0
 25 26  1  0  0  0
 26 27  2  0  0  0
 27 28  1  0  0  0
 28 29  1  0  0  0
 29 30  2  0  0  0
 30 31  1  0  0  0
 31 32  2  0  0  0
 32 33  1  0  0  0
  4  5  1  0  0  0
  5  6  2  0  0  0
  6  7  1  0  0  0
  7  8  2  0  0  0
  8  9  1  0  0  0
  5 35  1  0  0  0
 35 36  3  0  0  0
 15 10  1  0  0  0
  9  1  1  0  0  0
  8  3  1  0  0  0
 32 24  1  0  0  0
 31 27  1  0  0  0
 22 23  1  0  0  0
 28 34  1  0  0  0
M  END
> <minimizedAffinity>
-8.28403

> <CNNscore>
0.6078193188

> <CNNaffinity>
7.6450338364

> <CNN_VS>
4.6467990875

> <CNNaffinity_variance>
0.0724117607

$$$$
[H]c1nc2sc(-c3c([H])c(C([H])([H])N(C([H])([H])[H])C([H])([H])[H])c([H])c([H])c3OC([H])([H])[H])c([H])c2c(N([H])c2c([H])c([H])c3c(c([H])c([H])n3[H])c2C([H])([H])[H])c1C#N


 36 40  0  0  0  0  0  0  0  0999 V2000
  -17.2280   13.4294  -22.3271 C   0  0  0  0  0  0  0  0  0  0  0  0
  -18.0496   13.3456  -21.2463 C   0  0  0  0  0  0  0  0  0  0  0  0
  -17.9176   12.2747  -20.4356 C   0  0  0  0  0  0  0  0  0  0  0  0
  -18.6293   11.9365  -19.2572 C   0  0  0  0  0  0  0  0  0  0  0  0
  -18.3644   10.7989  -18.5483 C   0  0  0  0  0  0  0  0  0  0  0  0
  -17.3757    9.9054  -18.9469 C   0  0  0  0  0  0  0  0  0  0  0  0
  -16.6996   10.2246  -20.0644 N   0  0  0  0  0  0  0  0  0  0  0  0
  -16.9590   11.3599  -20.7782 C   0  0  0  0  0  0  0  0  0  0  0  0
  -16.2833   12.0226  -22.2059 S   0  0  0  0  0  0  0  0  0  0  0  0
  -16.8921   14.0801  -24.6561 C   0  0  0  0  0  0  0  0  0  0  0  0
  -16.8321   15.0772  -25.6075 C   0  0  0  0  0  0  0  0  0  0  0  0
  -17.0237   16.4100  -25.3078 C   0  0  0  0  0  0  0  0  0  0  0  0
  -17.2894   16.8050  -24.0106 C   0  0  0  0  0  0  0  0  0  0  0  0
  -17.3490   15.8053  -23.0603 C   0  0  0  0  0  0  0  0  0  0  0  0
  -17.1582   14.4773  -23.3594 C   0  0  0  0  0  0  0  0  0  0  0  0
  -17.4702   12.1989  -26.0438 C   0  0  0  0  0  0  0  0  0  0  0  0
  -16.6938   12.7339  -24.9860 O   0  0  0  0  0  0  0  0  0  0  0  0
  -17.5044   18.2257  -23.6385 C   0  0  0  0  0  0  0  0  0  0  0  0
  -18.5797   18.3765  -22.6813 N   0  0  0  0  0  0  0  0  0  0  0  0
  -19.8675   18.4892  -23.2983 C   0  0  0  0  0  0  0  0  0  0  0  0
  -18.3159   19.3787  -21.6968 C   0  0  0  0  0  0  0  0  0  0  0  0
  -19.6583   12.7916  -18.7716 N   0  0  0  0  0  0  0  0  0  0  0  0
  -20.6307   12.4344  -18.6961 H   0  0  0  0  0  0  0  0  0  0  0  0
  -19.4125   14.1321  -18.3802 C   0  0  0  0  0  0  0  0  0  0  0  0
  -18.4683   14.3968  -17.4239 C   0  0  0  0  0  0  0  0  0  0  0  0
  -18.2310   15.6933  -17.0502 C   0  0  0  0  0  0  0  0  0  0  0  0
  -18.9090   16.7579  -17.6010 C   0  0  0  0  0  0  0  0  0  0  0  0
  -18.8672   18.0978  -17.4149 N   0  0  0  0  0  0  0  0  0  0  0  0
  -19.7526   18.7109  -18.2182 C   0  0  0  0  0  0  0  0  0  0  0  0
  -20.3690   17.6973  -18.9333 C   0  0  0  0  0  0  0  0  0  0  0  0
  -19.8580   16.4752  -18.5636 C   0  0  0  0  0  0  0  0  0  0  0  0
  -20.1072   15.1697  -18.9500 C   0  0  0  0  0  0  0  0  0  0  0  0
  -21.1499   14.9421  -19.9985 C   0  0  0  0  0  0  0  0  0  0  0  0
  -18.2245   18.5754  -16.7319 H   0  0  0  0  0  0  0  0  0  0  0  0
  -19.1445   10.5303  -17.3496 C   0  0  0  0  0  0  0  0  0  0  0  0
  -19.7745   10.3354  -16.3971 N   0  0  0  0  0  0  0  0  0  0  0  0
 16 17  1  0  0  0
 17 10  1  0  0  0
 10 11  2  0  0  0
 11 12  1  0  0  0
 12 13  2  0  0  0
 13 18  1  0  0  0
 18 19  1  0  0  0
 19 20  1  0  0  0
 19 21  1  0  0  0
 13 14  1  0  0  0
 14 15  2  0  0  0
 15  1  1  0  0  0
  1  2  2  0  0  0
  2  3  1  0  0  0
  3  4  2  0  0  0
  4 22  1  0  0  0
 22 24  1  0  0  0
 24 25  2  0  0  0
 25 26  1  0  0  0
 26 27  2  0  0  0
 27 28  1  0  0  0
 28 29  1  0  0  0
 29 30  2  0  0  0
 30 31  1  0  0  0
 31 32  2  0  0  0
 32 33  1  0  0  0
  4  5  1  0  0  0
  5  6  2  0  0  0
  6  7  1  0  0  0
  7  8  2  0  0  0
  8  9  1  0  0  0
  5 35  1  0  0  0
 35 36  3  0  0  0
 15 10  1  0  0  0
  9  1  1  0  0  0
  8  3  1  0  0  0
 32 24  1  0  0  0
 31 27  1  0  0  0
 22 23  1  0  0  0
 28 34  1  0  0  0
M  END
> <minimizedAffinity>
-8.40536

> <CNNscore>
0.5918171406

> <CNNaffinity>
7.7835083008

> <CNN_VS>
4.6064138412

> <CNNaffinity_variance>
0.1087632179

$$$$
[H]c1nc2c([H])c(OC([H])([H])C([H])([H])C([H])([H])N3C([H])([H])C([H])([H])N(C([H])([H])[H])C([H])([H])C3([H])[H])c(OC([H])([H])[H])c([H])c2c(N([H])c2c([H])c(OC([H])([H])[H])c(Cl)c([H])c2Cl)c1C#N


 37 40  0  0  0  0  0  0  0  0999 V2000
  -17.5657   12.1748  -21.1555 C   0  0  0  0  0  0  0  0  0  0  0  0
  -16.4403   11.7667  -21.8440 C   0  0  0  0  0  0  0  0  0  0  0  0
  -15.6794   10.7581  -21.2505 C   0  0  0  0  0  0  0  0  0  0  0  0
  -16.0282   10.2158  -20.0703 N   0  0  0  0  0  0  0  0  0  0  0  0
  -17.1294   10.6295  -19.4172 C   0  0  0  0  0  0  0  0  0  0  0  0
  -17.5201   10.0883  -18.1910 C   0  0  0  0  0  0  0  0  0  0  0  0
  -18.6514   10.5190  -17.5281 C   0  0  0  0  0  0  0  0  0  0  0  0
  -19.4360   11.5150  -18.0766 C   0  0  0  0  0  0  0  0  0  0  0  0
  -19.0696   12.0714  -19.2974 C   0  0  0  0  0  0  0  0  0  0  0  0
  -17.9335   11.6218  -19.9382 C   0  0  0  0  0  0  0  0  0  0  0  0
  -18.3498   13.1906  -21.7332 N   0  0  0  0  0  0  0  0  0  0  0  0
  -19.1060   12.9549  -22.4112 H   0  0  0  0  0  0  0  0  0  0  0  0
  -17.8060   16.3433  -19.7749 C   0  0  0  0  0  0  0  0  0  0  0  0
  -17.9974   15.0319  -20.1305 C   0  0  0  0  0  0  0  0  0  0  0  0
  -18.1519   14.5833  -21.4240 C   0  0  0  0  0  0  0  0  0  0  0  0
  -18.1075   15.5382  -22.4171 C   0  0  0  0  0  0  0  0  0  0  0  0
  -18.2889   15.1046  -24.0935 Cl  0  0  0  0  0  0  0  0  0  0  0  0
  -17.9162   16.8826  -22.1164 C   0  0  0  0  0  0  0  0  0  0  0  0
  -17.7672   17.2795  -20.8083 C   0  0  0  0  0  0  0  0  0  0  0  0
  -17.5234   18.9512  -20.3514 Cl  0  0  0  0  0  0  0  0  0  0  0  0
  -18.1981   15.9130  -17.4477 C   0  0  0  0  0  0  0  0  0  0  0  0
  -17.6533   16.7594  -18.4491 O   0  0  0  0  0  0  0  0  0  0  0  0
  -20.5515   11.9119  -17.3832 O   0  0  0  0  0  0  0  0  0  0  0  0
  -20.6280   13.0989  -16.6208 C   0  0  0  0  0  0  0  0  0  0  0  0
  -16.0650   12.3485  -23.1113 C   0  0  0  0  0  0  0  0  0  0  0  0
  -15.7614   12.7985  -24.1369 N   0  0  0  0  0  0  0  0  0  0  0  0
  -19.0183    9.9584  -16.3004 O   0  0  0  0  0  0  0  0  0  0  0  0
  -18.8134    8.6001  -16.0011 C   0  0  0  0  0  0  0  0  0  0  0  0
  -19.7220    8.2518  -14.8407 C   0  0  0  0  0  0  0  0  0  0  0  0
  -19.9652    9.5183  -14.0542 C   0  0  0  0  0  0  0  0  0  0  0  0
  -19.2050    9.5916  -12.8507 N   0  0  0  0  0  0  0  0  0  0  0  0
  -18.8018    8.3106  -12.3219 C   0  0  0  0  0  0  0  0  0  0  0  0
  -19.3808    8.0543  -10.9485 C   0  0  0  0  0  0  0  0  0  0  0  0
  -18.9893    9.0743   -9.9993 N   0  0  0  0  0  0  0  0  0  0  0  0
  -20.0731    9.2058   -9.0324 C   0  0  0  0  0  0  0  0  0  0  0  0
  -18.8325   10.3716  -10.6238 C   0  0  0  0  0  0  0  0  0  0  0  0
  -19.7155   10.4839  -11.8619 C   0  0  0  0  0  0  0  0  0  0  0  0
 21 22  1  0  0  0
 22 13  1  0  0  0
 13 14  2  0  0  0
 14 15  1  0  0  0
 15 11  1  0  0  0
 11  1  1  0  0  0
  1  2  2  0  0  0
  2  3  1  0  0  0
  3  4  2  0  0  0
  4  5  1  0  0  0
  5  6  2  0  0  0
  6  7  1  0  0  0
  7 27  1  0  0  0
 27 28  1  0  0  0
 28 29  1  0  0  0
 29 30  1  0  0  0
 30 31  1  0  0  0
 31 32  1  0  0  0
 32 33  1  0  0  0
 33 34  1  0  0  0
 34 35  1  0  0  0
 34 36  1  0  0  0
 36 37  1  0  0  0
  7  8  2  0  0  0
  8 23  1  0  0  0
 23 24  1  0  0  0
  8  9  1  0  0  0
  9 10  2  0  0  0
  2 25  1  0  0  0
 25 26  3  0  0  0
 15 16  2  0  0  0
 16 17  1  0  0  0
 16 18  1  0  0  0
 18 19  2  0  0  0
 19 20  1  0  0  0
 19 13  1  0  0  0
 10  1  1  0  0  0
 10  5  1  0  0  0
 37 31  1  0  0  0
 11 12  1  0  0  0
M  END
> <minimizedAffinity>
-7.34741

> <CNNscore>
0.8657386899

> <CNNaffinity>
7.6618738174

> <CNN_VS>
6.6331806183

> <CNNaffinity_variance>
0.0625023395

$$$$
[H]c1nc2c([H])c(OC([H])([H])C([H])([H])C([H])([H])N3C([H])([H])C([H])([H])N(C([H])([H])[H])C([H])([H])C3([H])[H])c(OC([H])([H])[H])c([H])c2c(N([H])c2c([H])c(OC([H])([H])[H])c(Cl)c([H])c2Cl)c1C#N


 37 40  0  0  0  0  0  0  0  0999 V2000
  -17.8766   12.0272  -20.6439 C   0  0  0  0  0  0  0  0  0  0  0  0
  -16.8783   11.2303  -20.1190 C   0  0  0  0  0  0  0  0  0  0  0  0
  -16.8888   11.0505  -18.7348 C   0  0  0  0  0  0  0  0  0  0  0  0
  -17.8239   11.6253  -17.9578 N   0  0  0  0  0  0  0  0  0  0  0  0
  -18.7873   12.3982  -18.4915 C   0  0  0  0  0  0  0  0  0  0  0  0
  -19.7728   13.0096  -17.7141 C   0  0  0  0  0  0  0  0  0  0  0  0
  -20.7573   13.8010  -18.2703 C   0  0  0  0  0  0  0  0  0  0  0  0
  -20.7876   14.0078  -19.6360 C   0  0  0  0  0  0  0  0  0  0  0  0
  -19.8177   13.4102  -20.4336 C   0  0  0  0  0  0  0  0  0  0  0  0
  -18.8450   12.6241  -19.8510 C   0  0  0  0  0  0  0  0  0  0  0  0
  -17.8877   12.2238  -22.0373 N   0  0  0  0  0  0  0  0  0  0  0  0
  -18.2583   11.4854  -22.6733 H   0  0  0  0  0  0  0  0  0  0  0  0
  -16.4778   15.6785  -22.4213 C   0  0  0  0  0  0  0  0  0  0  0  0
  -16.9556   14.5031  -21.8988 C   0  0  0  0  0  0  0  0  0  0  0  0
  -17.3967   13.4331  -22.6463 C   0  0  0  0  0  0  0  0  0  0  0  0
  -17.3453   13.5753  -24.0164 C   0  0  0  0  0  0  0  0  0  0  0  0
  -17.8723   12.2981  -25.0758 Cl  0  0  0  0  0  0  0  0  0  0  0  0
  -16.8707   14.7438  -24.6025 C   0  0  0  0  0  0  0  0  0  0  0  0
  -16.4417   15.7838  -23.8118 C   0  0  0  0  0  0  0  0  0  0  0  0
  -15.8322   17.2843  -24.4751 Cl  0  0  0  0  0  0  0  0  0  0  0  0
  -17.0424   17.5664  -21.0531 C   0  0  0  0  0  0  0  0  0  0  0  0
  -16.0389   16.7428  -21.6284 O   0  0  0  0  0  0  0  0  0  0  0  0
  -21.7843   14.8013  -20.1455 O   0  0  0  0  0  0  0  0  0  0  0  0
  -21.6562   16.1919  -20.3598 C   0  0  0  0  0  0  0  0  0  0  0  0
  -15.8737   10.6127  -20.9526 C   0  0  0  0  0  0  0  0  0  0  0  0
  -15.0544   10.1307  -21.6182 N   0  0  0  0  0  0  0  0  0  0  0  0
  -21.7320   14.4011  -17.4666 O   0  0  0  0  0  0  0  0  0  0  0  0
  -21.4884   14.7623  -16.1299 C   0  0  0  0  0  0  0  0  0  0  0  0
  -21.4356   16.2747  -16.0737 C   0  0  0  0  0  0  0  0  0  0  0  0
  -20.0061   16.6921  -16.3272 C   0  0  0  0  0  0  0  0  0  0  0  0
  -19.8832   18.0314  -16.7992 N   0  0  0  0  0  0  0  0  0  0  0  0
  -21.1116   18.7886  -16.7696 C   0  0  0  0  0  0  0  0  0  0  0  0
  -21.5398   19.2327  -18.1503 C   0  0  0  0  0  0  0  0  0  0  0  0
  -20.5287   20.0441  -18.7936 N   0  0  0  0  0  0  0  0  0  0  0  0
  -20.6321   19.8084  -20.2291 C   0  0  0  0  0  0  0  0  0  0  0  0
  -19.1880   19.6563  -18.4063 C   0  0  0  0  0  0  0  0  0  0  0  0
  -19.1459   18.1843  -18.0107 C   0  0  0  0  0  0  0  0  0  0  0  0
 21 22  1  0  0  0
 22 13  1  0  0  0
 13 14  2  0  0  0
 14 15  1  0  0  0
 15 11  1  0  0  0
 11  1  1  0  0  0
  1  2  2  0  0  0
  2  3  1  0  0  0
  3  4  2  0  0  0
  4  5  1  0  0  0
  5  6  2  0  0  0
  6  7  1  0  0  0
  7 27  1  0  0  0
 27 28  1  0  0  0
 28 29  1  0  0  0
 29 30  1  0  0  0
 30 31  1  0  0  0
 31 32  1  0  0  0
 32 33  1  0  0  0
 33 34  1  0  0  0
 34 35  1  0  0  0
 34 36  1  0  0  0
 36 37  1  0  0  0
  7  8  2  0  0  0
  8 23  1  0  0  0
 23 24  1  0  0  0
  8  9  1  0  0  0
  9 10  2  0  0  0
  2 25  1  0  0  0
 25 26  3  0  0  0
 15 16  2  0  0  0
 16 17  1  0  0  0
 16 18  1  0  0  0
 18 19  2  0  0  0
 19 20  1  0  0  0
 19 13  1  0  0  0
 10  1  1  0  0  0
 10  5  1  0  0  0
 37 31  1  0  0  0
 11 12  1  0  0  0
M  END
> <minimizedAffinity>
-7.22001

> <CNNscore>
0.7682530880

> <CNNaffinity>
7.7182984352

> <CNN_VS>
5.9296064377

> <CNNaffinity_variance>
0.1829798818

$$$$
[H]c1nc2c([H])c(OC([H])([H])C([H])([H])C([H])([H])N3C([H])([H])C([H])([H])N(C([H])([H])[H])C([H])([H])C3([H])[H])c(OC([H])([H])[H])c([H])c2c(N([H])c2c([H])c(OC([H])([H])[H])c(Cl)c([H])c2Cl)c1C#N


 37 40  0  0  0  0  0  0  0  0999 V2000
  -18.3610   12.0795  -19.9642 C   0  0  0  0  0  0  0  0  0  0  0  0
  -17.3465   11.5100  -20.7083 C   0  0  0  0  0  0  0  0  0  0  0  0
  -16.8074   10.3198  -20.2172 C   0  0  0  0  0  0  0  0  0  0  0  0
  -17.2557    9.7613  -19.0789 N   0  0  0  0  0  0  0  0  0  0  0  0
  -18.2454   10.3343  -18.3701 C   0  0  0  0  0  0  0  0  0  0  0  0
  -18.7344    9.7815  -17.1850 C   0  0  0  0  0  0  0  0  0  0  0  0
  -19.7501   10.3764  -16.4643 C   0  0  0  0  0  0  0  0  0  0  0  0
  -20.3149   11.5554  -16.9112 C   0  0  0  0  0  0  0  0  0  0  0  0
  -19.8465   12.1274  -18.0892 C   0  0  0  0  0  0  0  0  0  0  0  0
  -18.8300   11.5112  -18.7894 C   0  0  0  0  0  0  0  0  0  0  0  0
  -18.9213   13.2801  -20.4385 N   0  0  0  0  0  0  0  0  0  0  0  0
  -19.8928   13.2980  -20.8166 H   0  0  0  0  0  0  0  0  0  0  0  0
  -16.8388   16.1788  -21.5923 C   0  0  0  0  0  0  0  0  0  0  0  0
  -17.5450   15.0033  -21.5429 C   0  0  0  0  0  0  0  0  0  0  0  0
  -18.1951   14.5239  -20.4268 C   0  0  0  0  0  0  0  0  0  0  0  0
  -18.1176   15.2973  -19.2884 C   0  0  0  0  0  0  0  0  0  0  0  0
  -18.8949   14.8060  -17.8100 Cl  0  0  0  0  0  0  0  0  0  0  0  0
  -17.4160   16.4981  -19.2792 C   0  0  0  0  0  0  0  0  0  0  0  0
  -16.7836   16.9330  -20.4201 C   0  0  0  0  0  0  0  0  0  0  0  0
  -15.8819   18.4315  -20.4864 Cl  0  0  0  0  0  0  0  0  0  0  0  0
  -17.0122   17.1948  -23.7584 C   0  0  0  0  0  0  0  0  0  0  0  0
  -16.1917   16.6317  -22.7457 O   0  0  0  0  0  0  0  0  0  0  0  0
  -21.3220   12.1114  -16.1633 O   0  0  0  0  0  0  0  0  0  0  0  0
  -21.3626   13.4698  -15.7772 C   0  0  0  0  0  0  0  0  0  0  0  0
  -16.8644   12.1091  -21.9306 C   0  0  0  0  0  0  0  0  0  0  0  0
  -16.4802   12.6078  -22.9054 N   0  0  0  0  0  0  0  0  0  0  0  0
  -20.2198    9.7997  -15.2799 O   0  0  0  0  0  0  0  0  0  0  0  0
  -19.3549    9.3359  -14.2731 C   0  0  0  0  0  0  0  0  0  0  0  0
  -19.2868   10.4096  -13.2072 C   0  0  0  0  0  0  0  0  0  0  0  0
  -20.4061   10.1516  -12.2261 C   0  0  0  0  0  0  0  0  0  0  0  0
  -19.9521    9.6675  -10.9647 N   0  0  0  0  0  0  0  0  0  0  0  0
  -19.5878   10.7015  -10.0259 C   0  0  0  0  0  0  0  0  0  0  0  0
  -18.1293   10.6256   -9.6335 C   0  0  0  0  0  0  0  0  0  0  0  0
  -17.7954    9.3468   -9.0436 N   0  0  0  0  0  0  0  0  0  0  0  0
  -16.4032    9.0665   -9.3753 C   0  0  0  0  0  0  0  0  0  0  0  0
  -18.5797    8.2650   -9.6024 C   0  0  0  0  0  0  0  0  0  0  0  0
  -19.0145    8.5944  -11.0263 C   0  0  0  0  0  0  0  0  0  0  0  0
 21 22  1  0  0  0
 22 13  1  0  0  0
 13 14  2  0  0  0
 14 15  1  0  0  0
 15 11  1  0  0  0
 11  1  1  0  0  0
  1  2  2  0  0  0
  2  3  1  0  0  0
  3  4  2  0  0  0
  4  5  1  0  0  0
  5  6  2  0  0  0
  6  7  1  0  0  0
  7 27  1  0  0  0
 27 28  1  0  0  0
 28 29  1  0  0  0
 29 30  1  0  0  0
 30 31  1  0  0  0
 31 32  1  0  0  0
 32 33  1  0  0  0
 33 34  1  0  0  0
 34 35  1  0  0  0
 34 36  1  0  0  0
 36 37  1  0  0  0
  7  8  2  0  0  0
  8 23  1  0  0  0
 23 24  1  0  0  0
  8  9  1  0  0  0
  9 10  2  0  0  0
  2 25  1  0  0  0
 25 26  3  0  0  0
 15 16  2  0  0  0
 16 17  1  0  0  0
 16 18  1  0  0  0
 18 19  2  0  0  0
 19 20  1  0  0  0
 19 13  1  0  0  0
 10  1  1  0  0  0
 10  5  1  0  0  0
 37 31  1  0  0  0
 11 12  1  0  0  0
M  END
> <minimizedAffinity>
-7.59050

> <CNNscore>
0.7555407882

> <CNNaffinity>
7.5123558044

> <CNN_VS>
5.6758913994

> <CNNaffinity_variance>
0.1038899273

$$$$
[H]c1nc2c([H])c(OC([H])([H])C([H])([H])C([H])([H])N3C([H])([H])C([H])([H])N(C([H])([H])[H])C([H])([H])C3([H])[H])c(OC([H])([H])[H])c([H])c2c(N([H])c2c([H])c(OC([H])([H])[H])c(Cl)c([H])c2Cl)c1C#N


 37 40  0  0  0  0  0  0  0  0999 V2000
  -17.5599   12.7424  -21.7504 C   0  0  0  0  0  0  0  0  0  0  0  0
  -16.4864   12.3514  -22.5262 C   0  0  0  0  0  0  0  0  0  0  0  0
  -15.7069   11.3060  -22.0283 C   0  0  0  0  0  0  0  0  0  0  0  0
  -15.9905   10.7142  -20.8544 N   0  0  0  0  0  0  0  0  0  0  0  0
  -17.0419   11.1121  -20.1152 C   0  0  0  0  0  0  0  0  0  0  0  0
  -17.3644   10.5199  -18.8927 C   0  0  0  0  0  0  0  0  0  0  0  0
  -18.4450   10.9348  -18.1410 C   0  0  0  0  0  0  0  0  0  0  0  0
  -19.2457   11.9658  -18.5932 C   0  0  0  0  0  0  0  0  0  0  0  0
  -18.9467   12.5733  -19.8081 C   0  0  0  0  0  0  0  0  0  0  0  0
  -17.8603   12.1385  -20.5388 C   0  0  0  0  0  0  0  0  0  0  0  0
  -18.3614   13.7946  -22.2308 N   0  0  0  0  0  0  0  0  0  0  0  0
  -19.0422   13.6314  -23.0035 H   0  0  0  0  0  0  0  0  0  0  0  0
  -18.2681   16.6177  -19.7627 C   0  0  0  0  0  0  0  0  0  0  0  0
  -18.3365   15.3726  -20.3355 C   0  0  0  0  0  0  0  0  0  0  0  0
  -18.2845   15.1274  -21.6902 C   0  0  0  0  0  0  0  0  0  0  0  0
  -18.1539   16.2268  -22.5113 C   0  0  0  0  0  0  0  0  0  0  0  0
  -18.0758   16.0554  -24.2421 Cl  0  0  0  0  0  0  0  0  0  0  0  0
  -18.0796   17.5130  -21.9873 C   0  0  0  0  0  0  0  0  0  0  0  0
  -18.1363   17.7048  -20.6268 C   0  0  0  0  0  0  0  0  0  0  0  0
  -18.0497   19.2914  -19.8932 Cl  0  0  0  0  0  0  0  0  0  0  0  0
  -18.0528   15.7036  -17.5553 C   0  0  0  0  0  0  0  0  0  0  0  0
  -18.3246   16.8258  -18.3815 O   0  0  0  0  0  0  0  0  0  0  0  0
  -20.3092   12.3452  -17.8136 O   0  0  0  0  0  0  0  0  0  0  0  0
  -20.9532   13.5990  -17.9105 C   0  0  0  0  0  0  0  0  0  0  0  0
  -16.1811   12.9863  -23.7868 C   0  0  0  0  0  0  0  0  0  0  0  0
  -15.9444   13.4822  -24.8089 N   0  0  0  0  0  0  0  0  0  0  0  0
  -18.7441   10.3227  -16.9195 O   0  0  0  0  0  0  0  0  0  0  0  0
  -18.6847    8.9296  -16.7404 C   0  0  0  0  0  0  0  0  0  0  0  0
  -19.2066    8.6308  -15.3505 C   0  0  0  0  0  0  0  0  0  0  0  0
  -20.5648    7.9869  -15.5006 C   0  0  0  0  0  0  0  0  0  0  0  0
  -21.6080    8.7088  -14.8508 N   0  0  0  0  0  0  0  0  0  0  0  0
  -22.2075    9.7447  -15.6576 C   0  0  0  0  0  0  0  0  0  0  0  0
  -22.0235   11.1172  -15.0499 C   0  0  0  0  0  0  0  0  0  0  0  0
  -22.5911   11.1992  -13.7211 N   0  0  0  0  0  0  0  0  0  0  0  0
  -21.7923   12.1582  -12.9667 C   0  0  0  0  0  0  0  0  0  0  0  0
  -22.5051    9.9400  -13.0108 C   0  0  0  0  0  0  0  0  0  0  0  0
  -21.3241    9.1171  -13.5139 C   0  0  0  0  0  0  0  0  0  0  0  0
 21 22  1  0  0  0
 22 13  1  0  0  0
 13 14  2  0  0  0
 14 15  1  0  0  0
 15 11  1  0  0  0
 11  1  1  0  0  0
  1  2  2  0  0  0
  2  3  1  0  0  0
  3  4  2  0  0  0
  4  5  1  0  0  0
  5  6  2  0  0  0
  6  7  1  0  0  0
  7 27  1  0  0  0
 27 28  1  0  0  0
 28 29  1  0  0  0
 29 30  1  0  0  0
 30 31  1  0  0  0
 31 32  1  0  0  0
 32 33  1  0  0  0
 33 34  1  0  0  0
 34 35  1  0  0  0
 34 36  1  0  0  0
 36 37  1  0  0  0
  7  8  2  0  0  0
  8 23  1  0  0  0
 23 24  1  0  0  0
  8  9  1  0  0  0
  9 10  2  0  0  0
  2 25  1  0  0  0
 25 26  3  0  0  0
 15 16  2  0  0  0
 16 17  1  0  0  0
 16 18  1  0  0  0
 18 19  2  0  0  0
 19 20  1  0  0  0
 19 13  1  0  0  0
 10  1  1  0  0  0
 10  5  1  0  0  0
 37 31  1  0  0  0
 11 12  1  0  0  0
M  END
> <minimizedAffinity>
-7.24957

> <CNNscore>
0.7052888274

> <CNNaffinity>
7.6470885277

> <CNN_VS>
5.3934059143

> <CNNaffinity_variance>
0.0744973570

$$$$
[H]c1nc2c([H])c(OC([H])([H])C([H])([H])C([H])([H])N3C([H])([H])C([H])([H])N(C([H])([H])[H])C([H])([H])C3([H])[H])c(OC([H])([H])[H])c([H])c2c(N([H])c2c([H])c(OC([H])([H])[H])c(Cl)c([H])c2Cl)c1C#N


 37 40  0  0  0  0  0  0  0  0999 V2000
  -17.8054   12.9969  -21.5432 C   0  0  0  0  0  0  0  0  0  0  0  0
  -16.7910   12.3795  -22.2482 C   0  0  0  0  0  0  0  0  0  0  0  0
  -16.1967   11.2716  -21.6417 C   0  0  0  0  0  0  0  0  0  0  0  0
  -16.5947   10.8327  -20.4343 N   0  0  0  0  0  0  0  0  0  0  0  0
  -17.5854   11.4503  -19.7657 C   0  0  0  0  0  0  0  0  0  0  0  0
  -18.0230   11.0211  -18.5112 C   0  0  0  0  0  0  0  0  0  0  0  0
  -19.0401   11.6611  -17.8325 C   0  0  0  0  0  0  0  0  0  0  0  0
  -19.6585   12.7620  -18.3930 C   0  0  0  0  0  0  0  0  0  0  0  0
  -19.2420   13.2105  -19.6419 C   0  0  0  0  0  0  0  0  0  0  0  0
  -18.2227   12.5518  -20.2980 C   0  0  0  0  0  0  0  0  0  0  0  0
  -18.4207   14.1163  -22.1336 N   0  0  0  0  0  0  0  0  0  0  0  0
  -18.8568   14.0443  -23.0779 H   0  0  0  0  0  0  0  0  0  0  0  0
  -19.7476   17.0731  -20.2448 C   0  0  0  0  0  0  0  0  0  0  0  0
  -19.6316   15.8646  -20.8844 C   0  0  0  0  0  0  0  0  0  0  0  0
  -18.4789   15.3966  -21.4763 C   0  0  0  0  0  0  0  0  0  0  0  0
  -17.3740   16.2181  -21.4092 C   0  0  0  0  0  0  0  0  0  0  0  0
  -15.8550   15.7458  -22.1168 Cl  0  0  0  0  0  0  0  0  0  0  0  0
  -17.4322   17.4539  -20.7739 C   0  0  0  0  0  0  0  0  0  0  0  0
  -18.6076   17.8757  -20.1981 C   0  0  0  0  0  0  0  0  0  0  0  0
  -18.7589   19.4165  -19.3821 Cl  0  0  0  0  0  0  0  0  0  0  0  0
  -21.9730   17.9196  -20.5368 C   0  0  0  0  0  0  0  0  0  0  0  0
  -20.9365   17.5131  -19.6557 O   0  0  0  0  0  0  0  0  0  0  0  0
  -20.6649   13.3667  -17.6831 O   0  0  0  0  0  0  0  0  0  0  0  0
  -20.5582   14.6460  -17.0931 C   0  0  0  0  0  0  0  0  0  0  0  0
  -16.3629   12.8502  -23.5445 C   0  0  0  0  0  0  0  0  0  0  0  0
  -16.0357   13.2229  -24.5936 N   0  0  0  0  0  0  0  0  0  0  0  0
  -19.4576   11.2086  -16.5766 O   0  0  0  0  0  0  0  0  0  0  0  0
  -20.1573   10.0013  -16.4051 C   0  0  0  0  0  0  0  0  0  0  0  0
  -19.2949    9.0980  -15.5485 C   0  0  0  0  0  0  0  0  0  0  0  0
  -20.1001    7.8586  -15.2364 C   0  0  0  0  0  0  0  0  0  0  0  0
  -20.2416    7.6128  -13.8395 N   0  0  0  0  0  0  0  0  0  0  0  0
  -19.7584    8.6791  -12.9952 C   0  0  0  0  0  0  0  0  0  0  0  0
  -18.6221    8.2290  -12.1046 C   0  0  0  0  0  0  0  0  0  0  0  0
  -19.0088    7.1239  -11.2538 N   0  0  0  0  0  0  0  0  0  0  0  0
  -17.8172    6.3148  -11.0254 C   0  0  0  0  0  0  0  0  0  0  0  0
  -19.9809    6.2584  -11.8892 C   0  0  0  0  0  0  0  0  0  0  0  0
  -19.8414    6.3140  -13.4066 C   0  0  0  0  0  0  0  0  0  0  0  0
 21 22  1  0  0  0
 22 13  1  0  0  0
 13 14  2  0  0  0
 14 15  1  0  0  0
 15 11  1  0  0  0
 11  1  1  0  0  0
  1  2  2  0  0  0
  2  3  1  0  0  0
  3  4  2  0  0  0
  4  5  1  0  0  0
  5  6  2  0  0  0
  6  7  1  0  0  0
  7 27  1  0  0  0
 27 28  1  0  0  0
 28 29  1  0  0  0
 29 30  1  0  0  0
 30 31  1  0  0  0
 31 32  1  0  0  0
 32 33  1  0  0  0
 33 34  1  0  0  0
 34 35  1  0  0  0
 34 36  1  0  0  0
 36 37  1  0  0  0
  7  8  2  0  0  0
  8 23  1  0  0  0
 23 24  1  0  0  0
  8  9  1  0  0  0
  9 10  2  0  0  0
  2 25  1  0  0  0
 25 26  3  0  0  0
 15 16  2  0  0  0
 16 17  1  0  0  0
 16 18  1  0  0  0
 18 19  2  0  0  0
 19 20  1  0  0  0
 19 13  1  0  0  0
 10  1  1  0  0  0
 10  5  1  0  0  0
 37 31  1  0  0  0
 11 12  1  0  0  0
M  END
> <minimizedAffinity>
-7.10712

> <CNNscore>
0.5735744834

> <CNNaffinity>
7.3618860245

> <CNN_VS>
4.2225899696

> <CNNaffinity_variance>
0.1568474472

$$$$
[H]c1nc2c([H])c(OC([H])([H])C([H])([H])C([H])([H])N3C([H])([H])C([H])([H])N(C([H])([H])[H])C([H])([H])C3([H])[H])c(OC([H])([H])[H])c([H])c2c(N([H])c2c([H])c(OC([H])([H])[H])c(Cl)c([H])c2Cl)c1C#N


 37 40  0  0  0  0  0  0  0  0999 V2000
  -18.3354   13.4420  -21.5153 C   0  0  0  0  0  0  0  0  0  0  0  0
  -17.4568   13.3320  -22.5750 C   0  0  0  0  0  0  0  0  0  0  0  0
  -16.5063   12.3131  -22.4921 C   0  0  0  0  0  0  0  0  0  0  0  0
  -16.4532   11.4849  -21.4338 N   0  0  0  0  0  0  0  0  0  0  0  0
  -17.3199   11.6110  -20.4125 C   0  0  0  0  0  0  0  0  0  0  0  0
  -17.2927   10.7688  -19.2993 C   0  0  0  0  0  0  0  0  0  0  0  0
  -18.1858   10.9056  -18.2560 C   0  0  0  0  0  0  0  0  0  0  0  0
  -19.1445   11.8996  -18.2936 C   0  0  0  0  0  0  0  0  0  0  0  0
  -19.1939   12.7524  -19.3911 C   0  0  0  0  0  0  0  0  0  0  0  0
  -18.2886   12.5930  -20.4199 C   0  0  0  0  0  0  0  0  0  0  0  0
  -19.3034   14.4616  -21.5753 N   0  0  0  0  0  0  0  0  0  0  0  0
  -20.1617   14.3435  -22.1554 H   0  0  0  0  0  0  0  0  0  0  0  0
  -17.8391   17.6662  -20.2880 C   0  0  0  0  0  0  0  0  0  0  0  0
  -18.0312   16.4804  -20.9513 C   0  0  0  0  0  0  0  0  0  0  0  0
  -19.1615   15.6989  -20.8518 C   0  0  0  0  0  0  0  0  0  0  0  0
  -20.1591   16.1608  -20.0202 C   0  0  0  0  0  0  0  0  0  0  0  0
  -21.6389   15.2690  -19.8056 Cl  0  0  0  0  0  0  0  0  0  0  0  0
  -20.0202   17.3559  -19.3226 C   0  0  0  0  0  0  0  0  0  0  0  0
  -18.8714   18.0998  -19.4561 C   0  0  0  0  0  0  0  0  0  0  0  0
  -18.6232   19.6123  -18.6114 Cl  0  0  0  0  0  0  0  0  0  0  0  0
  -15.4423   17.7306  -20.3654 C   0  0  0  0  0  0  0  0  0  0  0  0
  -16.6762   18.4314  -20.4153 O   0  0  0  0  0  0  0  0  0  0  0  0
  -20.0118   11.9987  -17.2349 O   0  0  0  0  0  0  0  0  0  0  0  0
  -20.5445   13.2183  -16.7607 C   0  0  0  0  0  0  0  0  0  0  0  0
  -17.5130   14.2209  -23.7117 C   0  0  0  0  0  0  0  0  0  0  0  0
  -17.5608   14.9201  -24.6366 N   0  0  0  0  0  0  0  0  0  0  0  0
  -18.1347   10.0470  -17.1531 O   0  0  0  0  0  0  0  0  0  0  0  0
  -18.7751    8.7955  -17.1423 C   0  0  0  0  0  0  0  0  0  0  0  0
  -19.0529    8.4434  -15.6958 C   0  0  0  0  0  0  0  0  0  0  0  0
  -19.6417    9.6662  -15.0325 C   0  0  0  0  0  0  0  0  0  0  0  0
  -19.6567    9.5856  -13.6094 N   0  0  0  0  0  0  0  0  0  0  0  0
  -20.8074    8.9067  -13.0634 C   0  0  0  0  0  0  0  0  0  0  0  0
  -21.6374    9.8128  -12.1819 C   0  0  0  0  0  0  0  0  0  0  0  0
  -20.8667   10.3462  -11.0791 N   0  0  0  0  0  0  0  0  0  0  0  0
  -21.4121   11.6617  -10.7650 C   0  0  0  0  0  0  0  0  0  0  0  0
  -19.4762   10.5481  -11.4306 C   0  0  0  0  0  0  0  0  0  0  0  0
  -19.3293   10.7952  -12.9280 C   0  0  0  0  0  0  0  0  0  0  0  0
 21 22  1  0  0  0
 22 13  1  0  0  0
 13 14  2  0  0  0
 14 15  1  0  0  0
 15 11  1  0  0  0
 11  1  1  0  0  0
  1  2  2  0  0  0
  2  3  1  0  0  0
  3  4  2  0  0  0
  4  5  1  0  0  0
  5  6  2  0  0  0
  6  7  1  0  0  0
  7 27  1  0  0  0
 27 28  1  0  0  0
 28 29  1  0  0  0
 29 30  1  0  0  0
 30 31  1  0  0  0
 31 32  1  0  0  0
 32 33  1  0  0  0
 33 34  1  0  0  0
 34 35  1  0  0  0
 34 36  1  0  0  0
 36 37  1  0  0  0
  7  8  2  0  0  0
  8 23  1  0  0  0
 23 24  1  0  0  0
  8  9  1  0  0  0
  9 10  2  0  0  0
  2 25  1  0  0  0
 25 26  3  0  0  0
 15 16  2  0  0  0
 16 17  1  0  0  0
 16 18  1  0  0  0
 18 19  2  0  0  0
 19 20  1  0  0  0
 19 13  1  0  0  0
 10  1  1  0  0  0
 10  5  1  0  0  0
 37 31  1  0  0  0
 11 12  1  0  0  0
M  END
> <minimizedAffinity>
-6.88678

> <CNNscore>
0.4906745255

> <CNNaffinity>
7.4736280441

> <CNN_VS>
3.6671187878

> <CNNaffinity_variance>
0.1732809693

$$$$
[H]c1nc2c([H])c(OC([H])([H])C([H])([H])C([H])([H])N3C([H])([H])C([H])([H])N(C([H])([H])[H])C([H])([H])C3([H])[H])c(OC([H])([H])[H])c([H])c2c(N([H])c2c([H])c(OC([H])([H])[H])c(Cl)c([H])c2Cl)c1C#N


 37 40  0  0  0  0  0  0  0  0999 V2000
  -18.3339   13.4736  -21.3271 C   0  0  0  0  0  0  0  0  0  0  0  0
  -17.5476   13.4067  -22.4604 C   0  0  0  0  0  0  0  0  0  0  0  0
  -16.6356   12.3519  -22.5237 C   0  0  0  0  0  0  0  0  0  0  0  0
  -16.5320   11.4509  -21.5306 N   0  0  0  0  0  0  0  0  0  0  0  0
  -17.3088   11.5360  -20.4354 C   0  0  0  0  0  0  0  0  0  0  0  0
  -17.2273   10.6181  -19.3865 C   0  0  0  0  0  0  0  0  0  0  0  0
  -18.0282   10.7134  -18.2666 C   0  0  0  0  0  0  0  0  0  0  0  0
  -18.9459   11.7405  -18.1593 C   0  0  0  0  0  0  0  0  0  0  0  0
  -19.0478   12.6687  -19.1900 C   0  0  0  0  0  0  0  0  0  0  0  0
  -18.2345   12.5494  -20.2980 C   0  0  0  0  0  0  0  0  0  0  0  0
  -19.2615   14.5282  -21.2395 N   0  0  0  0  0  0  0  0  0  0  0  0
  -19.9628   14.6807  -21.9958 H   0  0  0  0  0  0  0  0  0  0  0  0
  -20.4874   16.4212  -18.2421 C   0  0  0  0  0  0  0  0  0  0  0  0
  -20.4013   15.5753  -19.3191 C   0  0  0  0  0  0  0  0  0  0  0  0
  -19.2898   15.4353  -20.1211 C   0  0  0  0  0  0  0  0  0  0  0  0
  -18.1963   16.2108  -19.8001 C   0  0  0  0  0  0  0  0  0  0  0  0
  -16.7283   16.1296  -20.7326 Cl  0  0  0  0  0  0  0  0  0  0  0  0
  -18.2256   17.0860  -18.7196 C   0  0  0  0  0  0  0  0  0  0  0  0
  -19.3602   17.1891  -17.9496 C   0  0  0  0  0  0  0  0  0  0  0  0
  -19.4733   18.2672  -16.5756 Cl  0  0  0  0  0  0  0  0  0  0  0  0
  -22.7739   17.1238  -18.0613 C   0  0  0  0  0  0  0  0  0  0  0  0
  -21.6347   16.5350  -17.4517 O   0  0  0  0  0  0  0  0  0  0  0  0
  -19.7213   11.7962  -17.0287 O   0  0  0  0  0  0  0  0  0  0  0  0
  -20.4919   12.9192  -16.6528 C   0  0  0  0  0  0  0  0  0  0  0  0
  -17.6580   14.3738  -23.5271 C   0  0  0  0  0  0  0  0  0  0  0  0
  -17.7333   15.1414  -24.3941 N   0  0  0  0  0  0  0  0  0  0  0  0
  -17.9243    9.7790  -17.2311 O   0  0  0  0  0  0  0  0  0  0  0  0
  -18.9296    8.8324  -16.9668 C   0  0  0  0  0  0  0  0  0  0  0  0
  -19.0519    8.7124  -15.4621 C   0  0  0  0  0  0  0  0  0  0  0  0
  -20.5116    8.8725  -15.1078 C   0  0  0  0  0  0  0  0  0  0  0  0
  -20.7632    9.9637  -14.2260 N   0  0  0  0  0  0  0  0  0  0  0  0
  -19.5747   10.6188  -13.7347 C   0  0  0  0  0  0  0  0  0  0  0  0
  -19.4539   10.5249  -12.2302 C   0  0  0  0  0  0  0  0  0  0  0  0
  -20.5965   11.1079  -11.5600 N   0  0  0  0  0  0  0  0  0  0  0  0
  -20.7878   10.3762  -10.3130 C   0  0  0  0  0  0  0  0  0  0  0  0
  -21.8173   10.9508  -12.3232 C   0  0  0  0  0  0  0  0  0  0  0  0
  -21.7397    9.7171  -13.2159 C   0  0  0  0  0  0  0  0  0  0  0  0
 21 22  1  0  0  0
 22 13  1  0  0  0
 13 14  2  0  0  0
 14 15  1  0  0  0
 15 11  1  0  0  0
 11  1  1  0  0  0
  1  2  2  0  0  0
  2  3  1  0  0  0
  3  4  2  0  0  0
  4  5  1  0  0  0
  5  6  2  0  0  0
  6  7  1  0  0  0
  7 27  1  0  0  0
 27 28  1  0  0  0
 28 29  1  0  0  0
 29 30  1  0  0  0
 30 31  1  0  0  0
 31 32  1  0  0  0
 32 33  1  0  0  0
 33 34  1  0  0  0
 34 35  1  0  0  0
 34 36  1  0  0  0
 36 37  1  0  0  0
  7  8  2  0  0  0
  8 23  1  0  0  0
 23 24  1  0  0  0
  8  9  1  0  0  0
  9 10  2  0  0  0
  2 25  1  0  0  0
 25 26  3  0  0  0
 15 16  2  0  0  0
 16 17  1  0  0  0
 16 18  1  0  0  0
 18 19  2  0  0  0
 19 20  1  0  0  0
 19 13  1  0  0  0
 10  1  1  0  0  0
 10  5  1  0  0  0
 37 31  1  0  0  0
 11 12  1  0  0  0
M  END
> <minimizedAffinity>
-7.14827

> <CNNscore>
0.4684294164

> <CNNaffinity>
7.3889036179

> <CNN_VS>
3.4611797333

> <CNNaffinity_variance>
0.1579225063

$$$$
[H]c1nc2c([H])c(OC([H])([H])C([H])([H])C([H])([H])N3C([H])([H])C([H])([H])N(C([H])([H])[H])C([H])([H])C3([H])[H])c(OC([H])([H])[H])c([H])c2c(N([H])c2c([H])c(OC([H])([H])[H])c(Cl)c([H])c2Cl)c1C#N


 37 40  0  0  0  0  0  0  0  0999 V2000
  -18.0013   12.7047  -21.0685 C   0  0  0  0  0  0  0  0  0  0  0  0
  -16.8993   12.0861  -21.6252 C   0  0  0  0  0  0  0  0  0  0  0  0
  -16.3135   11.0652  -20.8748 C   0  0  0  0  0  0  0  0  0  0  0  0
  -16.8005   10.7068  -19.6735 N   0  0  0  0  0  0  0  0  0  0  0  0
  -17.8757   11.3239  -19.1507 C   0  0  0  0  0  0  0  0  0  0  0  0
  -18.4068   10.9770  -17.9070 C   0  0  0  0  0  0  0  0  0  0  0  0
  -19.5102   11.6157  -17.3784 C   0  0  0  0  0  0  0  0  0  0  0  0
  -20.1238   12.6322  -18.0847 C   0  0  0  0  0  0  0  0  0  0  0  0
  -19.6151   12.9977  -19.3264 C   0  0  0  0  0  0  0  0  0  0  0  0
  -18.5107   12.3422  -19.8307 C   0  0  0  0  0  0  0  0  0  0  0  0
  -18.6100   13.7373  -21.8057 N   0  0  0  0  0  0  0  0  0  0  0  0
  -19.1754   13.5198  -22.6543 H   0  0  0  0  0  0  0  0  0  0  0  0
  -18.5668   16.8572  -19.7236 C   0  0  0  0  0  0  0  0  0  0  0  0
  -18.6716   15.5531  -20.1377 C   0  0  0  0  0  0  0  0  0  0  0  0
  -18.4858   15.1231  -21.4333 C   0  0  0  0  0  0  0  0  0  0  0  0
  -18.1725   16.0896  -22.3648 C   0  0  0  0  0  0  0  0  0  0  0  0
  -17.9120   15.6798  -24.0367 Cl  0  0  0  0  0  0  0  0  0  0  0  0
  -18.0530   17.4273  -22.0032 C   0  0  0  0  0  0  0  0  0  0  0  0
  -18.2484   17.8055  -20.6957 C   0  0  0  0  0  0  0  0  0  0  0  0
  -18.1158   19.4678  -20.1644 Cl  0  0  0  0  0  0  0  0  0  0  0  0
  -18.3319   16.3513  -17.3905 C   0  0  0  0  0  0  0  0  0  0  0  0
  -18.7631   17.2543  -18.3978 O   0  0  0  0  0  0  0  0  0  0  0  0
  -21.2178   13.2390  -17.5212 O   0  0  0  0  0  0  0  0  0  0  0  0
  -21.5758   14.5876  -17.7430 C   0  0  0  0  0  0  0  0  0  0  0  0
  -16.3756   12.4703  -22.9150 C   0  0  0  0  0  0  0  0  0  0  0  0
  -15.9496   12.7960  -23.9441 N   0  0  0  0  0  0  0  0  0  0  0  0
  -20.0204   11.2468  -16.1295 O   0  0  0  0  0  0  0  0  0  0  0  0
  -19.7373   11.9689  -14.9569 C   0  0  0  0  0  0  0  0  0  0  0  0
  -20.7208   11.5144  -13.8988 C   0  0  0  0  0  0  0  0  0  0  0  0
  -19.9408   10.7765  -12.8363 C   0  0  0  0  0  0  0  0  0  0  0  0
  -20.0772    9.3599  -12.9158 N   0  0  0  0  0  0  0  0  0  0  0  0
  -19.0811    8.7106  -13.7341 C   0  0  0  0  0  0  0  0  0  0  0  0
  -19.6948    7.9933  -14.9155 C   0  0  0  0  0  0  0  0  0  0  0  0
  -20.6548    6.9931  -14.4999 N   0  0  0  0  0  0  0  0  0  0  0  0
  -21.6672    6.9027  -15.5457 C   0  0  0  0  0  0  0  0  0  0  0  0
  -21.3474    7.3708  -13.2853 C   0  0  0  0  0  0  0  0  0  0  0  0
  -21.4034    8.8883  -13.1467 C   0  0  0  0  0  0  0  0  0  0  0  0
 21 22  1  0  0  0
 22 13  1  0  0  0
 13 14  2  0  0  0
 14 15  1  0  0  0
 15 11  1  0  0  0
 11  1  1  0  0  0
  1  2  2  0  0  0
  2  3  1  0  0  0
  3  4  2  0  0  0
  4  5  1  0  0  0
  5  6  2  0  0  0
  6  7  1  0  0  0
  7 27  1  0  0  0
 27 28  1  0  0  0
 28 29  1  0  0  0
 29 30  1  0  0  0
 30 31  1  0  0  0
 31 32  1  0  0  0
 32 33  1  0  0  0
 33 34  1  0  0  0
 34 35  1  0  0  0
 34 36  1  0  0  0
 36 37  1  0  0  0
  7  8  2  0  0  0
  8 23  1  0  0  0
 23 24  1  0  0  0
  8  9  1  0  0  0
  9 10  2  0  0  0
  2 25  1  0  0  0
 25 26  3  0  0  0
 15 16  2  0  0  0
 16 17  1  0  0  0
 16 18  1  0  0  0
 18 19  2  0  0  0
 19 20  1  0  0  0
 19 13  1  0  0  0
 10  1  1  0  0  0
 10  5  1  0  0  0
 37 31  1  0  0  0
 11 12  1  0  0  0
M  END
> <minimizedAffinity>
-6.73489

> <CNNscore>
0.4234782159

> <CNNaffinity>
7.2969751358

> <CNN_VS>
3.0901100636

> <CNNaffinity_variance>
0.1784115285

$$$$
[H]c1nc2c([H])c(OC([H])([H])C([H])([H])C([H])([H])N3C([H])([H])C([H])([H])N(C([H])([H])[H])C([H])([H])C3([H])[H])c(OC([H])([H])[H])c([H])c2c(N([H])c2c([H])c(OC([H])([H])[H])c(Cl)c([H])c2Cl)c1C#N


 37 40  0  0  0  0  0  0  0  0999 V2000
  -17.9967   13.7554  -21.8884 C   0  0  0  0  0  0  0  0  0  0  0  0
  -17.0744   13.2880  -22.8039 C   0  0  0  0  0  0  0  0  0  0  0  0
  -16.3979   12.1158  -22.4626 C   0  0  0  0  0  0  0  0  0  0  0  0
  -16.6353   11.4789  -21.3021 N   0  0  0  0  0  0  0  0  0  0  0  0
  -17.5387   11.9530  -20.4249 C   0  0  0  0  0  0  0  0  0  0  0  0
  -17.8095   11.3171  -19.2118 C   0  0  0  0  0  0  0  0  0  0  0  0
  -18.7380   11.8109  -18.3180 C   0  0  0  0  0  0  0  0  0  0  0  0
  -19.4325   12.9683  -18.6124 C   0  0  0  0  0  0  0  0  0  0  0  0
  -19.1821   13.6217  -19.8144 C   0  0  0  0  0  0  0  0  0  0  0  0
  -18.2484   13.1059  -20.6893 C   0  0  0  0  0  0  0  0  0  0  0  0
  -18.6921   14.9359  -22.2095 N   0  0  0  0  0  0  0  0  0  0  0  0
  -19.2176   15.0136  -23.1066 H   0  0  0  0  0  0  0  0  0  0  0  0
  -19.9525   17.5897  -19.8771 C   0  0  0  0  0  0  0  0  0  0  0  0
  -19.8702   16.5111  -20.7215 C   0  0  0  0  0  0  0  0  0  0  0  0
  -18.7135   16.0777  -21.3317 C   0  0  0  0  0  0  0  0  0  0  0  0
  -17.5676   16.7940  -21.0602 C   0  0  0  0  0  0  0  0  0  0  0  0
  -16.0391   16.3514  -21.7666 Cl  0  0  0  0  0  0  0  0  0  0  0  0
  -17.5904   17.8961  -20.2122 C   0  0  0  0  0  0  0  0  0  0  0  0
  -18.7714   18.2887  -19.6275 C   0  0  0  0  0  0  0  0  0  0  0  0
  -18.8798   19.6639  -18.5505 Cl  0  0  0  0  0  0  0  0  0  0  0  0
  -22.1116   18.6057  -20.1233 C   0  0  0  0  0  0  0  0  0  0  0  0
  -21.1468   17.9987  -19.2767 O   0  0  0  0  0  0  0  0  0  0  0  0
  -20.3460   13.4226  -17.6950 O   0  0  0  0  0  0  0  0  0  0  0  0
  -20.3705   14.7418  -17.1900 C   0  0  0  0  0  0  0  0  0  0  0  0
  -16.8187   13.9712  -24.0502 C   0  0  0  0  0  0  0  0  0  0  0  0
  -16.6194   14.5366  -25.0438 N   0  0  0  0  0  0  0  0  0  0  0  0
  -18.9885   11.1524  -17.1097 O   0  0  0  0  0  0  0  0  0  0  0  0
  -19.7091    9.9471  -17.0439 C   0  0  0  0  0  0  0  0  0  0  0  0
  -19.4577    9.3453  -15.6771 C   0  0  0  0  0  0  0  0  0  0  0  0
  -20.2286   10.1638  -14.6683 C   0  0  0  0  0  0  0  0  0  0  0  0
  -21.3491    9.4751  -14.1189 N   0  0  0  0  0  0  0  0  0  0  0  0
  -21.6887    8.2498  -14.8019 C   0  0  0  0  0  0  0  0  0  0  0  0
  -23.0767    8.2976  -15.4001 C   0  0  0  0  0  0  0  0  0  0  0  0
  -24.0886    8.5460  -14.3955 N   0  0  0  0  0  0  0  0  0  0  0  0
  -25.1693    9.2821  -15.0413 C   0  0  0  0  0  0  0  0  0  0  0  0
  -23.5994    9.3864  -13.3222 C   0  0  0  0  0  0  0  0  0  0  0  0
  -22.4777   10.2933  -13.8166 C   0  0  0  0  0  0  0  0  0  0  0  0
 21 22  1  0  0  0
 22 13  1  0  0  0
 13 14  2  0  0  0
 14 15  1  0  0  0
 15 11  1  0  0  0
 11  1  1  0  0  0
  1  2  2  0  0  0
  2  3  1  0  0  0
  3  4  2  0  0  0
  4  5  1  0  0  0
  5  6  2  0  0  0
  6  7  1  0  0  0
  7 27  1  0  0  0
 27 28  1  0  0  0
 28 29  1  0  0  0
 29 30  1  0  0  0
 30 31  1  0  0  0
 31 32  1  0  0  0
 32 33  1  0  0  0
 33 34  1  0  0  0
 34 35  1  0  0  0
 34 36  1  0  0  0
 36 37  1  0  0  0
  7  8  2  0  0  0
  8 23  1  0  0  0
 23 24  1  0  0  0
  8  9  1  0  0  0
  9 10  2  0  0  0
  2 25  1  0  0  0
 25 26  3  0  0  0
 15 16  2  0  0  0
 16 17  1  0  0  0
 16 18  1  0  0  0
 18 19  2  0  0  0
 19 20  1  0  0  0
 19 13  1  0  0  0
 10  1  1  0  0  0
 10  5  1  0  0  0
 37 31  1  0  0  0
 11 12  1  0  0  0
M  END
> <minimizedAffinity>
-6.65524

> <CNNscore>
0.2903456986

> <CNNaffinity>
7.3136849403

> <CNN_VS>
2.1234970093

> <CNNaffinity_variance>
0.4000946581

$$$$
[H]C([H])=C([H])C(=O)N1C([H])([H])C([H])([H])C([H])([H])[C@@]([H])(n2nc(-c3c([H])c([H])c(Oc4c([H])c([H])c([H])c([H])c4[H])c([H])c3[H])c3c(N([H])[H])nc([H])nc32)C1([H])[H]


 35 39  0  0  0  0  0  0  0  0999 V2000
  -16.7954   10.1132  -18.5841 N   0  0  0  0  0  0  0  0  0  0  0  0
  -16.3960   10.5839  -19.8619 C   0  0  0  0  0  0  0  0  0  0  0  0
  -15.4698    9.9435  -20.5869 N   0  0  0  0  0  0  0  0  0  0  0  0
  -15.1302   10.3807  -21.8098 C   0  0  0  0  0  0  0  0  0  0  0  0
  -15.6929   11.4631  -22.3583 N   0  0  0  0  0  0  0  0  0  0  0  0
  -16.6391   12.1599  -21.6776 C   0  0  0  0  0  0  0  0  0  0  0  0
  -17.3675   13.2324  -21.9488 N   0  0  0  0  0  0  0  0  0  0  0  0
  -18.1543   13.4926  -20.9403 N   0  0  0  0  0  0  0  0  0  0  0  0
  -17.9647   12.5870  -19.9605 C   0  0  0  0  0  0  0  0  0  0  0  0
  -17.0046   11.7147  -20.3938 C   0  0  0  0  0  0  0  0  0  0  0  0
  -17.7576    9.7013  -18.4715 H   0  0  0  0  0  0  0  0  0  0  0  0
  -16.1971   10.1455  -17.7352 H   0  0  0  0  0  0  0  0  0  0  0  0
  -17.3353   14.0387  -23.1536 C   0  0  0  0  0  0  0  0  0  0  0  0
  -15.9740   14.4978  -23.5362 C   0  0  0  0  0  0  0  0  0  0  0  0
  -15.7011   15.9352  -23.1718 C   0  0  0  0  0  0  0  0  0  0  0  0
  -16.6642   16.4903  -22.1949 C   0  0  0  0  0  0  0  0  0  0  0  0
  -18.0251   16.4003  -22.7876 N   0  0  0  0  0  0  0  0  0  0  0  0
  -18.4118   15.0859  -23.2218 C   0  0  0  0  0  0  0  0  0  0  0  0
  -18.8024   17.5800  -22.8766 C   0  0  0  0  0  0  0  0  0  0  0  0
  -18.2174   18.6726  -22.4293 O   0  0  0  0  0  0  0  0  0  0  0  0
  -20.1170   17.7935  -23.3688 C   0  0  0  0  0  0  0  0  0  0  0  0
  -20.8341   18.8595  -23.3965 C   0  0  0  0  0  0  0  0  0  0  0  0
  -18.6906   12.5398  -18.6855 C   0  0  0  0  0  0  0  0  0  0  0  0
  -18.5558   13.5960  -17.7806 C   0  0  0  0  0  0  0  0  0  0  0  0
  -19.1703   13.5437  -16.5596 C   0  0  0  0  0  0  0  0  0  0  0  0
  -19.9417   12.4767  -16.1513 C   0  0  0  0  0  0  0  0  0  0  0  0
  -20.0690   11.4344  -17.0553 C   0  0  0  0  0  0  0  0  0  0  0  0
  -19.4575   11.4757  -18.2811 C   0  0  0  0  0  0  0  0  0  0  0  0
  -20.5567   12.4459  -14.9063 O   0  0  0  0  0  0  0  0  0  0  0  0
  -20.5359   11.3637  -14.0595 C   0  0  0  0  0  0  0  0  0  0  0  0
  -19.4239   11.0145  -13.3174 C   0  0  0  0  0  0  0  0  0  0  0  0
  -19.4331    9.9211  -12.4745 C   0  0  0  0  0  0  0  0  0  0  0  0
  -20.5752    9.1438  -12.3570 C   0  0  0  0  0  0  0  0  0  0  0  0
  -21.6792    9.4768  -13.0832 C   0  0  0  0  0  0  0  0  0  0  0  0
  -21.6591   10.5657  -13.9179 C   0  0  0  0  0  0  0  0  0  0  0  0
  1  2  1  0  0  0
  2  3  2  0  0  0
  3  4  1  0  0  0
  4  5  2  0  0  0
  5  6  1  0  0  0
  6  7  1  0  0  0
  7  8  1  0  0  0
  8  9  2  0  0  0
  9 23  1  0  0  0
 23 24  2  0  0  0
 24 25  1  0  0  0
 25 26  2  0  0  0
 26 29  1  0  0  0
 29 30  1  0  0  0
 30 31  2  0  0  0
 31 32  1  0  0  0
 32 33  2  0  0  0
 33 34  1  0  0  0
 34 35  2  0  0  0
 26 27  1  0  0  0
 27 28  2  0  0  0
  9 10  1  0  0  0
  7 13  1  0  0  0
 13 14  1  0  0  0
 14 15  1  0  0  0
 15 16  1  0  0  0
 16 17  1  0  0  0
 17 18  1  0  0  0
 17 19  1  0  0  0
 19 20  2  0  0  0
 19 21  1  0  0  0
 21 22  2  0  0  0
 10  2  1  0  0  0
 18 13  1  0  0  0
 10  6  2  0  0  0
 28 23  1  0  0  0
 35 30  1  0  0  0
  1 11  1  0  0  0
  1 12  1  0  0  0
M  END
> <minimizedAffinity>
-8.42154

> <CNNscore>
0.7452245355

> <CNNaffinity>
7.3739509583

> <CNN_VS>
5.4952492714

> <CNNaffinity_variance>
0.0704744905

$$$$
[H]C([H])=C([H])C(=O)N1C([H])([H])C([H])([H])C([H])([H])[C@@]([H])(n2nc(-c3c([H])c([H])c(Oc4c([H])c([H])c([H])c([H])c4[H])c([H])c3[H])c3c(N([H])[H])nc([H])nc32)C1([H])[H]


 35 39  0  0  0  0  0  0  0  0999 V2000
  -17.2794    9.6436  -18.1777 N   0  0  0  0  0  0  0  0  0  0  0  0
  -16.9444   10.3388  -19.3687 C   0  0  0  0  0  0  0  0  0  0  0  0
  -16.0499    9.8504  -20.2375 N   0  0  0  0  0  0  0  0  0  0  0  0
  -15.7719   10.5020  -21.3777 C   0  0  0  0  0  0  0  0  0  0  0  0
  -16.3669   11.6561  -21.6991 N   0  0  0  0  0  0  0  0  0  0  0  0
  -17.2839   12.2075  -20.8629 C   0  0  0  0  0  0  0  0  0  0  0  0
  -18.0310   13.3003  -20.9057 N   0  0  0  0  0  0  0  0  0  0  0  0
  -18.7703   13.3664  -19.8320 N   0  0  0  0  0  0  0  0  0  0  0  0
  -18.5286   12.3046  -19.0382 C   0  0  0  0  0  0  0  0  0  0  0  0
  -17.5847   11.5369  -19.6630 C   0  0  0  0  0  0  0  0  0  0  0  0
  -18.2325    9.2043  -18.0960 H   0  0  0  0  0  0  0  0  0  0  0  0
  -16.6415    9.5340  -17.3649 H   0  0  0  0  0  0  0  0  0  0  0  0
  -18.0614   14.3074  -21.9485 C   0  0  0  0  0  0  0  0  0  0  0  0
  -16.7164   14.7147  -22.4334 C   0  0  0  0  0  0  0  0  0  0  0  0
  -16.2503   16.0340  -21.8716 C   0  0  0  0  0  0  0  0  0  0  0  0
  -17.0223   16.4792  -20.6902 C   0  0  0  0  0  0  0  0  0  0  0  0
  -18.4473   16.6113  -21.0941 N   0  0  0  0  0  0  0  0  0  0  0  0
  -19.0213   15.4346  -21.6872 C   0  0  0  0  0  0  0  0  0  0  0  0
  -19.1004   17.8474  -20.8721 C   0  0  0  0  0  0  0  0  0  0  0  0
  -18.3527   18.7881  -20.3316 O   0  0  0  0  0  0  0  0  0  0  0  0
  -20.4354   18.2549  -21.1329 C   0  0  0  0  0  0  0  0  0  0  0  0
  -21.0033   18.5953  -22.2342 C   0  0  0  0  0  0  0  0  0  0  0  0
  -19.1924   12.0219  -17.7599 C   0  0  0  0  0  0  0  0  0  0  0  0
  -19.7008   10.7427  -17.5198 C   0  0  0  0  0  0  0  0  0  0  0  0
  -20.3806   10.4741  -16.3634 C   0  0  0  0  0  0  0  0  0  0  0  0
  -20.6034   11.4197  -15.3855 C   0  0  0  0  0  0  0  0  0  0  0  0
  -20.0959   12.6850  -15.6330 C   0  0  0  0  0  0  0  0  0  0  0  0
  -19.4137   12.9656  -16.7881 C   0  0  0  0  0  0  0  0  0  0  0  0
  -21.2964   11.1237  -14.2187 O   0  0  0  0  0  0  0  0  0  0  0  0
  -20.6999   10.8839  -13.0041 C   0  0  0  0  0  0  0  0  0  0  0  0
  -19.6429   10.0077  -12.8486 C   0  0  0  0  0  0  0  0  0  0  0  0
  -19.0637    9.7873  -11.6149 C   0  0  0  0  0  0  0  0  0  0  0  0
  -19.5404   10.4512  -10.4949 C   0  0  0  0  0  0  0  0  0  0  0  0
  -20.5825   11.3182  -10.6338 C   0  0  0  0  0  0  0  0  0  0  0  0
  -21.1507   11.5298  -11.8648 C   0  0  0  0  0  0  0  0  0  0  0  0
  1  2  1  0  0  0
  2  3  2  0  0  0
  3  4  1  0  0  0
  4  5  2  0  0  0
  5  6  1  0  0  0
  6  7  1  0  0  0
  7  8  1  0  0  0
  8  9  2  0  0  0
  9 23  1  0  0  0
 23 24  2  0  0  0
 24 25  1  0  0  0
 25 26  2  0  0  0
 26 29  1  0  0  0
 29 30  1  0  0  0
 30 31  2  0  0  0
 31 32  1  0  0  0
 32 33  2  0  0  0
 33 34  1  0  0  0
 34 35  2  0  0  0
 26 27  1  0  0  0
 27 28  2  0  0  0
  9 10  1  0  0  0
  7 13  1  0  0  0
 13 14  1  0  0  0
 14 15  1  0  0  0
 15 16  1  0  0  0
 16 17  1  0  0  0
 17 18  1  0  0  0
 17 19  1  0  0  0
 19 20  2  0  0  0
 19 21  1  0  0  0
 21 22  2  0  0  0
 10  2  1  0  0  0
 18 13  1  0  0  0
 10  6  2  0  0  0
 28 23  1  0  0  0
 35 30  1  0  0  0
  1 11  1  0  0  0
  1 12  1  0  0  0
M  END
> <minimizedAffinity>
-8.48108

> <CNNscore>
0.7079180479

> <CNNaffinity>
7.2366418839

> <CNN_VS>
5.1229496002

> <CNNaffinity_variance>
0.0924053490

$$$$
[H]C([H])=C([H])C(=O)N1C([H])([H])C([H])([H])C([H])([H])[C@@]([H])(n2nc(-c3c([H])c([H])c(Oc4c([H])c([H])c([H])c([H])c4[H])c([H])c3[H])c3c(N([H])[H])nc([H])nc32)C1([H])[H]


 35 39  0  0  0  0  0  0  0  0999 V2000
  -17.4534    9.5014  -18.1668 N   0  0  0  0  0  0  0  0  0  0  0  0
  -17.1290   10.2975  -19.2959 C   0  0  0  0  0  0  0  0  0  0  0  0
  -16.2372    9.8900  -20.2081 N   0  0  0  0  0  0  0  0  0  0  0  0
  -15.9692   10.6380  -21.2901 C   0  0  0  0  0  0  0  0  0  0  0  0
  -16.5718   11.8120  -21.5085 N   0  0  0  0  0  0  0  0  0  0  0  0
  -17.4865   12.2850  -20.6232 C   0  0  0  0  0  0  0  0  0  0  0  0
  -18.2393   13.3734  -20.5685 N   0  0  0  0  0  0  0  0  0  0  0  0
  -18.9726   13.3436  -19.4891 N   0  0  0  0  0  0  0  0  0  0  0  0
  -18.7208   12.2193  -18.7901 C   0  0  0  0  0  0  0  0  0  0  0  0
  -17.7769   11.5128  -19.4833 C   0  0  0  0  0  0  0  0  0  0  0  0
  -18.4038    9.0516  -18.1176 H   0  0  0  0  0  0  0  0  0  0  0  0
  -16.8101    9.3264  -17.3699 H   0  0  0  0  0  0  0  0  0  0  0  0
  -18.2809   14.4657  -21.5214 C   0  0  0  0  0  0  0  0  0  0  0  0
  -16.9412   14.9127  -21.9857 C   0  0  0  0  0  0  0  0  0  0  0  0
  -16.4671   16.1793  -21.3193 C   0  0  0  0  0  0  0  0  0  0  0  0
  -17.2246   16.5223  -20.0951 C   0  0  0  0  0  0  0  0  0  0  0  0
  -18.6542   16.6885  -20.4694 N   0  0  0  0  0  0  0  0  0  0  0  0
  -19.2364   15.5666  -21.1536 C   0  0  0  0  0  0  0  0  0  0  0  0
  -19.3032   17.9013  -20.1352 C   0  0  0  0  0  0  0  0  0  0  0  0
  -18.5481   18.7924  -19.5255 O   0  0  0  0  0  0  0  0  0  0  0  0
  -20.6407   18.3296  -20.3445 C   0  0  0  0  0  0  0  0  0  0  0  0
  -21.6871   18.1836  -19.6130 C   0  0  0  0  0  0  0  0  0  0  0  0
  -19.3757   11.8250  -17.5369 C   0  0  0  0  0  0  0  0  0  0  0  0
  -19.4171   12.7283  -16.4716 C   0  0  0  0  0  0  0  0  0  0  0  0
  -19.9639   12.3599  -15.2730 C   0  0  0  0  0  0  0  0  0  0  0  0
  -20.4953   11.1092  -15.0419 C   0  0  0  0  0  0  0  0  0  0  0  0
  -20.4491   10.2207  -16.1041 C   0  0  0  0  0  0  0  0  0  0  0  0
  -19.9034   10.5786  -17.3092 C   0  0  0  0  0  0  0  0  0  0  0  0
  -21.0458   10.7576  -13.8161 O   0  0  0  0  0  0  0  0  0  0  0  0
  -20.3162   10.3174  -12.7378 C   0  0  0  0  0  0  0  0  0  0  0  0
  -19.5097    9.1966  -12.7865 C   0  0  0  0  0  0  0  0  0  0  0  0
  -18.7881    8.7785  -11.6862 C   0  0  0  0  0  0  0  0  0  0  0  0
  -18.8619    9.4869  -10.4966 C   0  0  0  0  0  0  0  0  0  0  0  0
  -19.6537   10.5943  -10.4346 C   0  0  0  0  0  0  0  0  0  0  0  0
  -20.3666   11.0009  -11.5343 C   0  0  0  0  0  0  0  0  0  0  0  0
  1  2  1  0  0  0
  2  3  2  0  0  0
  3  4  1  0  0  0
  4  5  2  0  0  0
  5  6  1  0  0  0
  6  7  1  0  0  0
  7  8  1  0  0  0
  8  9  2  0  0  0
  9 23  1  0  0  0
 23 24  2  0  0  0
 24 25  1  0  0  0
 25 26  2  0  0  0
 26 29  1  0  0  0
 29 30  1  0  0  0
 30 31  2  0  0  0
 31 32  1  0  0  0
 32 33  2  0  0  0
 33 34  1  0  0  0
 34 35  2  0  0  0
 26 27  1  0  0  0
 27 28  2  0  0  0
  9 10  1  0  0  0
  7 13  1  0  0  0
 13 14  1  0  0  0
 14 15  1  0  0  0
 15 16  1  0  0  0
 16 17  1  0  0  0
 17 18  1  0  0  0
 17 19  1  0  0  0
 19 20  2  0  0  0
 19 21  1  0  0  0
 21 22  2  0  0  0
 10  2  1  0  0  0
 18 13  1  0  0  0
 10  6  2  0  0  0
 28 23  1  0  0  0
 35 30  1  0  0  0
  1 11  1  0  0  0
  1 12  1  0  0  0
M  END
> <minimizedAffinity>
-8.33311

> <CNNscore>
0.6915056705

> <CNNaffinity>
7.2017774582

> <CNN_VS>
4.9800701141

> <CNNaffinity_variance>
0.1101265773

$$$$
[H]C([H])=C([H])C(=O)N1C([H])([H])C([H])([H])C([H])([H])[C@@]([H])(n2nc(-c3c([H])c([H])c(Oc4c([H])c([H])c([H])c([H])c4[H])c([H])c3[H])c3c(N([H])[H])nc([H])nc32)C1([H])[H]


 35 39  0  0  0  0  0  0  0  0999 V2000
  -17.4386    9.6879  -18.6467 N   0  0  0  0  0  0  0  0  0  0  0  0
  -16.9213   10.4814  -19.7034 C   0  0  0  0  0  0  0  0  0  0  0  0
  -16.1022    9.9675  -20.6299 N   0  0  0  0  0  0  0  0  0  0  0  0
  -15.6515   10.7223  -21.6443 C   0  0  0  0  0  0  0  0  0  0  0  0
  -15.9938   12.0083  -21.7789 N   0  0  0  0  0  0  0  0  0  0  0  0
  -16.8211   12.5929  -20.8745 C   0  0  0  0  0  0  0  0  0  0  0  0
  -17.3368   13.8061  -20.7462 N   0  0  0  0  0  0  0  0  0  0  0  0
  -18.0957   13.8482  -19.6851 N   0  0  0  0  0  0  0  0  0  0  0  0
  -18.1023   12.6474  -19.0735 C   0  0  0  0  0  0  0  0  0  0  0  0
  -17.3005   11.8148  -19.8046 C   0  0  0  0  0  0  0  0  0  0  0  0
  -18.4619    9.4415  -18.6495 H   0  0  0  0  0  0  0  0  0  0  0  0
  -16.8712    9.3251  -17.8554 H   0  0  0  0  0  0  0  0  0  0  0  0
  -17.1228   14.9511  -21.6099 C   0  0  0  0  0  0  0  0  0  0  0  0
  -18.3770   15.6133  -22.0557 C   0  0  0  0  0  0  0  0  0  0  0  0
  -18.7734   15.2595  -23.4667 C   0  0  0  0  0  0  0  0  0  0  0  0
  -18.0754   14.0664  -23.9952 C   0  0  0  0  0  0  0  0  0  0  0  0
  -16.6135   14.3373  -23.9659 N   0  0  0  0  0  0  0  0  0  0  0  0
  -16.0946   14.7279  -22.6837 C   0  0  0  0  0  0  0  0  0  0  0  0
  -15.8764   14.1967  -25.1662 C   0  0  0  0  0  0  0  0  0  0  0  0
  -16.5838   13.8480  -26.2216 O   0  0  0  0  0  0  0  0  0  0  0  0
  -14.4925   14.3675  -25.4340 C   0  0  0  0  0  0  0  0  0  0  0  0
  -13.8287   15.4204  -25.7536 C   0  0  0  0  0  0  0  0  0  0  0  0
  -18.8648   12.3048  -17.8668 C   0  0  0  0  0  0  0  0  0  0  0  0
  -19.4792   11.0530  -17.7767 C   0  0  0  0  0  0  0  0  0  0  0  0
  -20.2487   10.7365  -16.6909 C   0  0  0  0  0  0  0  0  0  0  0  0
  -20.4637   11.6058  -15.6429 C   0  0  0  0  0  0  0  0  0  0  0  0
  -19.8507   12.8444  -15.7417 C   0  0  0  0  0  0  0  0  0  0  0  0
  -19.0780   13.1725  -16.8249 C   0  0  0  0  0  0  0  0  0  0  0  0
  -21.2490   11.2621  -14.5500 O   0  0  0  0  0  0  0  0  0  0  0  0
  -20.7644   11.0713  -13.2782 C   0  0  0  0  0  0  0  0  0  0  0  0
  -19.6333   10.3238  -13.0119 C   0  0  0  0  0  0  0  0  0  0  0  0
  -19.1702   10.1498  -11.7230 C   0  0  0  0  0  0  0  0  0  0  0  0
  -19.8425   10.7308  -10.6587 C   0  0  0  0  0  0  0  0  0  0  0  0
  -20.9597   11.4707  -10.9070 C   0  0  0  0  0  0  0  0  0  0  0  0
  -21.4111   11.6372  -12.1920 C   0  0  0  0  0  0  0  0  0  0  0  0
  1  2  1  0  0  0
  2  3  2  0  0  0
  3  4  1  0  0  0
  4  5  2  0  0  0
  5  6  1  0  0  0
  6  7  1  0  0  0
  7  8  1  0  0  0
  8  9  2  0  0  0
  9 23  1  0  0  0
 23 24  2  0  0  0
 24 25  1  0  0  0
 25 26  2  0  0  0
 26 29  1  0  0  0
 29 30  1  0  0  0
 30 31  2  0  0  0
 31 32  1  0  0  0
 32 33  2  0  0  0
 33 34  1  0  0  0
 34 35  2  0  0  0
 26 27  1  0  0  0
 27 28  2  0  0  0
  9 10  1  0  0  0
  7 13  1  0  0  0
 13 14  1  0  0  0
 14 15  1  0  0  0
 15 16  1  0  0  0
 16 17  1  0  0  0
 17 18  1  0  0  0
 17 19  1  0  0  0
 19 20  2  0  0  0
 19 21  1  0  0  0
 21 22  2  0  0  0
 10  2  1  0  0  0
 18 13  1  0  0  0
 10  6  2  0  0  0
 28 23  1  0  0  0
 35 30  1  0  0  0
  1 11  1  0  0  0
  1 12  1  0  0  0
M  END
> <minimizedAffinity>
-8.34926

> <CNNscore>
0.6863499284

> <CNNaffinity>
7.4016098976

> <CNN_VS>
5.0800943375

> <CNNaffinity_variance>
0.2433789670

$$$$
[H]C([H])=C([H])C(=O)N1C([H])([H])C([H])([H])C([H])([H])[C@@]([H])(n2nc(-c3c([H])c([H])c(Oc4c([H])c([H])c([H])c([H])c4[H])c([H])c3[H])c3c(N([H])[H])nc([H])nc32)C1([H])[H]


 35 39  0  0  0  0  0  0  0  0999 V2000
  -16.7385   10.0027  -18.7221 N   0  0  0  0  0  0  0  0  0  0  0  0
  -16.4393   10.6203  -19.9643 C   0  0  0  0  0  0  0  0  0  0  0  0
  -15.5627   10.0818  -20.8218 N   0  0  0  0  0  0  0  0  0  0  0  0
  -15.3188   10.6588  -22.0090 C   0  0  0  0  0  0  0  0  0  0  0  0
  -15.9313   11.7852  -22.3901 N   0  0  0  0  0  0  0  0  0  0  0  0
  -16.8316   12.3843  -21.5687 C   0  0  0  0  0  0  0  0  0  0  0  0
  -17.5887   13.4669  -21.6640 N   0  0  0  0  0  0  0  0  0  0  0  0
  -18.3015   13.5985  -20.5785 N   0  0  0  0  0  0  0  0  0  0  0  0
  -18.0310   12.5929  -19.7231 C   0  0  0  0  0  0  0  0  0  0  0  0
  -17.0967   11.7921  -20.3201 C   0  0  0  0  0  0  0  0  0  0  0  0
  -17.6855    9.5634  -18.5875 H   0  0  0  0  0  0  0  0  0  0  0  0
  -16.0795    9.9511  -17.9205 H   0  0  0  0  0  0  0  0  0  0  0  0
  -17.6537   14.4030  -22.7696 C   0  0  0  0  0  0  0  0  0  0  0  0
  -16.3276   14.9135  -23.2066 C   0  0  0  0  0  0  0  0  0  0  0  0
  -16.0253   16.3034  -22.7066 C   0  0  0  0  0  0  0  0  0  0  0  0
  -16.9058   16.7378  -21.5994 C   0  0  0  0  0  0  0  0  0  0  0  0
  -18.3102   16.7030  -22.0869 N   0  0  0  0  0  0  0  0  0  0  0  0
  -18.7316   15.4421  -22.6331 C   0  0  0  0  0  0  0  0  0  0  0  0
  -19.0915   17.8786  -21.9802 C   0  0  0  0  0  0  0  0  0  0  0  0
  -18.4715   18.9193  -21.4619 O   0  0  0  0  0  0  0  0  0  0  0  0
  -20.4415   18.1347  -22.3379 C   0  0  0  0  0  0  0  0  0  0  0  0
  -20.9779   18.3199  -23.4909 C   0  0  0  0  0  0  0  0  0  0  0  0
  -18.6603   12.3905  -18.4125 C   0  0  0  0  0  0  0  0  0  0  0  0
  -19.2009   11.1411  -18.0974 C   0  0  0  0  0  0  0  0  0  0  0  0
  -19.8497   10.9478  -16.9087 C   0  0  0  0  0  0  0  0  0  0  0  0
  -20.0092   11.9435  -15.9688 C   0  0  0  0  0  0  0  0  0  0  0  0
  -19.4701   13.1786  -16.2906 C   0  0  0  0  0  0  0  0  0  0  0  0
  -18.8185   13.3839  -17.4786 C   0  0  0  0  0  0  0  0  0  0  0  0
  -20.6717   11.7236  -14.7680 O   0  0  0  0  0  0  0  0  0  0  0  0
  -21.5512   10.6910  -14.5471 C   0  0  0  0  0  0  0  0  0  0  0  0
  -21.2639    9.6281  -13.7121 C   0  0  0  0  0  0  0  0  0  0  0  0
  -22.1681    8.6046  -13.5097 C   0  0  0  0  0  0  0  0  0  0  0  0
  -23.3975    8.6266  -14.1504 C   0  0  0  0  0  0  0  0  0  0  0  0
  -23.6939    9.6689  -14.9768 C   0  0  0  0  0  0  0  0  0  0  0  0
  -22.7878   10.6809  -15.1707 C   0  0  0  0  0  0  0  0  0  0  0  0
  1  2  1  0  0  0
  2  3  2  0  0  0
  3  4  1  0  0  0
  4  5  2  0  0  0
  5  6  1  0  0  0
  6  7  1  0  0  0
  7  8  1  0  0  0
  8  9  2  0  0  0
  9 23  1  0  0  0
 23 24  2  0  0  0
 24 25  1  0  0  0
 25 26  2  0  0  0
 26 29  1  0  0  0
 29 30  1  0  0  0
 30 31  2  0  0  0
 31 32  1  0  0  0
 32 33  2  0  0  0
 33 34  1  0  0  0
 34 35  2  0  0  0
 26 27  1  0  0  0
 27 28  2  0  0  0
  9 10  1  0  0  0
  7 13  1  0  0  0
 13 14  1  0  0  0
 14 15  1  0  0  0
 15 16  1  0  0  0
 16 17  1  0  0  0
 17 18  1  0  0  0
 17 19  1  0  0  0
 19 20  2  0  0  0
 19 21  1  0  0  0
 21 22  2  0  0  0
 10  2  1  0  0  0
 18 13  1  0  0  0
 10  6  2  0  0  0
 28 23  1  0  0  0
 35 30  1  0  0  0
  1 11  1  0  0  0
  1 12  1  0  0  0
M  END
> <minimizedAffinity>
-8.20677

> <CNNscore>
0.6859511137

> <CNNaffinity>
7.3111467361

> <CNN_VS>
5.0150890350

> <CNNaffinity_variance>
0.1239969283

$$$$
[H]C([H])=C([H])C(=O)N1C([H])([H])C([H])([H])C([H])([H])[C@@]([H])(n2nc(-c3c([H])c([H])c(Oc4c([H])c([H])c([H])c([H])c4[H])c([H])c3[H])c3c(N([H])[H])nc([H])nc32)C1([H])[H]


 35 39  0  0  0  0  0  0  0  0999 V2000
  -17.6253    9.4839  -17.6626 N   0  0  0  0  0  0  0  0  0  0  0  0
  -17.6397   10.3898  -18.7550 C   0  0  0  0  0  0  0  0  0  0  0  0
  -16.8333   10.2266  -19.8117 N   0  0  0  0  0  0  0  0  0  0  0  0
  -16.8857   11.0712  -20.8537 C   0  0  0  0  0  0  0  0  0  0  0  0
  -17.7349   12.1040  -20.8885 N   0  0  0  0  0  0  0  0  0  0  0  0
  -18.5806   12.3278  -19.8497 C   0  0  0  0  0  0  0  0  0  0  0  0
  -19.5169   13.2310  -19.6015 N   0  0  0  0  0  0  0  0  0  0  0  0
  -20.0578   12.9911  -18.4380 N   0  0  0  0  0  0  0  0  0  0  0  0
  -19.4855   11.9078  -17.8767 C   0  0  0  0  0  0  0  0  0  0  0  0
  -18.5363   11.4518  -18.7494 C   0  0  0  0  0  0  0  0  0  0  0  0
  -18.4491    8.8440  -17.5215 H   0  0  0  0  0  0  0  0  0  0  0  0
  -16.8470    9.4040  -16.9789 H   0  0  0  0  0  0  0  0  0  0  0  0
  -19.9178   14.3404  -20.4449 C   0  0  0  0  0  0  0  0  0  0  0  0
  -18.7815   15.1522  -20.9546 C   0  0  0  0  0  0  0  0  0  0  0  0
  -18.5867   16.4473  -20.2076 C   0  0  0  0  0  0  0  0  0  0  0  0
  -19.2952   16.4931  -18.9092 C   0  0  0  0  0  0  0  0  0  0  0  0
  -20.7475   16.3086  -19.1702 N   0  0  0  0  0  0  0  0  0  0  0  0
  -21.0847   15.1260  -19.9143 C   0  0  0  0  0  0  0  0  0  0  0  0
  -21.6504   17.2840  -18.6832 C   0  0  0  0  0  0  0  0  0  0  0  0
  -21.0949   18.2945  -18.0459 O   0  0  0  0  0  0  0  0  0  0  0  0
  -23.0659   17.3640  -18.7622 C   0  0  0  0  0  0  0  0  0  0  0  0
  -23.8231   17.8718  -19.6679 C   0  0  0  0  0  0  0  0  0  0  0  0
  -19.8519   11.3189  -16.5830 C   0  0  0  0  0  0  0  0  0  0  0  0
  -19.5608   12.0141  -15.4064 C   0  0  0  0  0  0  0  0  0  0  0  0
  -19.8335   11.4562  -14.1875 C   0  0  0  0  0  0  0  0  0  0  0  0
  -20.3976   10.2068  -14.0420 C   0  0  0  0  0  0  0  0  0  0  0  0
  -20.6822    9.5254  -15.2143 C   0  0  0  0  0  0  0  0  0  0  0  0
  -20.4129   10.0743  -16.4409 C   0  0  0  0  0  0  0  0  0  0  0  0
  -20.6661    9.6606  -12.7935 O   0  0  0  0  0  0  0  0  0  0  0  0
  -19.7498    9.5757  -11.7727 C   0  0  0  0  0  0  0  0  0  0  0  0
  -18.7918    8.5821  -11.7069 C   0  0  0  0  0  0  0  0  0  0  0  0
  -17.8841    8.5226  -10.6683 C   0  0  0  0  0  0  0  0  0  0  0  0
  -17.9193    9.4729   -9.6593 C   0  0  0  0  0  0  0  0  0  0  0  0
  -18.8590   10.4584   -9.7117 C   0  0  0  0  0  0  0  0  0  0  0  0
  -19.7564   10.5081  -10.7486 C   0  0  0  0  0  0  0  0  0  0  0  0
  1  2  1  0  0  0
  2  3  2  0  0  0
  3  4  1  0  0  0
  4  5  2  0  0  0
  5  6  1  0  0  0
  6  7  1  0  0  0
  7  8  1  0  0  0
  8  9  2  0  0  0
  9 23  1  0  0  0
 23 24  2  0  0  0
 24 25  1  0  0  0
 25 26  2  0  0  0
 26 29  1  0  0  0
 29 30  1  0  0  0
 30 31  2  0  0  0
 31 32  1  0  0  0
 32 33  2  0  0  0
 33 34  1  0  0  0
 34 35  2  0  0  0
 26 27  1  0  0  0
 27 28  2  0  0  0
  9 10  1  0  0  0
  7 13  1  0  0  0
 13 14  1  0  0  0
 14 15  1  0  0  0
 15 16  1  0  0  0
 16 17  1  0  0  0
 17 18  1  0  0  0
 17 19  1  0  0  0
 19 20  2  0  0  0
 19 21  1  0  0  0
 21 22  2  0  0  0
 10  2  1  0  0  0
 18 13  1  0  0  0
 10  6  2  0  0  0
 28 23  1  0  0  0
 35 30  1  0  0  0
  1 11  1  0  0  0
  1 12  1  0  0  0
M  END
> <minimizedAffinity>
-7.75583

> <CNNscore>
0.5938426852

> <CNNaffinity>
7.0497307777

> <CNN_VS>
4.1864309311

> <CNNaffinity_variance>
0.3090041280

$$$$
[H]C([H])=C([H])C(=O)N1C([H])([H])C([H])([H])C([H])([H])[C@@]([H])(n2nc(-c3c([H])c([H])c(Oc4c([H])c([H])c([H])c([H])c4[H])c([H])c3[H])c3c(N([H])[H])nc([H])nc32)C1([H])[H]


 35 39  0  0  0  0  0  0  0  0999 V2000
  -17.2224    9.8883  -19.5343 N   0  0  0  0  0  0  0  0  0  0  0  0
  -16.7450   10.8075  -20.5044 C   0  0  0  0  0  0  0  0  0  0  0  0
  -15.8241   10.4552  -21.4107 N   0  0  0  0  0  0  0  0  0  0  0  0
  -15.4106   11.3255  -22.3453 C   0  0  0  0  0  0  0  0  0  0  0  0
  -15.8917   12.5716  -22.4174 N   0  0  0  0  0  0  0  0  0  0  0  0
  -16.8277   12.9946  -21.5291 C   0  0  0  0  0  0  0  0  0  0  0  0
  -17.4862   14.1304  -21.3545 N   0  0  0  0  0  0  0  0  0  0  0  0
  -18.3000   14.0122  -20.3409 N   0  0  0  0  0  0  0  0  0  0  0  0
  -18.2001   12.7779  -19.8093 C   0  0  0  0  0  0  0  0  0  0  0  0
  -17.2700   12.0940  -20.5425 C   0  0  0  0  0  0  0  0  0  0  0  0
  -18.2088    9.5300  -19.6150 H   0  0  0  0  0  0  0  0  0  0  0  0
  -16.6595    9.5361  -18.7351 H   0  0  0  0  0  0  0  0  0  0  0  0
  -17.3606   15.3504  -22.1282 C   0  0  0  0  0  0  0  0  0  0  0  0
  -18.6602   15.9202  -22.5714 C   0  0  0  0  0  0  0  0  0  0  0  0
  -18.9791   15.6338  -24.0169 C   0  0  0  0  0  0  0  0  0  0  0  0
  -18.1526   14.5545  -24.6019 C   0  0  0  0  0  0  0  0  0  0  0  0
  -16.7258   14.9612  -24.5015 N   0  0  0  0  0  0  0  0  0  0  0  0
  -16.2849   15.3053  -23.1775 C   0  0  0  0  0  0  0  0  0  0  0  0
  -15.9441   14.9794  -25.6815 C   0  0  0  0  0  0  0  0  0  0  0  0
  -16.5832   14.6423  -26.7833 O   0  0  0  0  0  0  0  0  0  0  0  0
  -14.5764   15.3008  -25.8871 C   0  0  0  0  0  0  0  0  0  0  0  0
  -13.5155   14.8140  -25.3495 C   0  0  0  0  0  0  0  0  0  0  0  0
  -18.9807   12.2677  -18.6757 C   0  0  0  0  0  0  0  0  0  0  0  0
  -19.9687   13.0747  -18.1053 C   0  0  0  0  0  0  0  0  0  0  0  0
  -20.6635   12.6463  -17.0076 C   0  0  0  0  0  0  0  0  0  0  0  0
  -20.4423   11.4252  -16.4074 C   0  0  0  0  0  0  0  0  0  0  0  0
  -19.4606   10.6326  -16.9800 C   0  0  0  0  0  0  0  0  0  0  0  0
  -18.7579   11.0517  -18.0795 C   0  0  0  0  0  0  0  0  0  0  0  0
  -21.1608   11.0111  -15.2932 O   0  0  0  0  0  0  0  0  0  0  0  0
  -21.5992    9.7247  -15.0892 C   0  0  0  0  0  0  0  0  0  0  0  0
  -22.7836    9.2448  -15.6147 C   0  0  0  0  0  0  0  0  0  0  0  0
  -23.1981    7.9467  -15.3925 C   0  0  0  0  0  0  0  0  0  0  0  0
  -22.4212    7.0906  -14.6271 C   0  0  0  0  0  0  0  0  0  0  0  0
  -21.2506    7.5508  -14.1027 C   0  0  0  0  0  0  0  0  0  0  0  0
  -20.8482    8.8428  -14.3298 C   0  0  0  0  0  0  0  0  0  0  0  0
  1  2  1  0  0  0
  2  3  2  0  0  0
  3  4  1  0  0  0
  4  5  2  0  0  0
  5  6  1  0  0  0
  6  7  1  0  0  0
  7  8  1  0  0  0
  8  9  2  0  0  0
  9 23  1  0  0  0
 23 24  2  0  0  0
 24 25  1  0  0  0
 25 26  2  0  0  0
 26 29  1  0  0  0
 29 30  1  0  0  0
 30 31  2  0  0  0
 31 32  1  0  0  0
 32 33  2  0  0  0
 33 34  1  0  0  0
 34 35  2  0  0  0
 26 27  1  0  0  0
 27 28  2  0  0  0
  9 10  1  0  0  0
  7 13  1  0  0  0
 13 14  1  0  0  0
 14 15  1  0  0  0
 15 16  1  0  0  0
 16 17  1  0  0  0
 17 18  1  0  0  0
 17 19  1  0  0  0
 19 20  2  0  0  0
 19 21  1  0  0  0
 21 22  2  0  0  0
 10  2  1  0  0  0
 18 13  1  0  0  0
 10  6  2  0  0  0
 28 23  1  0  0  0
 35 30  1  0  0  0
  1 11  1  0  0  0
  1 12  1  0  0  0
M  END
> <minimizedAffinity>
-8.70896

> <CNNscore>
0.5775155425

> <CNNaffinity>
7.3435659409

> <CNN_VS>
4.2410235405

> <CNNaffinity_variance>
0.2745484412

$$$$
[H]C([H])=C([H])C(=O)N1C([H])([H])C([H])([H])C([H])([H])[C@@]([H])(n2nc(-c3c([H])c([H])c(Oc4c([H])c([H])c([H])c([H])c4[H])c([H])c3[H])c3c(N([H])[H])nc([H])nc32)C1([H])[H]


 35 39  0  0  0  0  0  0  0  0999 V2000
  -16.8044   10.1240  -18.5038 N   0  0  0  0  0  0  0  0  0  0  0  0
  -16.5049   10.6722  -19.7780 C   0  0  0  0  0  0  0  0  0  0  0  0
  -15.6247   10.0899  -20.6025 N   0  0  0  0  0  0  0  0  0  0  0  0
  -15.3805   10.6005  -21.8197 C   0  0  0  0  0  0  0  0  0  0  0  0
  -15.9963   11.7015  -22.2643 N   0  0  0  0  0  0  0  0  0  0  0  0
  -16.9005   12.3422  -21.4793 C   0  0  0  0  0  0  0  0  0  0  0  0
  -17.6613   13.4149  -21.6364 N   0  0  0  0  0  0  0  0  0  0  0  0
  -18.3767   13.6044  -20.5612 N   0  0  0  0  0  0  0  0  0  0  0  0
  -18.1043   12.6493  -19.6505 C   0  0  0  0  0  0  0  0  0  0  0  0
  -17.1659   11.8198  -20.2000 C   0  0  0  0  0  0  0  0  0  0  0  0
  -17.7501    9.6893  -18.3464 H   0  0  0  0  0  0  0  0  0  0  0  0
  -16.1468   10.1198  -17.6993 H   0  0  0  0  0  0  0  0  0  0  0  0
  -17.7274   14.2875  -22.7927 C   0  0  0  0  0  0  0  0  0  0  0  0
  -16.3997   14.6272  -23.3689 C   0  0  0  0  0  0  0  0  0  0  0  0
  -15.9149   16.0033  -22.9885 C   0  0  0  0  0  0  0  0  0  0  0  0
  -16.6461   16.5923  -21.8447 C   0  0  0  0  0  0  0  0  0  0  0  0
  -18.0841   16.6799  -22.2132 N   0  0  0  0  0  0  0  0  0  0  0  0
  -18.6779   15.4420  -22.6385 C   0  0  0  0  0  0  0  0  0  0  0  0
  -18.7294   17.9366  -22.1217 C   0  0  0  0  0  0  0  0  0  0  0  0
  -17.9638   18.9331  -21.7256 O   0  0  0  0  0  0  0  0  0  0  0  0
  -20.0725   18.3146  -22.3848 C   0  0  0  0  0  0  0  0  0  0  0  0
  -20.6744   18.5326  -23.4990 C   0  0  0  0  0  0  0  0  0  0  0  0
  -18.7354   12.5182  -18.3317 C   0  0  0  0  0  0  0  0  0  0  0  0
  -19.5052   11.3866  -18.0497 C   0  0  0  0  0  0  0  0  0  0  0  0
  -20.1560   11.2734  -16.8518 C   0  0  0  0  0  0  0  0  0  0  0  0
  -20.0982   12.2399  -15.8706 C   0  0  0  0  0  0  0  0  0  0  0  0
  -19.3329   13.3581  -16.1599 C   0  0  0  0  0  0  0  0  0  0  0  0
  -18.6768   13.4825  -17.3567 C   0  0  0  0  0  0  0  0  0  0  0  0
  -20.7675   12.1030  -14.6613 O   0  0  0  0  0  0  0  0  0  0  0  0
  -22.0640   12.5039  -14.4446 C   0  0  0  0  0  0  0  0  0  0  0  0
  -23.0511   11.6422  -14.0059 C   0  0  0  0  0  0  0  0  0  0  0  0
  -24.3456   12.0743  -13.7970 C   0  0  0  0  0  0  0  0  0  0  0  0
  -24.6816   13.3996  -14.0275 C   0  0  0  0  0  0  0  0  0  0  0  0
  -23.7179   14.2603  -14.4605 C   0  0  0  0  0  0  0  0  0  0  0  0
  -22.4344   13.8202  -14.6648 C   0  0  0  0  0  0  0  0  0  0  0  0
  1  2  1  0  0  0
  2  3  2  0  0  0
  3  4  1  0  0  0
  4  5  2  0  0  0
  5  6  1  0  0  0
  6  7  1  0  0  0
  7  8  1  0  0  0
  8  9  2  0  0  0
  9 23  1  0  0  0
 23 24  2  0  0  0
 24 25  1  0  0  0
 25 26  2  0  0  0
 26 29  1  0  0  0
 29 30  1  0  0  0
 30 31  2  0  0  0
 31 32  1  0  0  0
 32 33  2  0  0  0
 33 34  1  0  0  0
 34 35  2  0  0  0
 26 27  1  0  0  0
 27 28  2  0  0  0
  9 10  1  0  0  0
  7 13  1  0  0  0
 13 14  1  0  0  0
 14 15  1  0  0  0
 15 16  1  0  0  0
 16 17  1  0  0  0
 17 18  1  0  0  0
 17 19  1  0  0  0
 19 20  2  0  0  0
 19 21  1  0  0  0
 21 22  2  0  0  0
 10  2  1  0  0  0
 18 13  1  0  0  0
 10  6  2  0  0  0
 28 23  1  0  0  0
 35 30  1  0  0  0
  1 11  1  0  0  0
  1 12  1  0  0  0
M  END
> <minimizedAffinity>
-7.88051

> <CNNscore>
0.5498033762

> <CNNaffinity>
7.2279639244

> <CNN_VS>
3.9739589691

> <CNNaffinity_variance>
0.2063575983

$$$$
[H]C([H])=C([H])C(=O)N1C([H])([H])C([H])([H])C([H])([H])[C@@]([H])(n2nc(-c3c([H])c([H])c(Oc4c([H])c([H])c([H])c([H])c4[H])c([H])c3[H])c3c(N([H])[H])nc([H])nc32)C1([H])[H]


 35 39  0  0  0  0  0  0  0  0999 V2000
  -17.3195   10.4249  -20.8344 N   0  0  0  0  0  0  0  0  0  0  0  0
  -17.3055   11.8148  -21.1207 C   0  0  0  0  0  0  0  0  0  0  0  0
  -16.8121   12.2886  -22.2720 N   0  0  0  0  0  0  0  0  0  0  0  0
  -16.8405   13.6029  -22.5434 C   0  0  0  0  0  0  0  0  0  0  0  0
  -17.3567   14.4933  -21.6890 N   0  0  0  0  0  0  0  0  0  0  0  0
  -17.8738   14.0810  -20.5029 C   0  0  0  0  0  0  0  0  0  0  0  0
  -18.4495   14.6999  -19.4833 N   0  0  0  0  0  0  0  0  0  0  0  0
  -18.7842   13.8254  -18.5739 N   0  0  0  0  0  0  0  0  0  0  0  0
  -18.4335   12.5868  -18.9724 C   0  0  0  0  0  0  0  0  0  0  0  0
  -17.8497   12.7062  -20.2035 C   0  0  0  0  0  0  0  0  0  0  0  0
  -18.2414    9.9172  -20.8227 H   0  0  0  0  0  0  0  0  0  0  0  0
  -16.4709    9.8606  -20.6318 H   0  0  0  0  0  0  0  0  0  0  0  0
  -18.6902   16.1224  -19.3372 C   0  0  0  0  0  0  0  0  0  0  0  0
  -18.3403   16.6589  -17.9956 C   0  0  0  0  0  0  0  0  0  0  0  0
  -19.5377   16.8772  -17.1057 C   0  0  0  0  0  0  0  0  0  0  0  0
  -20.7579   16.1845  -17.5763 C   0  0  0  0  0  0  0  0  0  0  0  0
  -21.0786   16.6902  -18.9375 N   0  0  0  0  0  0  0  0  0  0  0  0
  -20.0093   16.5831  -19.8919 C   0  0  0  0  0  0  0  0  0  0  0  0
  -22.3689   17.2226  -19.1735 C   0  0  0  0  0  0  0  0  0  0  0  0
  -23.1714   17.2331  -18.1285 O   0  0  0  0  0  0  0  0  0  0  0  0
  -22.9557   17.7526  -20.3529 C   0  0  0  0  0  0  0  0  0  0  0  0
  -23.2786   17.1762  -21.4551 C   0  0  0  0  0  0  0  0  0  0  0  0
  -18.6749   11.3462  -18.2259 C   0  0  0  0  0  0  0  0  0  0  0  0
  -19.8106   11.2422  -17.4184 C   0  0  0  0  0  0  0  0  0  0  0  0
  -20.0223   10.1215  -16.6631 C   0  0  0  0  0  0  0  0  0  0  0  0
  -19.1549    9.0503  -16.6480 C   0  0  0  0  0  0  0  0  0  0  0  0
  -18.0317    9.1631  -17.4514 C   0  0  0  0  0  0  0  0  0  0  0  0
  -17.8091   10.2812  -18.2120 C   0  0  0  0  0  0  0  0  0  0  0  0
  -19.3909    7.9221  -15.8729 O   0  0  0  0  0  0  0  0  0  0  0  0
  -19.7964    7.9559  -14.5603 C   0  0  0  0  0  0  0  0  0  0  0  0
  -20.9672    7.3669  -14.1225 C   0  0  0  0  0  0  0  0  0  0  0  0
  -21.3485    7.4174  -12.7966 C   0  0  0  0  0  0  0  0  0  0  0  0
  -20.5513    8.0697  -11.8686 C   0  0  0  0  0  0  0  0  0  0  0  0
  -19.3939    8.6552  -12.2866 C   0  0  0  0  0  0  0  0  0  0  0  0
  -19.0244    8.5989  -13.6069 C   0  0  0  0  0  0  0  0  0  0  0  0
  1  2  1  0  0  0
  2  3  2  0  0  0
  3  4  1  0  0  0
  4  5  2  0  0  0
  5  6  1  0  0  0
  6  7  1  0  0  0
  7  8  1  0  0  0
  8  9  2  0  0  0
  9 23  1  0  0  0
 23 24  2  0  0  0
 24 25  1  0  0  0
 25 26  2  0  0  0
 26 29  1  0  0  0
 29 30  1  0  0  0
 30 31  2  0  0  0
 31 32  1  0  0  0
 32 33  2  0  0  0
 33 34  1  0  0  0
 34 35  2  0  0  0
 26 27  1  0  0  0
 27 28  2  0  0  0
  9 10  1  0  0  0
  7 13  1  0  0  0
 13 14  1  0  0  0
 14 15  1  0  0  0
 15 16  1  0  0  0
 16 17  1  0  0  0
 17 18  1  0  0  0
 17 19  1  0  0  0
 19 20  2  0  0  0
 19 21  1  0  0  0
 21 22  2  0  0  0
 10  2  1  0  0  0
 18 13  1  0  0  0
 10  6  2  0  0  0
 28 23  1  0  0  0
 35 30  1  0  0  0
  1 11  1  0  0  0
  1 12  1  0  0  0
M  END
> <minimizedAffinity>
-8.09604

> <CNNscore>
0.3850220740

> <CNNaffinity>
6.9653348923

> <CNN_VS>
2.6818077564

> <CNNaffinity_variance>
0.3165148795

$$$$
[H]c1c([H])c([H])c(C([H])([H])[H])c(N([H])c2nc3c([H])c(OC([H])([H])[H])c(N([H])C(=O)C#CC([H])([H])N4C([H])([H])C([H])([H])C([H])([H])C([H])([H])C4([H])[H])c([H])c3n3c([H])nc([H])c23)c1[H]


 37 41  0  0  0  0  0  0  0  0999 V2000
  -20.1102   14.1976  -19.3054 C   0  0  0  0  0  0  0  0  0  0  0  0
  -19.4471   14.2400  -20.5033 C   0  0  0  0  0  0  0  0  0  0  0  0
  -18.4660   13.3348  -20.8485 C   0  0  0  0  0  0  0  0  0  0  0  0
  -17.8145   13.3759  -22.0169 N   0  0  0  0  0  0  0  0  0  0  0  0
  -16.8505   12.5239  -22.4046 C   0  0  0  0  0  0  0  0  0  0  0  0
  -16.5218   11.5146  -21.4814 C   0  0  0  0  0  0  0  0  0  0  0  0
  -15.5972   10.5024  -21.5697 C   0  0  0  0  0  0  0  0  0  0  0  0
  -15.6929    9.8128  -20.3952 N   0  0  0  0  0  0  0  0  0  0  0  0
  -16.6342   10.3877  -19.6368 C   0  0  0  0  0  0  0  0  0  0  0  0
  -17.1519   11.4356  -20.2934 N   0  0  0  0  0  0  0  0  0  0  0  0
  -18.1076   12.3253  -19.9746 C   0  0  0  0  0  0  0  0  0  0  0  0
  -18.7900   12.2895  -18.7541 C   0  0  0  0  0  0  0  0  0  0  0  0
  -19.7663   13.1824  -18.3975 C   0  0  0  0  0  0  0  0  0  0  0  0
  -20.4547   13.1572  -17.1772 N   0  0  0  0  0  0  0  0  0  0  0  0
  -20.7983   12.0643  -16.3713 C   0  0  0  0  0  0  0  0  0  0  0  0
  -20.5135   10.8988  -16.6637 O   0  0  0  0  0  0  0  0  0  0  0  0
  -20.7886   14.1013  -16.7629 H   0  0  0  0  0  0  0  0  0  0  0  0
  -21.5243   12.2289  -15.1159 C   0  0  0  0  0  0  0  0  0  0  0  0
  -22.1375   12.3803  -14.0884 C   0  0  0  0  0  0  0  0  0  0  0  0
  -22.8920   12.5858  -12.8562 C   0  0  0  0  0  0  0  0  0  0  0  0
  -22.0359   12.4800  -11.7395 N   0  0  0  0  0  0  0  0  0  0  0  0
  -21.1970   11.3642  -11.7006 C   0  0  0  0  0  0  0  0  0  0  0  0
  -20.4957   11.0455  -10.4512 C   0  0  0  0  0  0  0  0  0  0  0  0
  -20.6510   12.0341   -9.3295 C   0  0  0  0  0  0  0  0  0  0  0  0
  -22.1421   12.3863   -9.2833 C   0  0  0  0  0  0  0  0  0  0  0  0
  -22.4587   13.0949  -10.5492 C   0  0  0  0  0  0  0  0  0  0  0  0
  -21.6525   16.0066  -19.9142 C   0  0  0  0  0  0  0  0  0  0  0  0
  -21.0985   15.1209  -18.9722 O   0  0  0  0  0  0  0  0  0  0  0  0
  -16.1571   12.5620  -23.6262 N   0  0  0  0  0  0  0  0  0  0  0  0
  -15.7153   11.6421  -23.9244 H   0  0  0  0  0  0  0  0  0  0  0  0
  -15.9624   13.6344  -24.5129 C   0  0  0  0  0  0  0  0  0  0  0  0
  -15.1166   14.6981  -24.3079 C   0  0  0  0  0  0  0  0  0  0  0  0
  -14.9669   15.7458  -25.2287 C   0  0  0  0  0  0  0  0  0  0  0  0
  -15.6891   15.7265  -26.3935 C   0  0  0  0  0  0  0  0  0  0  0  0
  -16.5376   14.6805  -26.6228 C   0  0  0  0  0  0  0  0  0  0  0  0
  -16.6854   13.6535  -25.7218 C   0  0  0  0  0  0  0  0  0  0  0  0
  -17.6081   12.5176  -25.9790 C   0  0  0  0  0  0  0  0  0  0  0  0
 27 28  1  0  0  0
 28  1  1  0  0  0
  1  2  2  0  0  0
  2  3  1  0  0  0
  3  4  1  0  0  0
  4  5  2  0  0  0
  5 29  1  0  0  0
 29 31  1  0  0  0
 31 32  2  0  0  0
 32 33  1  0  0  0
 33 34  2  0  0  0
 34 35  1  0  0  0
 35 36  2  0  0  0
 36 37  1  0  0  0
  5  6  1  0  0  0
  6  7  2  0  0  0
  7  8  1  0  0  0
  8  9  2  0  0  0
  9 10  1  0  0  0
 10 11  1  0  0  0
 11 12  1  0  0  0
 12 13  2  0  0  0
 13 14  1  0  0  0
 14 15  1  0  0  0
 15 16  2  0  0  0
 15 18  1  0  0  0
 18 19  3  0  0  0
 19 20  1  0  0  0
 20 21  1  0  0  0
 21 22  1  0  0  0
 22 23  1  0  0  0
 23 24  1  0  0  0
 24 25  1  0  0  0
 25 26  1  0  0  0
 13  1  1  0  0  0
 26 21  1  0  0  0
 11  3  2  0  0  0
 36 31  1  0  0  0
 10  6  1  0  0  0
 29 30  1  0  0  0
 14 17  1  0  0  0
M  END
> <minimizedAffinity>
-9.38573

> <CNNscore>
0.9540798068

> <CNNaffinity>
7.6093626022

> <CNN_VS>
7.2599391937

> <CNNaffinity_variance>
0.0218897946

$$$$
[H]c1c([H])c([H])c(C([H])([H])[H])c(N([H])c2nc3c([H])c(OC([H])([H])[H])c(N([H])C(=O)C#CC([H])([H])N4C([H])([H])C([H])([H])C([H])([H])C([H])([H])C4([H])[H])c([H])c3n3c([H])nc([H])c23)c1[H]


 37 41  0  0  0  0  0  0  0  0999 V2000
  -20.3240   14.3069  -19.6740 C   0  0  0  0  0  0  0  0  0  0  0  0
  -19.5242   14.3444  -20.7856 C   0  0  0  0  0  0  0  0  0  0  0  0
  -18.5347   13.4154  -21.0277 C   0  0  0  0  0  0  0  0  0  0  0  0
  -17.7499   13.4516  -22.1113 N   0  0  0  0  0  0  0  0  0  0  0  0
  -16.7709   12.5767  -22.3968 C   0  0  0  0  0  0  0  0  0  0  0  0
  -16.5803   11.5473  -21.4572 C   0  0  0  0  0  0  0  0  0  0  0  0
  -15.6798   10.5099  -21.4524 C   0  0  0  0  0  0  0  0  0  0  0  0
  -15.9313    9.8093  -20.3078 N   0  0  0  0  0  0  0  0  0  0  0  0
  -16.9388   10.4021  -19.6558 C   0  0  0  0  0  0  0  0  0  0  0  0
  -17.3471   11.4723  -20.3521 N   0  0  0  0  0  0  0  0  0  0  0  0
  -18.3089   12.3855  -20.1335 C   0  0  0  0  0  0  0  0  0  0  0  0
  -19.1302   12.3548  -19.0017 C   0  0  0  0  0  0  0  0  0  0  0  0
  -20.1167   13.2713  -18.7479 C   0  0  0  0  0  0  0  0  0  0  0  0
  -20.9437   13.2514  -17.6168 N   0  0  0  0  0  0  0  0  0  0  0  0
  -20.6454   12.8703  -16.3024 C   0  0  0  0  0  0  0  0  0  0  0  0
  -19.5285   12.4737  -15.9556 O   0  0  0  0  0  0  0  0  0  0  0  0
  -21.9732   13.5688  -17.7347 H   0  0  0  0  0  0  0  0  0  0  0  0
  -21.6446   12.9163  -15.2396 C   0  0  0  0  0  0  0  0  0  0  0  0
  -22.4541   12.9500  -14.3461 C   0  0  0  0  0  0  0  0  0  0  0  0
  -23.4145   12.9805  -13.2477 C   0  0  0  0  0  0  0  0  0  0  0  0
  -24.2380   11.8355  -13.2909 N   0  0  0  0  0  0  0  0  0  0  0  0
  -23.6501   10.6298  -12.9024 C   0  0  0  0  0  0  0  0  0  0  0  0
  -24.3510    9.3725  -13.1891 C   0  0  0  0  0  0  0  0  0  0  0  0
  -25.7259    9.4972  -13.7840 C   0  0  0  0  0  0  0  0  0  0  0  0
  -25.6134   10.5600  -14.8829 C   0  0  0  0  0  0  0  0  0  0  0  0
  -25.3003   11.8462  -14.2102 C   0  0  0  0  0  0  0  0  0  0  0  0
  -21.4724   16.3980  -20.2490 C   0  0  0  0  0  0  0  0  0  0  0  0
  -21.3189   15.2543  -19.4444 O   0  0  0  0  0  0  0  0  0  0  0  0
  -15.9384   12.6093  -23.5284 N   0  0  0  0  0  0  0  0  0  0  0  0
  -15.3464   11.7393  -23.6797 H   0  0  0  0  0  0  0  0  0  0  0  0
  -15.7734   13.6200  -24.4905 C   0  0  0  0  0  0  0  0  0  0  0  0
  -14.8224   14.6116  -24.4538 C   0  0  0  0  0  0  0  0  0  0  0  0
  -14.7084   15.6001  -25.4425 C   0  0  0  0  0  0  0  0  0  0  0  0
  -15.5765   15.5944  -26.5033 C   0  0  0  0  0  0  0  0  0  0  0  0
  -16.5319   14.6196  -26.5648 C   0  0  0  0  0  0  0  0  0  0  0  0
  -16.6449   13.6506  -25.5969 C   0  0  0  0  0  0  0  0  0  0  0  0
  -17.6847   12.5918  -25.6716 C   0  0  0  0  0  0  0  0  0  0  0  0
 27 28  1  0  0  0
 28  1  1  0  0  0
  1  2  2  0  0  0
  2  3  1  0  0  0
  3  4  1  0  0  0
  4  5  2  0  0  0
  5 29  1  0  0  0
 29 31  1  0  0  0
 31 32  2  0  0  0
 32 33  1  0  0  0
 33 34  2  0  0  0
 34 35  1  0  0  0
 35 36  2  0  0  0
 36 37  1  0  0  0
  5  6  1  0  0  0
  6  7  2  0  0  0
  7  8  1  0  0  0
  8  9  2  0  0  0
  9 10  1  0  0  0
 10 11  1  0  0  0
 11 12  1  0  0  0
 12 13  2  0  0  0
 13 14  1  0  0  0
 14 15  1  0  0  0
 15 16  2  0  0  0
 15 18  1  0  0  0
 18 19  3  0  0  0
 19 20  1  0  0  0
 20 21  1  0  0  0
 21 22  1  0  0  0
 22 23  1  0  0  0
 23 24  1  0  0  0
 24 25  1  0  0  0
 25 26  1  0  0  0
 13  1  1  0  0  0
 26 21  1  0  0  0
 11  3  2  0  0  0
 36 31  1  0  0  0
 10  6  1  0  0  0
 29 30  1  0  0  0
 14 17  1  0  0  0
M  END
> <minimizedAffinity>
-8.93953

> <CNNscore>
0.9425544739

> <CNNaffinity>
7.6407823563

> <CNN_VS>
7.2018537521

> <CNNaffinity_variance>
0.0120215174

$$$$
[H]c1c([H])c([H])c(C([H])([H])[H])c(N([H])c2nc3c([H])c(OC([H])([H])[H])c(N([H])C(=O)C#CC([H])([H])N4C([H])([H])C([H])([H])C([H])([H])C([H])([H])C4([H])[H])c([H])c3n3c([H])nc([H])c23)c1[H]


 37 41  0  0  0  0  0  0  0  0999 V2000
  -20.0387   14.2747  -19.2538 C   0  0  0  0  0  0  0  0  0  0  0  0
  -19.4023   14.2910  -20.4668 C   0  0  0  0  0  0  0  0  0  0  0  0
  -18.4358   13.3725  -20.8176 C   0  0  0  0  0  0  0  0  0  0  0  0
  -17.8103   13.3881  -22.0008 N   0  0  0  0  0  0  0  0  0  0  0  0
  -16.8614   12.5221  -22.3947 C   0  0  0  0  0  0  0  0  0  0  0  0
  -16.5194   11.5268  -21.4613 C   0  0  0  0  0  0  0  0  0  0  0  0
  -15.6042   10.5062  -21.5522 C   0  0  0  0  0  0  0  0  0  0  0  0
  -15.6785    9.8381  -20.3637 N   0  0  0  0  0  0  0  0  0  0  0  0
  -16.5984   10.4334  -19.5949 C   0  0  0  0  0  0  0  0  0  0  0  0
  -17.1232   11.4734  -20.2583 N   0  0  0  0  0  0  0  0  0  0  0  0
  -18.0651   12.3758  -19.9341 C   0  0  0  0  0  0  0  0  0  0  0  0
  -18.7202   12.3666  -18.6983 C   0  0  0  0  0  0  0  0  0  0  0  0
  -19.6819   13.2731  -18.3360 C   0  0  0  0  0  0  0  0  0  0  0  0
  -20.3429   13.2745  -17.1003 N   0  0  0  0  0  0  0  0  0  0  0  0
  -20.7609   12.1941  -16.3131 C   0  0  0  0  0  0  0  0  0  0  0  0
  -20.5834   11.0166  -16.6404 O   0  0  0  0  0  0  0  0  0  0  0  0
  -20.5856   14.2324  -16.6554 H   0  0  0  0  0  0  0  0  0  0  0  0
  -21.4424   12.3869  -15.0369 C   0  0  0  0  0  0  0  0  0  0  0  0
  -22.0128   12.5248  -13.9832 C   0  0  0  0  0  0  0  0  0  0  0  0
  -22.7156   12.6672  -12.7121 C   0  0  0  0  0  0  0  0  0  0  0  0
  -24.0046   13.1995  -12.9271 N   0  0  0  0  0  0  0  0  0  0  0  0
  -25.0294   12.2786  -13.1549 C   0  0  0  0  0  0  0  0  0  0  0  0
  -26.3197   12.7618  -13.6606 C   0  0  0  0  0  0  0  0  0  0  0  0
  -26.4714   14.2525  -13.7820 C   0  0  0  0  0  0  0  0  0  0  0  0
  -25.1765   14.7550  -14.4304 C   0  0  0  0  0  0  0  0  0  0  0  0
  -24.0797   14.4958  -13.4635 C   0  0  0  0  0  0  0  0  0  0  0  0
  -20.7058   16.5590  -18.6546 C   0  0  0  0  0  0  0  0  0  0  0  0
  -21.0127   15.2111  -18.9151 O   0  0  0  0  0  0  0  0  0  0  0  0
  -16.1953   12.5334  -23.6319 N   0  0  0  0  0  0  0  0  0  0  0  0
  -15.7854   11.5999  -23.9336 H   0  0  0  0  0  0  0  0  0  0  0  0
  -15.9920   13.5944  -24.5303 C   0  0  0  0  0  0  0  0  0  0  0  0
  -15.1350   14.6517  -24.3386 C   0  0  0  0  0  0  0  0  0  0  0  0
  -14.9770   15.6880  -25.2707 C   0  0  0  0  0  0  0  0  0  0  0  0
  -15.7022   15.6637  -26.4336 C   0  0  0  0  0  0  0  0  0  0  0  0
  -16.5617   14.6239  -26.6499 C   0  0  0  0  0  0  0  0  0  0  0  0
  -16.7176   13.6080  -25.7377 C   0  0  0  0  0  0  0  0  0  0  0  0
  -17.6523   12.4789  -25.9808 C   0  0  0  0  0  0  0  0  0  0  0  0
 27 28  1  0  0  0
 28  1  1  0  0  0
  1  2  2  0  0  0
  2  3  1  0  0  0
  3  4  1  0  0  0
  4  5  2  0  0  0
  5 29  1  0  0  0
 29 31  1  0  0  0
 31 32  2  0  0  0
 32 33  1  0  0  0
 33 34  2  0  0  0
 34 35  1  0  0  0
 35 36  2  0  0  0
 36 37  1  0  0  0
  5  6  1  0  0  0
  6  7  2  0  0  0
  7  8  1  0  0  0
  8  9  2  0  0  0
  9 10  1  0  0  0
 10 11  1  0  0  0
 11 12  1  0  0  0
 12 13  2  0  0  0
 13 14  1  0  0  0
 14 15  1  0  0  0
 15 16  2  0  0  0
 15 18  1  0  0  0
 18 19  3  0  0  0
 19 20  1  0  0  0
 20 21  1  0  0  0
 21 22  1  0  0  0
 22 23  1  0  0  0
 23 24  1  0  0  0
 24 25  1  0  0  0
 25 26  1  0  0  0
 13  1  1  0  0  0
 26 21  1  0  0  0
 11  3  2  0  0  0
 36 31  1  0  0  0
 10  6  1  0  0  0
 29 30  1  0  0  0
 14 17  1  0  0  0
M  END
> <minimizedAffinity>
-8.64563

> <CNNscore>
0.9253907800

> <CNNaffinity>
7.6620240211

> <CNN_VS>
7.0903663635

> <CNNaffinity_variance>
0.0387822725

$$$$
[H]c1c([H])c([H])c(C([H])([H])[H])c(N([H])c2nc3c([H])c(OC([H])([H])[H])c(N([H])C(=O)C#CC([H])([H])N4C([H])([H])C([H])([H])C([H])([H])C([H])([H])C4([H])[H])c([H])c3n3c([H])nc([H])c23)c1[H]


 37 41  0  0  0  0  0  0  0  0999 V2000
  -20.0020   13.4752  -18.1502 C   0  0  0  0  0  0  0  0  0  0  0  0
  -19.6969   13.7035  -19.4660 C   0  0  0  0  0  0  0  0  0  0  0  0
  -18.7114   13.0111  -20.1372 C   0  0  0  0  0  0  0  0  0  0  0  0
  -18.4092   13.2344  -21.4217 N   0  0  0  0  0  0  0  0  0  0  0  0
  -17.4598   12.5934  -22.1241 C   0  0  0  0  0  0  0  0  0  0  0  0
  -16.7408   11.6101  -21.4207 C   0  0  0  0  0  0  0  0  0  0  0  0
  -15.7236   10.7880  -21.8412 C   0  0  0  0  0  0  0  0  0  0  0  0
  -15.3923   10.0278  -20.7564 N   0  0  0  0  0  0  0  0  0  0  0  0
  -16.1773   10.3800  -19.7311 C   0  0  0  0  0  0  0  0  0  0  0  0
  -17.0113   11.3522  -20.1264 N   0  0  0  0  0  0  0  0  0  0  0  0
  -17.9772   12.0356  -19.4886 C   0  0  0  0  0  0  0  0  0  0  0  0
  -18.2957   11.8090  -18.1456 C   0  0  0  0  0  0  0  0  0  0  0  0
  -19.2717   12.4896  -17.4660 C   0  0  0  0  0  0  0  0  0  0  0  0
  -19.5977   12.2722  -16.1205 N   0  0  0  0  0  0  0  0  0  0  0  0
  -20.2258   11.1720  -15.5232 C   0  0  0  0  0  0  0  0  0  0  0  0
  -20.5980   10.1830  -16.1622 O   0  0  0  0  0  0  0  0  0  0  0  0
  -19.3445   13.0461  -15.4053 H   0  0  0  0  0  0  0  0  0  0  0  0
  -20.4866   11.1172  -14.0881 C   0  0  0  0  0  0  0  0  0  0  0  0
  -20.7107   11.0927  -12.9033 C   0  0  0  0  0  0  0  0  0  0  0  0
  -20.9877   11.0903  -11.4705 C   0  0  0  0  0  0  0  0  0  0  0  0
  -20.0470   10.2836  -10.7955 N   0  0  0  0  0  0  0  0  0  0  0  0
  -19.0685   10.9524  -10.0570 C   0  0  0  0  0  0  0  0  0  0  0  0
  -17.9069   10.1989   -9.5699 C   0  0  0  0  0  0  0  0  0  0  0  0
  -17.9265    8.7153   -9.8116 C   0  0  0  0  0  0  0  0  0  0  0  0
  -18.3838    8.5321  -11.2631 C   0  0  0  0  0  0  0  0  0  0  0  0
  -19.7860    9.0147  -11.3390 C   0  0  0  0  0  0  0  0  0  0  0  0
  -21.6247   15.3133  -18.0488 C   0  0  0  0  0  0  0  0  0  0  0  0
  -21.0005   14.1847  -17.4870 O   0  0  0  0  0  0  0  0  0  0  0  0
  -17.1314   12.8244  -23.4708 N   0  0  0  0  0  0  0  0  0  0  0  0
  -17.5589   12.1411  -24.1642 H   0  0  0  0  0  0  0  0  0  0  0  0
  -16.3238   13.8249  -24.0372 C   0  0  0  0  0  0  0  0  0  0  0  0
  -14.9494   13.8321  -24.0485 C   0  0  0  0  0  0  0  0  0  0  0  0
  -14.1939   14.8636  -24.6256 C   0  0  0  0  0  0  0  0  0  0  0  0
  -14.8375   15.9230  -25.2107 C   0  0  0  0  0  0  0  0  0  0  0  0
  -16.2036   15.9412  -25.2136 C   0  0  0  0  0  0  0  0  0  0  0  0
  -16.9451   14.9315  -24.6487 C   0  0  0  0  0  0  0  0  0  0  0  0
  -18.4307   14.9564  -24.6578 C   0  0  0  0  0  0  0  0  0  0  0  0
 27 28  1  0  0  0
 28  1  1  0  0  0
  1  2  2  0  0  0
  2  3  1  0  0  0
  3  4  1  0  0  0
  4  5  2  0  0  0
  5 29  1  0  0  0
 29 31  1  0  0  0
 31 32  2  0  0  0
 32 33  1  0  0  0
 33 34  2  0  0  0
 34 35  1  0  0  0
 35 36  2  0  0  0
 36 37  1  0  0  0
  5  6  1  0  0  0
  6  7  2  0  0  0
  7  8  1  0  0  0
  8  9  2  0  0  0
  9 10  1  0  0  0
 10 11  1  0  0  0
 11 12  1  0  0  0
 12 13  2  0  0  0
 13 14  1  0  0  0
 14 15  1  0  0  0
 15 16  2  0  0  0
 15 18  1  0  0  0
 18 19  3  0  0  0
 19 20  1  0  0  0
 20 21  1  0  0  0
 21 22  1  0  0  0
 22 23  1  0  0  0
 23 24  1  0  0  0
 24 25  1  0  0  0
 25 26  1  0  0  0
 13  1  1  0  0  0
 26 21  1  0  0  0
 11  3  2  0  0  0
 36 31  1  0  0  0
 10  6  1  0  0  0
 29 30  1  0  0  0
 14 17  1  0  0  0
M  END
> <minimizedAffinity>
-9.20365

> <CNNscore>
0.9059758186

> <CNNaffinity>
7.5917205811

> <CNN_VS>
6.8779153824

> <CNNaffinity_variance>
0.0586993583

$$$$
[H]c1c([H])c([H])c(C([H])([H])[H])c(N([H])c2nc3c([H])c(OC([H])([H])[H])c(N([H])C(=O)C#CC([H])([H])N4C([H])([H])C([H])([H])C([H])([H])C([H])([H])C4([H])[H])c([H])c3n3c([H])nc([H])c23)c1[H]


 37 41  0  0  0  0  0  0  0  0999 V2000
  -19.8428   13.3040  -18.2785 C   0  0  0  0  0  0  0  0  0  0  0  0
  -19.2715   13.8646  -19.3902 C   0  0  0  0  0  0  0  0  0  0  0  0
  -18.2982   13.2301  -20.1326 C   0  0  0  0  0  0  0  0  0  0  0  0
  -17.7362   13.7769  -21.2172 N   0  0  0  0  0  0  0  0  0  0  0  0
  -16.7842   13.2073  -21.9755 C   0  0  0  0  0  0  0  0  0  0  0  0
  -16.3649   11.9280  -21.5679 C   0  0  0  0  0  0  0  0  0  0  0  0
  -15.4263   11.0884  -22.1170 C   0  0  0  0  0  0  0  0  0  0  0  0
  -15.4188    9.9763  -21.3249 N   0  0  0  0  0  0  0  0  0  0  0  0
  -16.3142   10.1433  -20.3441 C   0  0  0  0  0  0  0  0  0  0  0  0
  -16.9031   11.3396  -20.4822 N   0  0  0  0  0  0  0  0  0  0  0  0
  -17.8528   11.9721  -19.7717 C   0  0  0  0  0  0  0  0  0  0  0  0
  -18.4418   11.4073  -18.6356 C   0  0  0  0  0  0  0  0  0  0  0  0
  -19.4093   12.0262  -17.8882 C   0  0  0  0  0  0  0  0  0  0  0  0
  -20.0046   11.4708  -16.7476 N   0  0  0  0  0  0  0  0  0  0  0  0
  -20.0312   10.1384  -16.3165 C   0  0  0  0  0  0  0  0  0  0  0  0
  -19.4906    9.2200  -16.9405 O   0  0  0  0  0  0  0  0  0  0  0  0
  -20.5330   12.1366  -16.0753 H   0  0  0  0  0  0  0  0  0  0  0  0
  -20.7067    9.7385  -15.0860 C   0  0  0  0  0  0  0  0  0  0  0  0
  -21.2607    9.3863  -14.0743 C   0  0  0  0  0  0  0  0  0  0  0  0
  -21.9302    8.9339  -12.8589 C   0  0  0  0  0  0  0  0  0  0  0  0
  -21.9676    9.9763  -11.9086 N   0  0  0  0  0  0  0  0  0  0  0  0
  -22.3986   11.2229  -12.3673 C   0  0  0  0  0  0  0  0  0  0  0  0
  -22.1950   12.4022  -11.5175 C   0  0  0  0  0  0  0  0  0  0  0  0
  -21.6341   12.1462  -10.1465 C   0  0  0  0  0  0  0  0  0  0  0  0
  -20.4810   11.1556  -10.3426 C   0  0  0  0  0  0  0  0  0  0  0  0
  -21.0796    9.8847  -10.8238 C   0  0  0  0  0  0  0  0  0  0  0  0
  -21.6417   14.9626  -18.0916 C   0  0  0  0  0  0  0  0  0  0  0  0
  -20.8248   13.9594  -17.5393 O   0  0  0  0  0  0  0  0  0  0  0  0
  -16.1844   13.7752  -23.1123 N   0  0  0  0  0  0  0  0  0  0  0  0
  -15.3340   14.3834  -22.9189 H   0  0  0  0  0  0  0  0  0  0  0  0
  -16.5402   13.6573  -24.4664 C   0  0  0  0  0  0  0  0  0  0  0  0
  -17.3000   12.6485  -25.0088 C   0  0  0  0  0  0  0  0  0  0  0  0
  -17.6196   12.5795  -26.3729 C   0  0  0  0  0  0  0  0  0  0  0  0
  -17.1626   13.5541  -27.2215 C   0  0  0  0  0  0  0  0  0  0  0  0
  -16.4050   14.5689  -26.7087 C   0  0  0  0  0  0  0  0  0  0  0  0
  -16.0909   14.6379  -25.3726 C   0  0  0  0  0  0  0  0  0  0  0  0
  -15.2688   15.7459  -24.8214 C   0  0  0  0  0  0  0  0  0  0  0  0
 27 28  1  0  0  0
 28  1  1  0  0  0
  1  2  2  0  0  0
  2  3  1  0  0  0
  3  4  1  0  0  0
  4  5  2  0  0  0
  5 29  1  0  0  0
 29 31  1  0  0  0
 31 32  2  0  0  0
 32 33  1  0  0  0
 33 34  2  0  0  0
 34 35  1  0  0  0
 35 36  2  0  0  0
 36 37  1  0  0  0
  5  6  1  0  0  0
  6  7  2  0  0  0
  7  8  1  0  0  0
  8  9  2  0  0  0
  9 10  1  0  0  0
 10 11  1  0  0  0
 11 12  1  0  0  0
 12 13  2  0  0  0
 13 14  1  0  0  0
 14 15  1  0  0  0
 15 16  2  0  0  0
 15 18  1  0  0  0
 18 19  3  0  0  0
 19 20  1  0  0  0
 20 21  1  0  0  0
 21 22  1  0  0  0
 22 23  1  0  0  0
 23 24  1  0  0  0
 24 25  1  0  0  0
 25 26  1  0  0  0
 13  1  1  0  0  0
 26 21  1  0  0  0
 11  3  2  0  0  0
 36 31  1  0  0  0
 10  6  1  0  0  0
 29 30  1  0  0  0
 14 17  1  0  0  0
M  END
> <minimizedAffinity>
-8.32234

> <CNNscore>
0.8781538606

> <CNNaffinity>
7.6738448143

> <CNN_VS>
6.7388162613

> <CNNaffinity_variance>
0.1038521156

$$$$
[H]c1c([H])c([H])c(C([H])([H])[H])c(N([H])c2nc3c([H])c(OC([H])([H])[H])c(N([H])C(=O)C#CC([H])([H])N4C([H])([H])C([H])([H])C([H])([H])C([H])([H])C4([H])[H])c([H])c3n3c([H])nc([H])c23)c1[H]


 37 41  0  0  0  0  0  0  0  0999 V2000
  -20.1656   14.6656  -19.8620 C   0  0  0  0  0  0  0  0  0  0  0  0
  -19.3559   14.6488  -20.9668 C   0  0  0  0  0  0  0  0  0  0  0  0
  -18.4180   13.6637  -21.1928 C   0  0  0  0  0  0  0  0  0  0  0  0
  -17.6236   13.6467  -22.2698 N   0  0  0  0  0  0  0  0  0  0  0  0
  -16.6929   12.7159  -22.5397 C   0  0  0  0  0  0  0  0  0  0  0  0
  -16.5682   11.6854  -21.5903 C   0  0  0  0  0  0  0  0  0  0  0  0
  -15.7274   10.5992  -21.5694 C   0  0  0  0  0  0  0  0  0  0  0  0
  -16.0273    9.9235  -20.4214 N   0  0  0  0  0  0  0  0  0  0  0  0
  -17.0053   10.5774  -19.7830 C   0  0  0  0  0  0  0  0  0  0  0  0
  -17.3471   11.6629  -20.4914 N   0  0  0  0  0  0  0  0  0  0  0  0
  -18.2579   12.6304  -20.2885 C   0  0  0  0  0  0  0  0  0  0  0  0
  -19.0890   12.6554  -19.1637 C   0  0  0  0  0  0  0  0  0  0  0  0
  -20.0246   13.6279  -18.9259 C   0  0  0  0  0  0  0  0  0  0  0  0
  -20.8607   13.6639  -17.8019 N   0  0  0  0  0  0  0  0  0  0  0  0
  -20.7980   14.4889  -16.6718 C   0  0  0  0  0  0  0  0  0  0  0  0
  -19.9280   15.3518  -16.5179 O   0  0  0  0  0  0  0  0  0  0  0  0
  -21.6886   12.9657  -17.7623 H   0  0  0  0  0  0  0  0  0  0  0  0
  -21.7673   14.3852  -15.5855 C   0  0  0  0  0  0  0  0  0  0  0  0
  -22.5516   14.3020  -14.6730 C   0  0  0  0  0  0  0  0  0  0  0  0
  -23.4792   14.1993  -13.5510 C   0  0  0  0  0  0  0  0  0  0  0  0
  -24.0994   15.4452  -13.3183 N   0  0  0  0  0  0  0  0  0  0  0  0
  -25.4301   15.5646  -13.7247 C   0  0  0  0  0  0  0  0  0  0  0  0
  -26.0414   16.8981  -13.7734 C   0  0  0  0  0  0  0  0  0  0  0  0
  -25.2025   18.0345  -13.2589 C   0  0  0  0  0  0  0  0  0  0  0  0
  -23.8052   17.8283  -13.8544 C   0  0  0  0  0  0  0  0  0  0  0  0
  -23.2659   16.5750  -13.2684 C   0  0  0  0  0  0  0  0  0  0  0  0
  -21.4381   16.6163  -20.6349 C   0  0  0  0  0  0  0  0  0  0  0  0
  -21.1077   15.6692  -19.6487 O   0  0  0  0  0  0  0  0  0  0  0  0
  -15.8505   12.6922  -23.6643 N   0  0  0  0  0  0  0  0  0  0  0  0
  -15.2628   11.8126  -23.7707 H   0  0  0  0  0  0  0  0  0  0  0  0
  -15.6708   13.6572  -24.6696 C   0  0  0  0  0  0  0  0  0  0  0  0
  -14.6775   14.6066  -24.6985 C   0  0  0  0  0  0  0  0  0  0  0  0
  -14.5505   15.5508  -25.7282 C   0  0  0  0  0  0  0  0  0  0  0  0
  -15.4490   15.5428  -26.7633 C   0  0  0  0  0  0  0  0  0  0  0  0
  -16.4467   14.6094  -26.7596 C   0  0  0  0  0  0  0  0  0  0  0  0
  -16.5725   13.6839  -25.7516 C   0  0  0  0  0  0  0  0  0  0  0  0
  -17.6585   12.6699  -25.7555 C   0  0  0  0  0  0  0  0  0  0  0  0
 27 28  1  0  0  0
 28  1  1  0  0  0
  1  2  2  0  0  0
  2  3  1  0  0  0
  3  4  1  0  0  0
  4  5  2  0  0  0
  5 29  1  0  0  0
 29 31  1  0  0  0
 31 32  2  0  0  0
 32 33  1  0  0  0
 33 34  2  0  0  0
 34 35  1  0  0  0
 35 36  2  0  0  0
 36 37  1  0  0  0
  5  6  1  0  0  0
  6  7  2  0  0  0
  7  8  1  0  0  0
  8  9  2  0  0  0
  9 10  1  0  0  0
 10 11  1  0  0  0
 11 12  1  0  0  0
 12 13  2  0  0  0
 13 14  1  0  0  0
 14 15  1  0  0  0
 15 16  2  0  0  0
 15 18  1  0  0  0
 18 19  3  0  0  0
 19 20  1  0  0  0
 20 21  1  0  0  0
 21 22  1  0  0  0
 22 23  1  0  0  0
 23 24  1  0  0  0
 24 25  1  0  0  0
 25 26  1  0  0  0
 13  1  1  0  0  0
 26 21  1  0  0  0
 11  3  2  0  0  0
 36 31  1  0  0  0
 10  6  1  0  0  0
 29 30  1  0  0  0
 14 17  1  0  0  0
M  END
> <minimizedAffinity>
-8.65696

> <CNNscore>
0.8709319234

> <CNNaffinity>
7.6140623093

> <CNN_VS>
6.6313300133

> <CNNaffinity_variance>
0.1585769057

$$$$
[H]c1c([H])c([H])c(C([H])([H])[H])c(N([H])c2nc3c([H])c(OC([H])([H])[H])c(N([H])C(=O)C#CC([H])([H])N4C([H])([H])C([H])([H])C([H])([H])C([H])([H])C4([H])[H])c([H])c3n3c([H])nc([H])c23)c1[H]


 37 41  0  0  0  0  0  0  0  0999 V2000
  -20.0575   13.9502  -18.1414 C   0  0  0  0  0  0  0  0  0  0  0  0
  -19.6400   14.0883  -19.4387 C   0  0  0  0  0  0  0  0  0  0  0  0
  -18.7267   13.2385  -20.0259 C   0  0  0  0  0  0  0  0  0  0  0  0
  -18.3148   13.3732  -21.2922 N   0  0  0  0  0  0  0  0  0  0  0  0
  -17.4275   12.5785  -21.9141 C   0  0  0  0  0  0  0  0  0  0  0  0
  -16.9064   11.5250  -21.1413 C   0  0  0  0  0  0  0  0  0  0  0  0
  -15.9966   10.5506  -21.4733 C   0  0  0  0  0  0  0  0  0  0  0  0
  -15.8495    9.7867  -20.3513 N   0  0  0  0  0  0  0  0  0  0  0  0
  -16.6372   10.2826  -19.3894 C   0  0  0  0  0  0  0  0  0  0  0  0
  -17.2927   11.3519  -19.8624 N   0  0  0  0  0  0  0  0  0  0  0  0
  -18.1860   12.1888  -19.3069 C   0  0  0  0  0  0  0  0  0  0  0  0
  -18.6182   12.0551  -17.9834 C   0  0  0  0  0  0  0  0  0  0  0  0
  -19.5244   12.8921  -17.3868 C   0  0  0  0  0  0  0  0  0  0  0  0
  -19.9627   12.7688  -16.0615 N   0  0  0  0  0  0  0  0  0  0  0  0
  -20.8221   11.8203  -15.4926 C   0  0  0  0  0  0  0  0  0  0  0  0
  -21.3383   10.9065  -16.1434 O   0  0  0  0  0  0  0  0  0  0  0  0
  -19.6085   13.4956  -15.3398 H   0  0  0  0  0  0  0  0  0  0  0  0
  -21.1707   11.8461  -14.0756 C   0  0  0  0  0  0  0  0  0  0  0  0
  -21.4722   11.8494  -12.9078 C   0  0  0  0  0  0  0  0  0  0  0  0
  -21.8569   11.8349  -11.5001 C   0  0  0  0  0  0  0  0  0  0  0  0
  -23.2610   11.7603  -11.3813 N   0  0  0  0  0  0  0  0  0  0  0  0
  -23.8359   12.4706  -10.3253 C   0  0  0  0  0  0  0  0  0  0  0  0
  -25.2379   12.2129   -9.9754 C   0  0  0  0  0  0  0  0  0  0  0  0
  -25.9871   11.2718  -10.8769 C   0  0  0  0  0  0  0  0  0  0  0  0
  -25.0461   10.0870  -11.1227 C   0  0  0  0  0  0  0  0  0  0  0  0
  -23.8853   10.6082  -11.8881 C   0  0  0  0  0  0  0  0  0  0  0  0
  -21.7691   15.6989  -18.3262 C   0  0  0  0  0  0  0  0  0  0  0  0
  -20.9806   14.8185  -17.5633 O   0  0  0  0  0  0  0  0  0  0  0  0
  -16.9848   12.7149  -23.2408 N   0  0  0  0  0  0  0  0  0  0  0  0
  -17.0444   11.8322  -23.8305 H   0  0  0  0  0  0  0  0  0  0  0  0
  -16.4768   13.8445  -23.9042 C   0  0  0  0  0  0  0  0  0  0  0  0
  -15.8346   14.9020  -23.3056 C   0  0  0  0  0  0  0  0  0  0  0  0
  -15.3522   16.0086  -24.0200 C   0  0  0  0  0  0  0  0  0  0  0  0
  -15.5191   16.0568  -25.3797 C   0  0  0  0  0  0  0  0  0  0  0  0
  -16.1542   15.0185  -26.0005 C   0  0  0  0  0  0  0  0  0  0  0  0
  -16.6273   13.9338  -25.3020 C   0  0  0  0  0  0  0  0  0  0  0  0
  -17.3147   12.8069  -25.9841 C   0  0  0  0  0  0  0  0  0  0  0  0
 27 28  1  0  0  0
 28  1  1  0  0  0
  1  2  2  0  0  0
  2  3  1  0  0  0
  3  4  1  0  0  0
  4  5  2  0  0  0
  5 29  1  0  0  0
 29 31  1  0  0  0
 31 32  2  0  0  0
 32 33  1  0  0  0
 33 34  2  0  0  0
 34 35  1  0  0  0
 35 36  2  0  0  0
 36 37  1  0  0  0
  5  6  1  0  0  0
  6  7  2  0  0  0
  7  8  1  0  0  0
  8  9  2  0  0  0
  9 10  1  0  0  0
 10 11  1  0  0  0
 11 12  1  0  0  0
 12 13  2  0  0  0
 13 14  1  0  0  0
 14 15  1  0  0  0
 15 16  2  0  0  0
 15 18  1  0  0  0
 18 19  3  0  0  0
 19 20  1  0  0  0
 20 21  1  0  0  0
 21 22  1  0  0  0
 22 23  1  0  0  0
 23 24  1  0  0  0
 24 25  1  0  0  0
 25 26  1  0  0  0
 13  1  1  0  0  0
 26 21  1  0  0  0
 11  3  2  0  0  0
 36 31  1  0  0  0
 10  6  1  0  0  0
 29 30  1  0  0  0
 14 17  1  0  0  0
M  END
> <minimizedAffinity>
-8.10590

> <CNNscore>
0.8652644753

> <CNNaffinity>
7.4476256371

> <CNN_VS>
6.4441657066

> <CNNaffinity_variance>
0.1609588116

$$$$
[H]c1c([H])c([H])c(C([H])([H])[H])c(N([H])c2nc3c([H])c(OC([H])([H])[H])c(N([H])C(=O)C#CC([H])([H])N4C([H])([H])C([H])([H])C([H])([H])C([H])([H])C4([H])[H])c([H])c3n3c([H])nc([H])c23)c1[H]


 37 41  0  0  0  0  0  0  0  0999 V2000
  -20.3527   14.4878  -19.7139 C   0  0  0  0  0  0  0  0  0  0  0  0
  -19.5407   14.5108  -20.8169 C   0  0  0  0  0  0  0  0  0  0  0  0
  -18.5716   13.5590  -21.0532 C   0  0  0  0  0  0  0  0  0  0  0  0
  -17.7749   13.5810  -22.1284 N   0  0  0  0  0  0  0  0  0  0  0  0
  -16.8145   12.6837  -22.4079 C   0  0  0  0  0  0  0  0  0  0  0  0
  -16.6589   11.6458  -21.4713 C   0  0  0  0  0  0  0  0  0  0  0  0
  -15.7840   10.5867  -21.4621 C   0  0  0  0  0  0  0  0  0  0  0  0
  -16.0645    9.8873  -20.3235 N   0  0  0  0  0  0  0  0  0  0  0  0
  -17.0640   10.5015  -19.6792 C   0  0  0  0  0  0  0  0  0  0  0  0
  -17.4388   11.5845  -20.3746 N   0  0  0  0  0  0  0  0  0  0  0  0
  -18.3803   12.5199  -20.1616 C   0  0  0  0  0  0  0  0  0  0  0  0
  -19.2140   12.5042  -19.0385 C   0  0  0  0  0  0  0  0  0  0  0  0
  -20.1805   13.4433  -18.7906 C   0  0  0  0  0  0  0  0  0  0  0  0
  -21.0196   13.4384  -17.6682 N   0  0  0  0  0  0  0  0  0  0  0  0
  -20.9775   14.2420  -16.5218 C   0  0  0  0  0  0  0  0  0  0  0  0
  -20.1273   15.1207  -16.3487 O   0  0  0  0  0  0  0  0  0  0  0  0
  -21.8318   12.7213  -17.6445 H   0  0  0  0  0  0  0  0  0  0  0  0
  -21.9465   14.0952  -15.4402 C   0  0  0  0  0  0  0  0  0  0  0  0
  -22.7637   13.9805  -14.5606 C   0  0  0  0  0  0  0  0  0  0  0  0
  -23.7712   13.8545  -13.5123 C   0  0  0  0  0  0  0  0  0  0  0  0
  -24.0353   12.4927  -13.2540 N   0  0  0  0  0  0  0  0  0  0  0  0
  -24.9744   11.8722  -14.0805 C   0  0  0  0  0  0  0  0  0  0  0  0
  -25.5008   10.5571  -13.6958 C   0  0  0  0  0  0  0  0  0  0  0  0
  -24.8848    9.9229  -12.4801 C   0  0  0  0  0  0  0  0  0  0  0  0
  -24.7970   11.0325  -11.4262 C   0  0  0  0  0  0  0  0  0  0  0  0
  -23.8350   12.0408  -11.9389 C   0  0  0  0  0  0  0  0  0  0  0  0
  -21.9489   16.1592  -20.5390 C   0  0  0  0  0  0  0  0  0  0  0  0
  -21.3267   15.4582  -19.4900 O   0  0  0  0  0  0  0  0  0  0  0  0
  -15.9696   12.7012  -23.5307 N   0  0  0  0  0  0  0  0  0  0  0  0
  -15.1191   12.0665  -23.4666 H   0  0  0  0  0  0  0  0  0  0  0  0
  -16.0828   13.4312  -24.7258 C   0  0  0  0  0  0  0  0  0  0  0  0
  -17.0110   13.2080  -25.7145 C   0  0  0  0  0  0  0  0  0  0  0  0
  -17.0730   13.9676  -26.8922 C   0  0  0  0  0  0  0  0  0  0  0  0
  -16.1747   14.9847  -27.0852 C   0  0  0  0  0  0  0  0  0  0  0  0
  -15.2409   15.2285  -26.1180 C   0  0  0  0  0  0  0  0  0  0  0  0
  -15.1789   14.4852  -24.9638 C   0  0  0  0  0  0  0  0  0  0  0  0
  -14.1624   14.7577  -23.9150 C   0  0  0  0  0  0  0  0  0  0  0  0
 27 28  1  0  0  0
 28  1  1  0  0  0
  1  2  2  0  0  0
  2  3  1  0  0  0
  3  4  1  0  0  0
  4  5  2  0  0  0
  5 29  1  0  0  0
 29 31  1  0  0  0
 31 32  2  0  0  0
 32 33  1  0  0  0
 33 34  2  0  0  0
 34 35  1  0  0  0
 35 36  2  0  0  0
 36 37  1  0  0  0
  5  6  1  0  0  0
  6  7  2  0  0  0
  7  8  1  0  0  0
  8  9  2  0  0  0
  9 10  1  0  0  0
 10 11  1  0  0  0
 11 12  1  0  0  0
 12 13  2  0  0  0
 13 14  1  0  0  0
 14 15  1  0  0  0
 15 16  2  0  0  0
 15 18  1  0  0  0
 18 19  3  0  0  0
 19 20  1  0  0  0
 20 21  1  0  0  0
 21 22  1  0  0  0
 22 23  1  0  0  0
 23 24  1  0  0  0
 24 25  1  0  0  0
 25 26  1  0  0  0
 13  1  1  0  0  0
 26 21  1  0  0  0
 11  3  2  0  0  0
 36 31  1  0  0  0
 10  6  1  0  0  0
 29 30  1  0  0  0
 14 17  1  0  0  0
M  END
> <minimizedAffinity>
-8.26132

> <CNNscore>
0.7920315862

> <CNNaffinity>
7.4516143799

> <CNN_VS>
5.9019141197

> <CNNaffinity_variance>
0.1371055096

$$$$
[H]c1c([H])c([H])c(C([H])([H])[H])c(N([H])c2nc3c([H])c(OC([H])([H])[H])c(N([H])C(=O)C#CC([H])([H])N4C([H])([H])C([H])([H])C([H])([H])C([H])([H])C4([H])[H])c([H])c3n3c([H])nc([H])c23)c1[H]


 37 41  0  0  0  0  0  0  0  0999 V2000
  -17.9864   11.0412  -18.4440 C   0  0  0  0  0  0  0  0  0  0  0  0
  -17.2718   10.9815  -19.6112 C   0  0  0  0  0  0  0  0  0  0  0  0
  -17.3570   11.9473  -20.5915 C   0  0  0  0  0  0  0  0  0  0  0  0
  -16.6624   11.8897  -21.7341 N   0  0  0  0  0  0  0  0  0  0  0  0
  -16.7078   12.7983  -22.7229 C   0  0  0  0  0  0  0  0  0  0  0  0
  -17.5676   13.8907  -22.5078 C   0  0  0  0  0  0  0  0  0  0  0  0
  -17.8378   14.9743  -23.3078 C   0  0  0  0  0  0  0  0  0  0  0  0
  -18.7422   15.7270  -22.6151 N   0  0  0  0  0  0  0  0  0  0  0  0
  -19.0020   15.1197  -21.4509 C   0  0  0  0  0  0  0  0  0  0  0  0
  -18.2859   13.9892  -21.3725 N   0  0  0  0  0  0  0  0  0  0  0  0
  -18.1885   13.0394  -20.4264 C   0  0  0  0  0  0  0  0  0  0  0  0
  -18.9139   13.0923  -19.2316 C   0  0  0  0  0  0  0  0  0  0  0  0
  -18.8397   12.1398  -18.2493 C   0  0  0  0  0  0  0  0  0  0  0  0
  -19.5631   12.1817  -17.0499 N   0  0  0  0  0  0  0  0  0  0  0  0
  -20.7160   12.9101  -16.7306 C   0  0  0  0  0  0  0  0  0  0  0  0
  -21.2775   13.6636  -17.5319 O   0  0  0  0  0  0  0  0  0  0  0  0
  -19.2104   11.5768  -16.2227 H   0  0  0  0  0  0  0  0  0  0  0  0
  -21.3412   12.8281  -15.4142 C   0  0  0  0  0  0  0  0  0  0  0  0
  -21.8410   12.7468  -14.3196 C   0  0  0  0  0  0  0  0  0  0  0  0
  -22.4279   12.6282  -12.9887 C   0  0  0  0  0  0  0  0  0  0  0  0
  -22.0798   11.3876  -12.4134 N   0  0  0  0  0  0  0  0  0  0  0  0
  -20.8821   11.3471  -11.6964 C   0  0  0  0  0  0  0  0  0  0  0  0
  -20.3240   10.0433  -11.3182 C   0  0  0  0  0  0  0  0  0  0  0  0
  -21.1661    8.8401  -11.6390 C   0  0  0  0  0  0  0  0  0  0  0  0
  -21.6733    9.0516  -13.0699 C   0  0  0  0  0  0  0  0  0  0  0  0
  -22.5747   10.2313  -13.0394 C   0  0  0  0  0  0  0  0  0  0  0  0
  -18.7753    8.9655  -17.3993 C   0  0  0  0  0  0  0  0  0  0  0  0
  -17.8890   10.0560  -17.4640 O   0  0  0  0  0  0  0  0  0  0  0  0
  -15.9869   12.7441  -23.9280 N   0  0  0  0  0  0  0  0  0  0  0  0
  -15.4845   11.8256  -24.1135 H   0  0  0  0  0  0  0  0  0  0  0  0
  -15.8330   13.7223  -24.9248 C   0  0  0  0  0  0  0  0  0  0  0  0
  -14.9562   14.7797  -24.8789 C   0  0  0  0  0  0  0  0  0  0  0  0
  -14.8499   15.7312  -25.9042 C   0  0  0  0  0  0  0  0  0  0  0  0
  -15.6490   15.6189  -27.0122 C   0  0  0  0  0  0  0  0  0  0  0  0
  -16.5298   14.5768  -27.0838 C   0  0  0  0  0  0  0  0  0  0  0  0
  -16.6352   13.6440  -26.0802 C   0  0  0  0  0  0  0  0  0  0  0  0
  -17.5934   12.5117  -26.1659 C   0  0  0  0  0  0  0  0  0  0  0  0
 27 28  1  0  0  0
 28  1  1  0  0  0
  1  2  2  0  0  0
  2  3  1  0  0  0
  3  4  1  0  0  0
  4  5  2  0  0  0
  5 29  1  0  0  0
 29 31  1  0  0  0
 31 32  2  0  0  0
 32 33  1  0  0  0
 33 34  2  0  0  0
 34 35  1  0  0  0
 35 36  2  0  0  0
 36 37  1  0  0  0
  5  6  1  0  0  0
  6  7  2  0  0  0
  7  8  1  0  0  0
  8  9  2  0  0  0
  9 10  1  0  0  0
 10 11  1  0  0  0
 11 12  1  0  0  0
 12 13  2  0  0  0
 13 14  1  0  0  0
 14 15  1  0  0  0
 15 16  2  0  0  0
 15 18  1  0  0  0
 18 19  3  0  0  0
 19 20  1  0  0  0
 20 21  1  0  0  0
 21 22  1  0  0  0
 22 23  1  0  0  0
 23 24  1  0  0  0
 24 25  1  0  0  0
 25 26  1  0  0  0
 13  1  1  0  0  0
 26 21  1  0  0  0
 11  3  2  0  0  0
 36 31  1  0  0  0
 10  6  1  0  0  0
 29 30  1  0  0  0
 14 17  1  0  0  0
M  END
> <minimizedAffinity>
-9.14648

> <CNNscore>
0.7433147430

> <CNNaffinity>
7.6528091431

> <CNN_VS>
5.6884460449

> <CNNaffinity_variance>
0.1283568591

$$$$
[H]c1c([H])c([H])c2c(c1[H])c1c3c(c4c5c([H])c([H])c([H])c([H])c5n5c4c1n2[C@@]1(C([H])([H])[H])O[C@]5([H])C([H])([H])[C@@]([H])(N([H])C([H])([H])[H])[C@@]1([H])OC([H])([H])[H])C(=O)N([H])C3([H])[H]


 37 44  0  0  0  0  0  0  0  0999 V2000
  -20.1149   16.2514  -17.4909 C   0  0  0  0  0  0  0  0  0  0  0  0
  -20.4492   14.8903  -17.0678 C   0  0  0  0  0  0  0  0  0  0  0  0
  -21.0746   14.0843  -18.1364 C   0  0  0  0  0  0  0  0  0  0  0  0
  -21.5546   14.6266  -19.2227 O   0  0  0  0  0  0  0  0  0  0  0  0
  -20.9806   15.7395  -19.8315 C   0  0  0  0  0  0  0  0  0  0  0  0
  -22.1557   16.2335  -20.6857 C   0  0  0  0  0  0  0  0  0  0  0  0
  -20.6301   16.7286  -18.8196 C   0  0  0  0  0  0  0  0  0  0  0  0
  -19.8664   15.2680  -20.6726 N   0  0  0  0  0  0  0  0  0  0  0  0
  -19.3619   15.8489  -21.7596 C   0  0  0  0  0  0  0  0  0  0  0  0
  -19.6499   17.0186  -22.4061 C   0  0  0  0  0  0  0  0  0  0  0  0
  -18.9660   17.4084  -23.5358 C   0  0  0  0  0  0  0  0  0  0  0  0
  -17.9430   16.6194  -24.0710 C   0  0  0  0  0  0  0  0  0  0  0  0
  -17.6528   15.4557  -23.4314 C   0  0  0  0  0  0  0  0  0  0  0  0
  -18.3400   15.0786  -22.3082 C   0  0  0  0  0  0  0  0  0  0  0  0
  -18.2232   13.9751  -21.5050 C   0  0  0  0  0  0  0  0  0  0  0  0
  -17.3913   12.8537  -21.5319 C   0  0  0  0  0  0  0  0  0  0  0  0
  -16.3207   12.4862  -22.4868 C   0  0  0  0  0  0  0  0  0  0  0  0
  -15.7849   11.2377  -22.0549 N   0  0  0  0  0  0  0  0  0  0  0  0
  -16.4894   10.8338  -20.8762 C   0  0  0  0  0  0  0  0  0  0  0  0
  -16.2148    9.7787  -20.3012 O   0  0  0  0  0  0  0  0  0  0  0  0
  -17.4798   11.8488  -20.5698 C   0  0  0  0  0  0  0  0  0  0  0  0
  -18.4280   12.0114  -19.5851 C   0  0  0  0  0  0  0  0  0  0  0  0
  -18.8097   11.2730  -18.4796 C   0  0  0  0  0  0  0  0  0  0  0  0
  -18.3779   10.0827  -17.9654 C   0  0  0  0  0  0  0  0  0  0  0  0
  -18.9693    9.5895  -16.8189 C   0  0  0  0  0  0  0  0  0  0  0  0
  -19.9786   10.2785  -16.1965 C   0  0  0  0  0  0  0  0  0  0  0  0
  -20.4242   11.4794  -16.7034 C   0  0  0  0  0  0  0  0  0  0  0  0
  -19.8326   11.9593  -17.8385 C   0  0  0  0  0  0  0  0  0  0  0  0
  -20.0735   13.0652  -18.5109 N   0  0  0  0  0  0  0  0  0  0  0  0
  -19.2607   13.1438  -19.5668 C   0  0  0  0  0  0  0  0  0  0  0  0
  -19.1586   14.1299  -20.5331 C   0  0  0  0  0  0  0  0  0  0  0  0
  -15.0087   10.7256  -22.5363 H   0  0  0  0  0  0  0  0  0  0  0  0
  -18.0581   15.1691  -16.8923 C   0  0  0  0  0  0  0  0  0  0  0  0
  -18.6419   16.3860  -17.4257 N   0  0  0  0  0  0  0  0  0  0  0  0
  -18.2355   16.5014  -18.3787 H   0  0  0  0  0  0  0  0  0  0  0  0
  -19.7162   17.7074  -19.2032 O   0  0  0  0  0  0  0  0  0  0  0  0
  -20.2630   18.9844  -19.2344 C   0  0  0  0  0  0  0  0  0  0  0  0
 33 34  1  0  0  0
 34  1  1  0  0  0
  1  2  1  0  0  0
  2  3  1  0  0  0
  3  4  1  0  0  0
  4  5  1  0  0  0
  5  6  1  0  0  0
  5  7  1  0  0  0
  7 36  1  0  0  0
 36 37  1  0  0  0
  5  8  1  0  0  0
  8  9  1  0  0  0
  9 10  2  0  0  0
 10 11  1  0  0  0
 11 12  2  0  0  0
 12 13  1  0  0  0
 13 14  2  0  0  0
 14 15  1  0  0  0
 15 16  2  0  0  0
 16 17  1  0  0  0
 17 18  1  0  0  0
 18 19  1  0  0  0
 19 20  2  0  0  0
 19 21  1  0  0  0
 21 22  2  0  0  0
 22 23  1  0  0  0
 23 24  2  0  0  0
 24 25  1  0  0  0
 25 26  2  0  0  0
 26 27  1  0  0  0
 27 28  2  0  0  0
 28 29  1  0  0  0
 29 30  1  0  0  0
 30 31  2  0  0  0
  7  1  1  0  0  0
 31  8  1  0  0  0
 29  3  1  0  0  0
 14  9  1  0  0  0
 31 15  1  0  0  0
 21 16  1  0  0  0
 30 22  1  0  0  0
 28 23  1  0  0  0
 34 35  1  0  0  0
 18 32  1  0  0  0
M  END
> <minimizedAffinity>
-10.79400

> <CNNscore>
0.8113692999

> <CNNaffinity>
7.1010408401

> <CNN_VS>
5.7615666389

> <CNNaffinity_variance>
0.0312323868

$$$$
[H]c1c([H])c([H])c2c(c1[H])c1c3c(c4c5c([H])c([H])c([H])c([H])c5n5c4c1n2[C@@]1(C([H])([H])[H])O[C@]5([H])C([H])([H])[C@@]([H])(N([H])C([H])([H])[H])[C@@]1([H])OC([H])([H])[H])C(=O)N([H])C3([H])[H]


 37 44  0  0  0  0  0  0  0  0999 V2000
  -19.4812   17.3460  -18.4826 C   0  0  0  0  0  0  0  0  0  0  0  0
  -20.1470   16.1707  -17.9182 C   0  0  0  0  0  0  0  0  0  0  0  0
  -20.8335   15.3455  -18.9332 C   0  0  0  0  0  0  0  0  0  0  0  0
  -21.0780   15.7886  -20.1368 O   0  0  0  0  0  0  0  0  0  0  0  0
  -20.2174   16.6448  -20.8185 C   0  0  0  0  0  0  0  0  0  0  0  0
  -21.1688   17.2218  -21.8750 C   0  0  0  0  0  0  0  0  0  0  0  0
  -19.7518   17.6937  -19.9194 C   0  0  0  0  0  0  0  0  0  0  0  0
  -19.1622   15.8235  -21.4377 N   0  0  0  0  0  0  0  0  0  0  0  0
  -18.4425   16.1021  -22.5229 C   0  0  0  0  0  0  0  0  0  0  0  0
  -18.4025   17.1835  -23.3584 C   0  0  0  0  0  0  0  0  0  0  0  0
  -17.5471   17.2339  -24.4362 C   0  0  0  0  0  0  0  0  0  0  0  0
  -16.6794   16.1751  -24.7220 C   0  0  0  0  0  0  0  0  0  0  0  0
  -16.7154   15.0979  -23.8938 C   0  0  0  0  0  0  0  0  0  0  0  0
  -17.5706   15.0594  -22.8246 C   0  0  0  0  0  0  0  0  0  0  0  0
  -17.7768   14.1026  -21.8661 C   0  0  0  0  0  0  0  0  0  0  0  0
  -17.2156   12.8457  -21.6301 C   0  0  0  0  0  0  0  0  0  0  0  0
  -16.1692   12.1150  -22.3810 C   0  0  0  0  0  0  0  0  0  0  0  0
  -15.9663   10.8715  -21.7140 N   0  0  0  0  0  0  0  0  0  0  0  0
  -16.8493   10.8197  -20.5887 C   0  0  0  0  0  0  0  0  0  0  0  0
  -16.8704    9.8399  -19.8411 O   0  0  0  0  0  0  0  0  0  0  0  0
  -17.6139   12.0523  -20.5553 C   0  0  0  0  0  0  0  0  0  0  0  0
  -18.5898   12.5652  -19.7308 C   0  0  0  0  0  0  0  0  0  0  0  0
  -19.2270   12.1126  -18.5897 C   0  0  0  0  0  0  0  0  0  0  0  0
  -19.1197   10.9601  -17.8631 C   0  0  0  0  0  0  0  0  0  0  0  0
  -19.9099   10.7937  -16.7426 C   0  0  0  0  0  0  0  0  0  0  0  0
  -20.7945   11.7675  -16.3556 C   0  0  0  0  0  0  0  0  0  0  0  0
  -20.9134   12.9343  -17.0782 C   0  0  0  0  0  0  0  0  0  0  0  0
  -20.1271   13.0896  -18.1855 C   0  0  0  0  0  0  0  0  0  0  0  0
  -20.0530   14.0956  -19.0316 N   0  0  0  0  0  0  0  0  0  0  0  0
  -19.1485   13.8314  -19.9770 C   0  0  0  0  0  0  0  0  0  0  0  0
  -18.7407   14.6033  -21.0515 C   0  0  0  0  0  0  0  0  0  0  0  0
  -15.2817   10.1393  -22.0168 H   0  0  0  0  0  0  0  0  0  0  0  0
  -17.7907   16.0638  -17.3610 C   0  0  0  0  0  0  0  0  0  0  0  0
  -18.0276   17.1849  -18.2515 N   0  0  0  0  0  0  0  0  0  0  0  0
  -17.5327   16.9518  -19.1389 H   0  0  0  0  0  0  0  0  0  0  0  0
  -18.6119   18.3879  -20.3182 O   0  0  0  0  0  0  0  0  0  0  0  0
  -18.8599   19.7223  -20.6155 C   0  0  0  0  0  0  0  0  0  0  0  0
 33 34  1  0  0  0
 34  1  1  0  0  0
  1  2  1  0  0  0
  2  3  1  0  0  0
  3  4  1  0  0  0
  4  5  1  0  0  0
  5  6  1  0  0  0
  5  7  1  0  0  0
  7 36  1  0  0  0
 36 37  1  0  0  0
  5  8  1  0  0  0
  8  9  1  0  0  0
  9 10  2  0  0  0
 10 11  1  0  0  0
 11 12  2  0  0  0
 12 13  1  0  0  0
 13 14  2  0  0  0
 14 15  1  0  0  0
 15 16  2  0  0  0
 16 17  1  0  0  0
 17 18  1  0  0  0
 18 19  1  0  0  0
 19 20  2  0  0  0
 19 21  1  0  0  0
 21 22  2  0  0  0
 22 23  1  0  0  0
 23 24  2  0  0  0
 24 25  1  0  0  0
 25 26  2  0  0  0
 26 27  1  0  0  0
 27 28  2  0  0  0
 28 29  1  0  0  0
 29 30  1  0  0  0
 30 31  2  0  0  0
  7  1  1  0  0  0
 31  8  1  0  0  0
 29  3  1  0  0  0
 14  9  1  0  0  0
 31 15  1  0  0  0
 21 16  1  0  0  0
 30 22  1  0  0  0
 28 23  1  0  0  0
 34 35  1  0  0  0
 18 32  1  0  0  0
M  END
> <minimizedAffinity>
-10.31349

> <CNNscore>
0.6497375369

> <CNNaffinity>
7.0970230103

> <CNN_VS>
4.6112022400

> <CNNaffinity_variance>
0.1676243246

$$$$
[H]c1c([H])c([H])c2c(c1[H])c1c3c(c4c5c([H])c([H])c([H])c([H])c5n5c4c1n2[C@@]1(C([H])([H])[H])O[C@]5([H])C([H])([H])[C@@]([H])(N([H])C([H])([H])[H])[C@@]1([H])OC([H])([H])[H])C(=O)N([H])C3([H])[H]


 37 44  0  0  0  0  0  0  0  0999 V2000
  -19.7284   17.3356  -18.1359 C   0  0  0  0  0  0  0  0  0  0  0  0
  -20.5451   16.4196  -17.3376 C   0  0  0  0  0  0  0  0  0  0  0  0
  -21.3062   15.4531  -18.1555 C   0  0  0  0  0  0  0  0  0  0  0  0
  -21.4693   15.6103  -19.4414 O   0  0  0  0  0  0  0  0  0  0  0  0
  -20.4960   16.1681  -20.2660 C   0  0  0  0  0  0  0  0  0  0  0  0
  -21.3472   16.5709  -21.4775 C   0  0  0  0  0  0  0  0  0  0  0  0
  -19.9242   17.3464  -19.6259 C   0  0  0  0  0  0  0  0  0  0  0  0
  -19.5370   15.1048  -20.6136 N   0  0  0  0  0  0  0  0  0  0  0  0
  -18.7660   15.0231  -21.6963 C   0  0  0  0  0  0  0  0  0  0  0  0
  -18.5761   15.8531  -22.7660 C   0  0  0  0  0  0  0  0  0  0  0  0
  -17.6986   15.5382  -23.7794 C   0  0  0  0  0  0  0  0  0  0  0  0
  -16.9616   14.3500  -23.7557 C   0  0  0  0  0  0  0  0  0  0  0  0
  -17.1469   13.5219  -22.6939 C   0  0  0  0  0  0  0  0  0  0  0  0
  -18.0225   13.8460  -21.6918 C   0  0  0  0  0  0  0  0  0  0  0  0
  -18.3645   13.1853  -20.5415 C   0  0  0  0  0  0  0  0  0  0  0  0
  -17.9668   11.9700  -19.9798 C   0  0  0  0  0  0  0  0  0  0  0  0
  -17.0025   10.9624  -20.4774 C   0  0  0  0  0  0  0  0  0  0  0  0
  -16.9677    9.9072  -19.5194 N   0  0  0  0  0  0  0  0  0  0  0  0
  -17.8738   10.2356  -18.4610 C   0  0  0  0  0  0  0  0  0  0  0  0
  -18.0306    9.4796  -17.5003 O   0  0  0  0  0  0  0  0  0  0  0  0
  -18.4819   11.5171  -18.7662 C   0  0  0  0  0  0  0  0  0  0  0  0
  -19.4045   12.3252  -18.1410 C   0  0  0  0  0  0  0  0  0  0  0  0
  -20.1161   12.2438  -16.9577 C   0  0  0  0  0  0  0  0  0  0  0  0
  -20.1663   11.3018  -15.9689 C   0  0  0  0  0  0  0  0  0  0  0  0
  -20.9941   11.5081  -14.8828 C   0  0  0  0  0  0  0  0  0  0  0  0
  -21.7605   12.6415  -14.7885 C   0  0  0  0  0  0  0  0  0  0  0  0
  -21.7202   13.5995  -15.7776 C   0  0  0  0  0  0  0  0  0  0  0  0
  -20.8978   13.3862  -16.8485 C   0  0  0  0  0  0  0  0  0  0  0  0
  -20.6832   14.1371  -17.9084 N   0  0  0  0  0  0  0  0  0  0  0  0
  -19.7983   13.5466  -18.7147 C   0  0  0  0  0  0  0  0  0  0  0  0
  -19.2765   13.9778  -19.9223 C   0  0  0  0  0  0  0  0  0  0  0  0
  -16.3720    9.0499  -19.6007 H   0  0  0  0  0  0  0  0  0  0  0  0
  -18.2314   16.1343  -16.6950 C   0  0  0  0  0  0  0  0  0  0  0  0
  -18.3107   17.0722  -17.7997 N   0  0  0  0  0  0  0  0  0  0  0  0
  -17.8175   16.6146  -18.5960 H   0  0  0  0  0  0  0  0  0  0  0  0
  -18.6996   17.7863  -20.1232 O   0  0  0  0  0  0  0  0  0  0  0  0
  -18.7663   19.0461  -20.7055 C   0  0  0  0  0  0  0  0  0  0  0  0
 33 34  1  0  0  0
 34  1  1  0  0  0
  1  2  1  0  0  0
  2  3  1  0  0  0
  3  4  1  0  0  0
  4  5  1  0  0  0
  5  6  1  0  0  0
  5  7  1  0  0  0
  7 36  1  0  0  0
 36 37  1  0  0  0
  5  8  1  0  0  0
  8  9  1  0  0  0
  9 10  2  0  0  0
 10 11  1  0  0  0
 11 12  2  0  0  0
 12 13  1  0  0  0
 13 14  2  0  0  0
 14 15  1  0  0  0
 15 16  2  0  0  0
 16 17  1  0  0  0
 17 18  1  0  0  0
 18 19  1  0  0  0
 19 20  2  0  0  0
 19 21  1  0  0  0
 21 22  2  0  0  0
 22 23  1  0  0  0
 23 24  2  0  0  0
 24 25  1  0  0  0
 25 26  2  0  0  0
 26 27  1  0  0  0
 27 28  2  0  0  0
 28 29  1  0  0  0
 29 30  1  0  0  0
 30 31  2  0  0  0
  7  1  1  0  0  0
 31  8  1  0  0  0
 29  3  1  0  0  0
 14  9  1  0  0  0
 31 15  1  0  0  0
 21 16  1  0  0  0
 30 22  1  0  0  0
 28 23  1  0  0  0
 34 35  1  0  0  0
 18 32  1  0  0  0
M  END
> <minimizedAffinity>
-9.73848

> <CNNscore>
0.4117953181

> <CNNaffinity>
6.6683044434

> <CNN_VS>
2.7459764481

> <CNNaffinity_variance>
0.2327299565

$$$$
[H]c1c([H])c([H])c2c(c1[H])c1c3c(c4c5c([H])c([H])c([H])c([H])c5n5c4c1n2[C@@]1(C([H])([H])[H])O[C@]5([H])C([H])([H])[C@@]([H])(N([H])C([H])([H])[H])[C@@]1([H])OC([H])([H])[H])C(=O)N([H])C3([H])[H]


 37 44  0  0  0  0  0  0  0  0999 V2000
  -21.1288   17.0148  -19.5916 C   0  0  0  0  0  0  0  0  0  0  0  0
  -19.8921   17.3974  -20.2754 C   0  0  0  0  0  0  0  0  0  0  0  0
  -18.6753   17.0888  -19.4964 C   0  0  0  0  0  0  0  0  0  0  0  0
  -18.7216   16.8017  -18.2235 O   0  0  0  0  0  0  0  0  0  0  0  0
  -19.7700   16.0919  -17.6444 C   0  0  0  0  0  0  0  0  0  0  0  0
  -19.5908   16.4738  -16.1691 C   0  0  0  0  0  0  0  0  0  0  0  0
  -21.0423   16.5900  -18.1527 C   0  0  0  0  0  0  0  0  0  0  0  0
  -19.5165   14.6567  -17.8619 N   0  0  0  0  0  0  0  0  0  0  0  0
  -19.9388   13.6322  -17.1233 C   0  0  0  0  0  0  0  0  0  0  0  0
  -20.7300   13.5529  -16.0112 C   0  0  0  0  0  0  0  0  0  0  0  0
  -21.0311   12.3453  -15.4221 C   0  0  0  0  0  0  0  0  0  0  0  0
  -20.5372   11.1440  -15.9401 C   0  0  0  0  0  0  0  0  0  0  0  0
  -19.7505   11.2179  -17.0460 C   0  0  0  0  0  0  0  0  0  0  0  0
  -19.4580   12.4250  -17.6233 C   0  0  0  0  0  0  0  0  0  0  0  0
  -18.7071   12.7422  -18.7243 C   0  0  0  0  0  0  0  0  0  0  0  0
  -17.9764   11.9797  -19.6382 C   0  0  0  0  0  0  0  0  0  0  0  0
  -17.7727   10.5145  -19.7065 C   0  0  0  0  0  0  0  0  0  0  0  0
  -16.9416   10.2596  -20.8364 N   0  0  0  0  0  0  0  0  0  0  0  0
  -16.6330   11.5130  -21.4551 C   0  0  0  0  0  0  0  0  0  0  0  0
  -15.9224   11.5682  -22.4606 O   0  0  0  0  0  0  0  0  0  0  0  0
  -17.2839   12.5650  -20.6971 C   0  0  0  0  0  0  0  0  0  0  0  0
  -17.3528   13.9358  -20.8040 C   0  0  0  0  0  0  0  0  0  0  0  0
  -16.8356   14.8632  -21.6903 C   0  0  0  0  0  0  0  0  0  0  0  0
  -16.0420   14.7462  -22.7967 C   0  0  0  0  0  0  0  0  0  0  0  0
  -15.6839   15.8841  -23.4927 C   0  0  0  0  0  0  0  0  0  0  0  0
  -16.1144   17.1212  -23.0864 C   0  0  0  0  0  0  0  0  0  0  0  0
  -16.9148   17.2544  -21.9732 C   0  0  0  0  0  0  0  0  0  0  0  0
  -17.2638   16.1224  -21.2910 C   0  0  0  0  0  0  0  0  0  0  0  0
  -18.0072   15.9839  -20.2133 N   0  0  0  0  0  0  0  0  0  0  0  0
  -18.0909   14.6944  -19.8789 C   0  0  0  0  0  0  0  0  0  0  0  0
  -18.7702   14.0941  -18.8326 C   0  0  0  0  0  0  0  0  0  0  0  0
  -16.6258    9.3084  -21.1395 H   0  0  0  0  0  0  0  0  0  0  0  0
  -22.7723   16.5576  -21.2797 C   0  0  0  0  0  0  0  0  0  0  0  0
  -21.7778   15.9625  -20.4063 N   0  0  0  0  0  0  0  0  0  0  0  0
  -21.0877   15.5000  -21.0360 H   0  0  0  0  0  0  0  0  0  0  0  0
  -22.1450   15.7564  -17.9809 O   0  0  0  0  0  0  0  0  0  0  0  0
  -23.0795   16.2626  -17.0859 C   0  0  0  0  0  0  0  0  0  0  0  0
 33 34  1  0  0  0
 34  1  1  0  0  0
  1  2  1  0  0  0
  2  3  1  0  0  0
  3  4  1  0  0  0
  4  5  1  0  0  0
  5  6  1  0  0  0
  5  7  1  0  0  0
  7 36  1  0  0  0
 36 37  1  0  0  0
  5  8  1  0  0  0
  8  9  1  0  0  0
  9 10  2  0  0  0
 10 11  1  0  0  0
 11 12  2  0  0  0
 12 13  1  0  0  0
 13 14  2  0  0  0
 14 15  1  0  0  0
 15 16  2  0  0  0
 16 17  1  0  0  0
 17 18  1  0  0  0
 18 19  1  0  0  0
 19 20  2  0  0  0
 19 21  1  0  0  0
 21 22  2  0  0  0
 22 23  1  0  0  0
 23 24  2  0  0  0
 24 25  1  0  0  0
 25 26  2  0  0  0
 26 27  1  0  0  0
 27 28  2  0  0  0
 28 29  1  0  0  0
 29 30  1  0  0  0
 30 31  2  0  0  0
  7  1  1  0  0  0
 31  8  1  0  0  0
 29  3  1  0  0  0
 14  9  1  0  0  0
 31 15  1  0  0  0
 21 16  1  0  0  0
 30 22  1  0  0  0
 28 23  1  0  0  0
 34 35  1  0  0  0
 18 32  1  0  0  0
M  END
> <minimizedAffinity>
-9.40698

> <CNNscore>
0.2117197812

> <CNNaffinity>
6.4104409218

> <CNN_VS>
1.3572171926

> <CNNaffinity_variance>
0.1029705778

$$$$
[H]c1c([H])c([H])c2c(c1[H])c1c3c(c4c5c([H])c([H])c([H])c([H])c5n5c4c1n2[C@@]1(C([H])([H])[H])O[C@]5([H])C([H])([H])[C@@]([H])(N([H])C([H])([H])[H])[C@@]1([H])OC([H])([H])[H])C(=O)N([H])C3([H])[H]


 37 44  0  0  0  0  0  0  0  0999 V2000
  -16.5455   16.9223  -23.0810 C   0  0  0  0  0  0  0  0  0  0  0  0
  -17.9057   17.4545  -22.9816 C   0  0  0  0  0  0  0  0  0  0  0  0
  -18.9478   16.4526  -23.2857 C   0  0  0  0  0  0  0  0  0  0  0  0
  -18.6708   15.3221  -23.8774 O   0  0  0  0  0  0  0  0  0  0  0  0
  -17.4834   14.6268  -23.6652 C   0  0  0  0  0  0  0  0  0  0  0  0
  -17.4549   13.7275  -24.9081 C   0  0  0  0  0  0  0  0  0  0  0  0
  -16.3597   15.5555  -23.6777 C   0  0  0  0  0  0  0  0  0  0  0  0
  -17.6396   13.8344  -22.4328 N   0  0  0  0  0  0  0  0  0  0  0  0
  -17.0136   12.7062  -22.1030 C   0  0  0  0  0  0  0  0  0  0  0  0
  -16.0490   11.9634  -22.7249 C   0  0  0  0  0  0  0  0  0  0  0  0
  -15.5500   10.8095  -22.1634 C   0  0  0  0  0  0  0  0  0  0  0  0
  -16.0119   10.3476  -20.9269 C   0  0  0  0  0  0  0  0  0  0  0  0
  -16.9706   11.0832  -20.3046 C   0  0  0  0  0  0  0  0  0  0  0  0
  -17.4593   12.2295  -20.8731 C   0  0  0  0  0  0  0  0  0  0  0  0
  -18.4037   13.1220  -20.4395 C   0  0  0  0  0  0  0  0  0  0  0  0
  -19.2016   13.1931  -19.2954 C   0  0  0  0  0  0  0  0  0  0  0  0
  -19.2821   12.2785  -18.1336 C   0  0  0  0  0  0  0  0  0  0  0  0
  -20.2589   12.8155  -17.2449 N   0  0  0  0  0  0  0  0  0  0  0  0
  -20.7742   14.0193  -17.8231 C   0  0  0  0  0  0  0  0  0  0  0  0
  -21.6402   14.6813  -17.2479 O   0  0  0  0  0  0  0  0  0  0  0  0
  -20.1058   14.2346  -19.0927 C   0  0  0  0  0  0  0  0  0  0  0  0
  -20.1778   15.1966  -20.0748 C   0  0  0  0  0  0  0  0  0  0  0  0
  -20.9122   16.3571  -20.2389 C   0  0  0  0  0  0  0  0  0  0  0  0
  -21.8607   16.9706  -19.4699 C   0  0  0  0  0  0  0  0  0  0  0  0
  -22.4269   18.1504  -19.9116 C   0  0  0  0  0  0  0  0  0  0  0  0
  -22.0484   18.7074  -21.1063 C   0  0  0  0  0  0  0  0  0  0  0  0
  -21.0936   18.1002  -21.8920 C   0  0  0  0  0  0  0  0  0  0  0  0
  -20.5392   16.9329  -21.4462 C   0  0  0  0  0  0  0  0  0  0  0  0
  -19.6218   16.1698  -22.0025 N   0  0  0  0  0  0  0  0  0  0  0  0
  -19.3704   15.1160  -21.2228 C   0  0  0  0  0  0  0  0  0  0  0  0
  -18.4799   14.0720  -21.4065 C   0  0  0  0  0  0  0  0  0  0  0  0
  -20.5334   12.3829  -16.3317 H   0  0  0  0  0  0  0  0  0  0  0  0
  -16.6750   17.9347  -20.9089 C   0  0  0  0  0  0  0  0  0  0  0  0
  -15.9455   16.9851  -21.7289 N   0  0  0  0  0  0  0  0  0  0  0  0
  -16.0281   16.0674  -21.2413 H   0  0  0  0  0  0  0  0  0  0  0  0
  -15.1738   15.0978  -23.1081 O   0  0  0  0  0  0  0  0  0  0  0  0
  -14.2121   14.7525  -24.0496 C   0  0  0  0  0  0  0  0  0  0  0  0
 33 34  1  0  0  0
 34  1  1  0  0  0
  1  2  1  0  0  0
  2  3  1  0  0  0
  3  4  1  0  0  0
  4  5  1  0  0  0
  5  6  1  0  0  0
  5  7  1  0  0  0
  7 36  1  0  0  0
 36 37  1  0  0  0
  5  8  1  0  0  0
  8  9  1  0  0  0
  9 10  2  0  0  0
 10 11  1  0  0  0
 11 12  2  0  0  0
 12 13  1  0  0  0
 13 14  2  0  0  0
 14 15  1  0  0  0
 15 16  2  0  0  0
 16 17  1  0  0  0
 17 18  1  0  0  0
 18 19  1  0  0  0
 19 20  2  0  0  0
 19 21  1  0  0  0
 21 22  2  0  0  0
 22 23  1  0  0  0
 23 24  2  0  0  0
 24 25  1  0  0  0
 25 26  2  0  0  0
 26 27  1  0  0  0
 27 28  2  0  0  0
 28 29  1  0  0  0
 29 30  1  0  0  0
 30 31  2  0  0  0
  7  1  1  0  0  0
 31  8  1  0  0  0
 29  3  1  0  0  0
 14  9  1  0  0  0
 31 15  1  0  0  0
 21 16  1  0  0  0
 30 22  1  0  0  0
 28 23  1  0  0  0
 34 35  1  0  0  0
 18 32  1  0  0  0
M  END
> <minimizedAffinity>
-10.32421

> <CNNscore>
0.2031079233

> <CNNaffinity>
6.1424956322

> <CNN_VS>
1.2475895882

> <CNNaffinity_variance>
0.9806245565

$$$$
[H]c1c([H])c([H])c2c(c1[H])c1c3c(c4c5c([H])c([H])c([H])c([H])c5n5c4c1n2[C@@]1(C([H])([H])[H])O[C@]5([H])C([H])([H])[C@@]([H])(N([H])C([H])([H])[H])[C@@]1([H])OC([H])([H])[H])C(=O)N([H])C3([H])[H]


 37 44  0  0  0  0  0  0  0  0999 V2000
  -18.4262   17.1667  -19.3028 C   0  0  0  0  0  0  0  0  0  0  0  0
  -19.6542   16.8327  -18.5791 C   0  0  0  0  0  0  0  0  0  0  0  0
  -20.5003   15.8509  -19.2881 C   0  0  0  0  0  0  0  0  0  0  0  0
  -20.3204   15.5634  -20.5490 O   0  0  0  0  0  0  0  0  0  0  0  0
  -19.0631   15.5277  -21.1461 C   0  0  0  0  0  0  0  0  0  0  0  0
  -19.4479   15.6554  -22.6260 C   0  0  0  0  0  0  0  0  0  0  0  0
  -18.2813   16.6812  -20.7176 C   0  0  0  0  0  0  0  0  0  0  0  0
  -18.4652   14.2120  -20.8585 N   0  0  0  0  0  0  0  0  0  0  0  0
  -17.5523   13.5567  -21.5731 C   0  0  0  0  0  0  0  0  0  0  0  0
  -16.8696   13.8669  -22.7162 C   0  0  0  0  0  0  0  0  0  0  0  0
  -15.9522   13.0013  -23.2686 C   0  0  0  0  0  0  0  0  0  0  0  0
  -15.6797   11.7626  -22.6796 C   0  0  0  0  0  0  0  0  0  0  0  0
  -16.3559   11.4500  -21.5427 C   0  0  0  0  0  0  0  0  0  0  0  0
  -17.2661   12.3194  -21.0025 C   0  0  0  0  0  0  0  0  0  0  0  0
  -18.0489   12.2276  -19.8821 C   0  0  0  0  0  0  0  0  0  0  0  0
  -18.2126   11.2432  -18.9051 C   0  0  0  0  0  0  0  0  0  0  0  0
  -17.5589    9.9216  -18.7676 C   0  0  0  0  0  0  0  0  0  0  0  0
  -18.0870    9.3137  -17.5912 N   0  0  0  0  0  0  0  0  0  0  0  0
  -19.0358   10.2147  -17.0109 C   0  0  0  0  0  0  0  0  0  0  0  0
  -19.6399    9.9232  -15.9768 O   0  0  0  0  0  0  0  0  0  0  0  0
  -19.0982   11.4034  -17.8405 C   0  0  0  0  0  0  0  0  0  0  0  0
  -19.8080   12.5819  -17.7930 C   0  0  0  0  0  0  0  0  0  0  0  0
  -20.7427   13.1129  -16.9227 C   0  0  0  0  0  0  0  0  0  0  0  0
  -21.3175   12.6385  -15.7771 C   0  0  0  0  0  0  0  0  0  0  0  0
  -22.2414   13.4210  -15.1126 C   0  0  0  0  0  0  0  0  0  0  0  0
  -22.5846   14.6605  -15.5886 C   0  0  0  0  0  0  0  0  0  0  0  0
  -22.0134   15.1516  -16.7419 C   0  0  0  0  0  0  0  0  0  0  0  0
  -21.1002   14.3697  -17.3925 C   0  0  0  0  0  0  0  0  0  0  0  0
  -20.4233   14.6065  -18.4966 N   0  0  0  0  0  0  0  0  0  0  0  0
  -19.6361   13.5667  -18.7814 C   0  0  0  0  0  0  0  0  0  0  0  0
  -18.7530   13.3875  -19.8324 C   0  0  0  0  0  0  0  0  0  0  0  0
  -17.8106    8.3685  -17.2352 H   0  0  0  0  0  0  0  0  0  0  0  0
  -17.7712   16.1987  -17.2067 C   0  0  0  0  0  0  0  0  0  0  0  0
  -17.2866   16.7078  -18.4764 N   0  0  0  0  0  0  0  0  0  0  0  0
  -16.7931   15.9104  -18.9318 H   0  0  0  0  0  0  0  0  0  0  0  0
  -16.9036   16.5978  -20.9056 O   0  0  0  0  0  0  0  0  0  0  0  0
  -16.4315   17.4638  -21.8842 C   0  0  0  0  0  0  0  0  0  0  0  0
 33 34  1  0  0  0
 34  1  1  0  0  0
  1  2  1  0  0  0
  2  3  1  0  0  0
  3  4  1  0  0  0
  4  5  1  0  0  0
  5  6  1  0  0  0
  5  7  1  0  0  0
  7 36  1  0  0  0
 36 37  1  0  0  0
  5  8  1  0  0  0
  8  9  1  0  0  0
  9 10  2  0  0  0
 10 11  1  0  0  0
 11 12  2  0  0  0
 12 13  1  0  0  0
 13 14  2  0  0  0
 14 15  1  0  0  0
 15 16  2  0  0  0
 16 17  1  0  0  0
 17 18  1  0  0  0
 18 19  1  0  0  0
 19 20  2  0  0  0
 19 21  1  0  0  0
 21 22  2  0  0  0
 22 23  1  0  0  0
 23 24  2  0  0  0
 24 25  1  0  0  0
 25 26  2  0  0  0
 26 27  1  0  0  0
 27 28  2  0  0  0
 28 29  1  0  0  0
 29 30  1  0  0  0
 30 31  2  0  0  0
  7  1  1  0  0  0
 31  8  1  0  0  0
 29  3  1  0  0  0
 14  9  1  0  0  0
 31 15  1  0  0  0
 21 16  1  0  0  0
 30 22  1  0  0  0
 28 23  1  0  0  0
 34 35  1  0  0  0
 18 32  1  0  0  0
M  END
> <minimizedAffinity>
-9.34097

> <CNNscore>
0.2008534074

> <CNNaffinity>
6.4794378281

> <CNN_VS>
1.3014171124

> <CNNaffinity_variance>
0.2221432030

$$$$
[H]c1c([H])c([H])c2c(c1[H])c1c3c(c4c5c([H])c([H])c([H])c([H])c5n5c4c1n2[C@@]1(C([H])([H])[H])O[C@]5([H])C([H])([H])[C@@]([H])(N([H])C([H])([H])[H])[C@@]1([H])OC([H])([H])[H])C(=O)N([H])C3([H])[H]


 37 44  0  0  0  0  0  0  0  0999 V2000
  -19.6113   16.1230  -17.2633 C   0  0  0  0  0  0  0  0  0  0  0  0
  -19.5428   14.6614  -17.3097 C   0  0  0  0  0  0  0  0  0  0  0  0
  -20.3222   14.0758  -18.4197 C   0  0  0  0  0  0  0  0  0  0  0  0
  -21.2139   14.7646  -19.0794 O   0  0  0  0  0  0  0  0  0  0  0  0
  -21.0745   16.1235  -19.3488 C   0  0  0  0  0  0  0  0  0  0  0  0
  -22.5297   16.5034  -19.6530 C   0  0  0  0  0  0  0  0  0  0  0  0
  -20.6017   16.8161  -18.1563 C   0  0  0  0  0  0  0  0  0  0  0  0
  -20.2229   16.2607  -20.5434 N   0  0  0  0  0  0  0  0  0  0  0  0
  -20.2059   17.2604  -21.4231 C   0  0  0  0  0  0  0  0  0  0  0  0
  -20.8906   18.4412  -21.5005 C   0  0  0  0  0  0  0  0  0  0  0  0
  -20.6861   19.3299  -22.5321 C   0  0  0  0  0  0  0  0  0  0  0  0
  -19.7645   19.0597  -23.5485 C   0  0  0  0  0  0  0  0  0  0  0  0
  -19.0810   17.8870  -23.4755 C   0  0  0  0  0  0  0  0  0  0  0  0
  -19.2930   17.0109  -22.4443 C   0  0  0  0  0  0  0  0  0  0  0  0
  -18.7292   15.7950  -22.1609 C   0  0  0  0  0  0  0  0  0  0  0  0
  -17.7628   15.0144  -22.7992 C   0  0  0  0  0  0  0  0  0  0  0  0
  -17.0069   15.2686  -24.0470 C   0  0  0  0  0  0  0  0  0  0  0  0
  -16.1463   14.1504  -24.2503 N   0  0  0  0  0  0  0  0  0  0  0  0
  -16.3517   13.2281  -23.1751 C   0  0  0  0  0  0  0  0  0  0  0  0
  -15.7229   12.1696  -23.1160 O   0  0  0  0  0  0  0  0  0  0  0  0
  -17.3568   13.7827  -22.2879 C   0  0  0  0  0  0  0  0  0  0  0  0
  -17.9526   13.3671  -21.1185 C   0  0  0  0  0  0  0  0  0  0  0  0
  -17.8213   12.2527  -20.3098 C   0  0  0  0  0  0  0  0  0  0  0  0
  -17.0415   11.1335  -20.3930 C   0  0  0  0  0  0  0  0  0  0  0  0
  -17.1360   10.1713  -19.4067 C   0  0  0  0  0  0  0  0  0  0  0  0
  -17.9991   10.3280  -18.3525 C   0  0  0  0  0  0  0  0  0  0  0  0
  -18.7912   11.4508  -18.2555 C   0  0  0  0  0  0  0  0  0  0  0  0
  -18.6904   12.3974  -19.2366 C   0  0  0  0  0  0  0  0  0  0  0  0
  -19.3282   13.5411  -19.3721 N   0  0  0  0  0  0  0  0  0  0  0  0
  -18.9244   14.1601  -20.4837 C   0  0  0  0  0  0  0  0  0  0  0  0
  -19.3158   15.3798  -21.0090 C   0  0  0  0  0  0  0  0  0  0  0  0
  -15.4866   14.0469  -25.0569 H   0  0  0  0  0  0  0  0  0  0  0  0
  -17.3036   15.5346  -17.5599 C   0  0  0  0  0  0  0  0  0  0  0  0
  -18.2444   16.6383  -17.5045 N   0  0  0  0  0  0  0  0  0  0  0  0
  -18.1822   17.1107  -18.4317 H   0  0  0  0  0  0  0  0  0  0  0  0
  -20.0500   18.0798  -18.3541 O   0  0  0  0  0  0  0  0  0  0  0  0
  -20.7941   19.0988  -17.7724 C   0  0  0  0  0  0  0  0  0  0  0  0
 33 34  1  0  0  0
 34  1  1  0  0  0
  1  2  1  0  0  0
  2  3  1  0  0  0
  3  4  1  0  0  0
  4  5  1  0  0  0
  5  6  1  0  0  0
  5  7  1  0  0  0
  7 36  1  0  0  0
 36 37  1  0  0  0
  5  8  1  0  0  0
  8  9  1  0  0  0
  9 10  2  0  0  0
 10 11  1  0  0  0
 11 12  2  0  0  0
 12 13  1  0  0  0
 13 14  2  0  0  0
 14 15  1  0  0  0
 15 16  2  0  0  0
 16 17  1  0  0  0
 17 18  1  0  0  0
 18 19  1  0  0  0
 19 20  2  0  0  0
 19 21  1  0  0  0
 21 22  2  0  0  0
 22 23  1  0  0  0
 23 24  2  0  0  0
 24 25  1  0  0  0
 25 26  2  0  0  0
 26 27  1  0  0  0
 27 28  2  0  0  0
 28 29  1  0  0  0
 29 30  1  0  0  0
 30 31  2  0  0  0
  7  1  1  0  0  0
 31  8  1  0  0  0
 29  3  1  0  0  0
 14  9  1  0  0  0
 31 15  1  0  0  0
 21 16  1  0  0  0
 30 22  1  0  0  0
 28 23  1  0  0  0
 34 35  1  0  0  0
 18 32  1  0  0  0
M  END
> <minimizedAffinity>
-9.75370

> <CNNscore>
0.1832960099

> <CNNaffinity>
6.4515457153

> <CNN_VS>
1.1825425625

> <CNNaffinity_variance>
0.1605313122

$$$$
[H]c1c([H])c([H])c2c(c1[H])c1c3c(c4c5c([H])c([H])c([H])c([H])c5n5c4c1n2[C@@]1(C([H])([H])[H])O[C@]5([H])C([H])([H])[C@@]([H])(N([H])C([H])([H])[H])[C@@]1([H])OC([H])([H])[H])C(=O)N([H])C3([H])[H]


 37 44  0  0  0  0  0  0  0  0999 V2000
  -16.6608   15.1013  -22.5370 C   0  0  0  0  0  0  0  0  0  0  0  0
  -17.4276   16.2348  -23.0572 C   0  0  0  0  0  0  0  0  0  0  0  0
  -18.8682   16.1599  -22.7385 C   0  0  0  0  0  0  0  0  0  0  0  0
  -19.4289   15.0578  -22.3191 O   0  0  0  0  0  0  0  0  0  0  0  0
  -18.7788   14.1428  -21.4954 C   0  0  0  0  0  0  0  0  0  0  0  0
  -19.6334   12.8905  -21.7321 C   0  0  0  0  0  0  0  0  0  0  0  0
  -17.4170   13.9323  -21.9712 C   0  0  0  0  0  0  0  0  0  0  0  0
  -18.9004   14.6211  -20.1070 N   0  0  0  0  0  0  0  0  0  0  0  0
  -18.8777   13.8972  -18.9894 C   0  0  0  0  0  0  0  0  0  0  0  0
  -18.7057   12.5620  -18.7511 C   0  0  0  0  0  0  0  0  0  0  0  0
  -18.7194   12.0473  -17.4740 C   0  0  0  0  0  0  0  0  0  0  0  0
  -18.9108   12.8738  -16.3624 C   0  0  0  0  0  0  0  0  0  0  0  0
  -19.0818   14.2021  -16.5944 C   0  0  0  0  0  0  0  0  0  0  0  0
  -19.0661   14.7025  -17.8694 C   0  0  0  0  0  0  0  0  0  0  0  0
  -19.2077   15.9810  -18.3404 C   0  0  0  0  0  0  0  0  0  0  0  0
  -19.4205   17.2134  -17.7189 C   0  0  0  0  0  0  0  0  0  0  0  0
  -19.5688   17.5413  -16.2824 C   0  0  0  0  0  0  0  0  0  0  0  0
  -19.7678   18.9501  -16.1929 N   0  0  0  0  0  0  0  0  0  0  0  0
  -19.7468   19.4887  -17.5189 C   0  0  0  0  0  0  0  0  0  0  0  0
  -19.8981   20.6957  -17.7178 O   0  0  0  0  0  0  0  0  0  0  0  0
  -19.5305   18.3961  -18.4486 C   0  0  0  0  0  0  0  0  0  0  0  0
  -19.4183   18.2960  -19.8170 C   0  0  0  0  0  0  0  0  0  0  0  0
  -19.4549   19.2051  -20.8588 C   0  0  0  0  0  0  0  0  0  0  0  0
  -19.6319   20.5595  -20.9017 C   0  0  0  0  0  0  0  0  0  0  0  0
  -19.6180   21.2028  -22.1238 C   0  0  0  0  0  0  0  0  0  0  0  0
  -19.4296   20.4996  -23.2861 C   0  0  0  0  0  0  0  0  0  0  0  0
  -19.2500   19.1341  -23.2582 C   0  0  0  0  0  0  0  0  0  0  0  0
  -19.2653   18.5066  -22.0438 C   0  0  0  0  0  0  0  0  0  0  0  0
  -19.1192   17.2308  -21.7531 N   0  0  0  0  0  0  0  0  0  0  0  0
  -19.2043   17.0508  -20.4331 C   0  0  0  0  0  0  0  0  0  0  0  0
  -19.1001   15.8870  -19.6906 C   0  0  0  0  0  0  0  0  0  0  0  0
  -19.9036   19.4755  -15.2974 H   0  0  0  0  0  0  0  0  0  0  0  0
  -15.8771   17.0688  -21.4081 C   0  0  0  0  0  0  0  0  0  0  0  0
  -15.7046   15.6339  -21.5399 N   0  0  0  0  0  0  0  0  0  0  0  0
  -15.8929   15.2377  -20.5942 H   0  0  0  0  0  0  0  0  0  0  0  0
  -16.5267   13.3630  -21.0636 O   0  0  0  0  0  0  0  0  0  0  0  0
  -16.2576   12.0255  -21.3268 C   0  0  0  0  0  0  0  0  0  0  0  0
 33 34  1  0  0  0
 34  1  1  0  0  0
  1  2  1  0  0  0
  2  3  1  0  0  0
  3  4  1  0  0  0
  4  5  1  0  0  0
  5  6  1  0  0  0
  5  7  1  0  0  0
  7 36  1  0  0  0
 36 37  1  0  0  0
  5  8  1  0  0  0
  8  9  1  0  0  0
  9 10  2  0  0  0
 10 11  1  0  0  0
 11 12  2  0  0  0
 12 13  1  0  0  0
 13 14  2  0  0  0
 14 15  1  0  0  0
 15 16  2  0  0  0
 16 17  1  0  0  0
 17 18  1  0  0  0
 18 19  1  0  0  0
 19 20  2  0  0  0
 19 21  1  0  0  0
 21 22  2  0  0  0
 22 23  1  0  0  0
 23 24  2  0  0  0
 24 25  1  0  0  0
 25 26  2  0  0  0
 26 27  1  0  0  0
 27 28  2  0  0  0
 28 29  1  0  0  0
 29 30  1  0  0  0
 30 31  2  0  0  0
  7  1  1  0  0  0
 31  8  1  0  0  0
 29  3  1  0  0  0
 14  9  1  0  0  0
 31 15  1  0  0  0
 21 16  1  0  0  0
 30 22  1  0  0  0
 28 23  1  0  0  0
 34 35  1  0  0  0
 18 32  1  0  0  0
M  END
> <minimizedAffinity>
-3.34577

> <CNNscore>
0.1739896685

> <CNNaffinity>
6.1618976593

> <CNN_VS>
1.0721064806

> <CNNaffinity_variance>
0.3530353308

$$$$
[H]c1c([H])c([H])c2c(c1[H])c1c3c(c4c5c([H])c([H])c([H])c([H])c5n5c4c1n2[C@@]1(C([H])([H])[H])O[C@]5([H])C([H])([H])[C@@]([H])(N([H])C([H])([H])[H])[C@@]1([H])OC([H])([H])[H])C(=O)N([H])C3([H])[H]


 37 44  0  0  0  0  0  0  0  0999 V2000
  -19.2551    7.0324  -15.4700 C   0  0  0  0  0  0  0  0  0  0  0  0
  -18.8567    6.9625  -14.0630 C   0  0  0  0  0  0  0  0  0  0  0  0
  -18.2160    8.2013  -13.5758 C   0  0  0  0  0  0  0  0  0  0  0  0
  -17.7776    9.1218  -14.3914 O   0  0  0  0  0  0  0  0  0  0  0  0
  -18.4081    9.4319  -15.5934 C   0  0  0  0  0  0  0  0  0  0  0  0
  -17.2694   10.1436  -16.3360 C   0  0  0  0  0  0  0  0  0  0  0  0
  -18.7829    8.2040  -16.2842 C   0  0  0  0  0  0  0  0  0  0  0  0
  -19.5155   10.3572  -15.2955 N   0  0  0  0  0  0  0  0  0  0  0  0
  -20.0622   11.2629  -16.1044 C   0  0  0  0  0  0  0  0  0  0  0  0
  -19.8346   11.6004  -17.4095 C   0  0  0  0  0  0  0  0  0  0  0  0
  -20.5532   12.5939  -18.0359 C   0  0  0  0  0  0  0  0  0  0  0  0
  -21.5510   13.3023  -17.3590 C   0  0  0  0  0  0  0  0  0  0  0  0
  -21.7812   12.9699  -16.0613 C   0  0  0  0  0  0  0  0  0  0  0  0
  -21.0598   11.9796  -15.4489 C   0  0  0  0  0  0  0  0  0  0  0  0
  -21.1166   11.4748  -14.1767 C   0  0  0  0  0  0  0  0  0  0  0  0
  -21.9010   11.7745  -13.0607 C   0  0  0  0  0  0  0  0  0  0  0  0
  -22.9710   12.7843  -12.8936 C   0  0  0  0  0  0  0  0  0  0  0  0
  -23.4465   12.6728  -11.5542 N   0  0  0  0  0  0  0  0  0  0  0  0
  -22.7059   11.6355  -10.9029 C   0  0  0  0  0  0  0  0  0  0  0  0
  -22.9261   11.3388   -9.7270 O   0  0  0  0  0  0  0  0  0  0  0  0
  -21.7541   11.0925  -11.8538 C   0  0  0  0  0  0  0  0  0  0  0  0
  -20.7971   10.1039  -11.8097 C   0  0  0  0  0  0  0  0  0  0  0  0
  -20.3661    9.2185  -10.8384 C   0  0  0  0  0  0  0  0  0  0  0  0
  -20.7388    9.0135   -9.5397 C   0  0  0  0  0  0  0  0  0  0  0  0
  -20.1079    8.0288   -8.8048 C   0  0  0  0  0  0  0  0  0  0  0  0
  -19.1181    7.2608   -9.3628 C   0  0  0  0  0  0  0  0  0  0  0  0
  -18.7321    7.4562  -10.6706 C   0  0  0  0  0  0  0  0  0  0  0  0
  -19.3624    8.4331  -11.3896 C   0  0  0  0  0  0  0  0  0  0  0  0
  -19.1796    8.8112  -12.6374 N   0  0  0  0  0  0  0  0  0  0  0  0
  -20.0126    9.8099  -12.9386 C   0  0  0  0  0  0  0  0  0  0  0  0
  -20.1723   10.5004  -14.1278 C   0  0  0  0  0  0  0  0  0  0  0  0
  -24.2085   13.2617  -11.1430 H   0  0  0  0  0  0  0  0  0  0  0  0
  -21.3042    7.4643  -14.2976 C   0  0  0  0  0  0  0  0  0  0  0  0
  -20.7311    6.9271  -15.5179 N   0  0  0  0  0  0  0  0  0  0  0  0
  -21.1211    7.5053  -16.2928 H   0  0  0  0  0  0  0  0  0  0  0  0
  -19.7434    8.3272  -17.2854 O   0  0  0  0  0  0  0  0  0  0  0  0
  -20.9809    7.8095  -16.9232 C   0  0  0  0  0  0  0  0  0  0  0  0
 33 34  1  0  0  0
 34  1  1  0  0  0
  1  2  1  0  0  0
  2  3  1  0  0  0
  3  4  1  0  0  0
  4  5  1  0  0  0
  5  6  1  0  0  0
  5  7  1  0  0  0
  7 36  1  0  0  0
 36 37  1  0  0  0
  5  8  1  0  0  0
  8  9  1  0  0  0
  9 10  2  0  0  0
 10 11  1  0  0  0
 11 12  2  0  0  0
 12 13  1  0  0  0
 13 14  2  0  0  0
 14 15  1  0  0  0
 15 16  2  0  0  0
 16 17  1  0  0  0
 17 18  1  0  0  0
 18 19  1  0  0  0
 19 20  2  0  0  0
 19 21  1  0  0  0
 21 22  2  0  0  0
 22 23  1  0  0  0
 23 24  2  0  0  0
 24 25  1  0  0  0
 25 26  2  0  0  0
 26 27  1  0  0  0
 27 28  2  0  0  0
 28 29  1  0  0  0
 29 30  1  0  0  0
 30 31  2  0  0  0
  7  1  1  0  0  0
 31  8  1  0  0  0
 29  3  1  0  0  0
 14  9  1  0  0  0
 31 15  1  0  0  0
 21 16  1  0  0  0
 30 22  1  0  0  0
 28 23  1  0  0  0
 34 35  1  0  0  0
 18 32  1  0  0  0
M  END
> <minimizedAffinity>
7.13044

> <CNNscore>
0.1295832694

> <CNNaffinity>
5.2349739075

> <CNN_VS>
0.6783650517

> <CNNaffinity_variance>
0.2896546721

$$$$
[H]c1nc(N([H])[H])c([H])c(-n2c(N([H])c3c([H])c(N([H])C(=O)c4c([H])c([H])c(C([H])([H])N5C([H])([H])C([H])([H])N(C([H])([H])C([H])([H])[H])C([H])([H])C5([H])[H])c(Cl)c4[H])c([H])c([H])c3C([H])([H])[H])nc3c([H])c([H])c([H])c([H])c32)n1


 47 52  0  0  0  0  0  0  0  0999 V2000
  -18.0441   11.2235  -18.6886 C   0  0  0  0  0  0  0  0  0  0  0  0
  -16.7977   10.6297  -18.4710 C   0  0  0  0  0  0  0  0  0  0  0  0
  -15.9245   10.5031  -19.4920 C   0  0  0  0  0  0  0  0  0  0  0  0
  -16.2133   10.9377  -20.7473 C   0  0  0  0  0  0  0  0  0  0  0  0
  -15.2045   10.7751  -21.8537 C   0  0  0  0  0  0  0  0  0  0  0  0
  -17.4421   11.5330  -21.0047 C   0  0  0  0  0  0  0  0  0  0  0  0
  -18.3363   11.6640  -19.9668 C   0  0  0  0  0  0  0  0  0  0  0  0
  -19.4876   10.2954  -16.8473 C   0  0  0  0  0  0  0  0  0  0  0  0
  -19.1925    9.0861  -17.0424 O   0  0  0  0  0  0  0  0  0  0  0  0
  -18.9586   11.3274  -17.6169 N   0  0  0  0  0  0  0  0  0  0  0  0
  -19.2788   12.3172  -17.3638 H   0  0  0  0  0  0  0  0  0  0  0  0
  -22.1860   11.1032  -13.5836 C   0  0  0  0  0  0  0  0  0  0  0  0
  -22.6247   10.9676  -14.8738 C   0  0  0  0  0  0  0  0  0  0  0  0
  -21.7570   10.7018  -15.9487 C   0  0  0  0  0  0  0  0  0  0  0  0
  -20.4337   10.5690  -15.7477 C   0  0  0  0  0  0  0  0  0  0  0  0
  -19.9602   10.7007  -14.4614 C   0  0  0  0  0  0  0  0  0  0  0  0
  -20.7932   10.9583  -13.4074 C   0  0  0  0  0  0  0  0  0  0  0  0
  -20.1760   11.1240  -11.7658 Cl  0  0  0  0  0  0  0  0  0  0  0  0
  -23.0245   11.4167  -12.4052 C   0  0  0  0  0  0  0  0  0  0  0  0
  -25.4144   14.8030  -12.5339 N   0  0  0  0  0  0  0  0  0  0  0  0
  -25.7362   13.7499  -13.4770 C   0  0  0  0  0  0  0  0  0  0  0  0
  -25.1633   12.4761  -12.8765 C   0  0  0  0  0  0  0  0  0  0  0  0
  -23.7952   12.5664  -12.5649 N   0  0  0  0  0  0  0  0  0  0  0  0
  -23.1627   13.8145  -12.7467 C   0  0  0  0  0  0  0  0  0  0  0  0
  -24.0033   15.0258  -12.5623 C   0  0  0  0  0  0  0  0  0  0  0  0
  -26.2258   16.0911  -14.4440 C   0  0  0  0  0  0  0  0  0  0  0  0
  -26.1258   16.0037  -12.9226 C   0  0  0  0  0  0  0  0  0  0  0  0
  -17.7091   11.9723  -22.2957 N   0  0  0  0  0  0  0  0  0  0  0  0
  -18.5077   11.4572  -22.8132 H   0  0  0  0  0  0  0  0  0  0  0  0
  -17.0654   13.0179  -23.0293 C   0  0  0  0  0  0  0  0  0  0  0  0
  -16.2630   12.9784  -24.0966 N   0  0  0  0  0  0  0  0  0  0  0  0
  -15.8636   14.1926  -24.4916 C   0  0  0  0  0  0  0  0  0  0  0  0
  -15.0526   14.6691  -25.5149 C   0  0  0  0  0  0  0  0  0  0  0  0
  -14.8110   16.0118  -25.6886 C   0  0  0  0  0  0  0  0  0  0  0  0
  -15.4045   16.8793  -24.8066 C   0  0  0  0  0  0  0  0  0  0  0  0
  -16.2095   16.4136  -23.7897 C   0  0  0  0  0  0  0  0  0  0  0  0
  -16.4614   15.0691  -23.6027 C   0  0  0  0  0  0  0  0  0  0  0  0
  -17.1754   14.3452  -22.7369 N   0  0  0  0  0  0  0  0  0  0  0  0
  -17.9412   14.8614  -21.6692 C   0  0  0  0  0  0  0  0  0  0  0  0
  -17.2950   15.5754  -20.6701 C   0  0  0  0  0  0  0  0  0  0  0  0
  -17.9774   16.1182  -19.5798 C   0  0  0  0  0  0  0  0  0  0  0  0
  -17.2942   16.8452  -18.5707 N   0  0  0  0  0  0  0  0  0  0  0  0
  -19.3040   15.9114  -19.5485 N   0  0  0  0  0  0  0  0  0  0  0  0
  -19.9288   15.2194  -20.5174 C   0  0  0  0  0  0  0  0  0  0  0  0
  -19.2728   14.6954  -21.5688 N   0  0  0  0  0  0  0  0  0  0  0  0
  -16.4737   17.4274  -18.8189 H   0  0  0  0  0  0  0  0  0  0  0  0
  -17.6021   16.8056  -17.5797 H   0  0  0  0  0  0  0  0  0  0  0  0
 26 27  1  0  0  0
 27 20  1  0  0  0
 20 21  1  0  0  0
 21 22  1  0  0  0
 22 23  1  0  0  0
 23 19  1  0  0  0
 19 12  1  0  0  0
 12 13  2  0  0  0
 13 14  1  0  0  0
 14 15  2  0  0  0
 15 16  1  0  0  0
 16 17  2  0  0  0
 17 18  1  0  0  0
 15  8  1  0  0  0
  8  9  2  0  0  0
  8 10  1  0  0  0
 10  1  1  0  0  0
  1  2  2  0  0  0
  2  3  1  0  0  0
  3  4  2  0  0  0
  4  5  1  0  0  0
  4  6  1  0  0  0
  6 28  1  0  0  0
 28 30  1  0  0  0
 30 31  2  0  0  0
 31 32  1  0  0  0
 32 33  2  0  0  0
 33 34  1  0  0  0
 34 35  2  0  0  0
 35 36  1  0  0  0
 36 37  2  0  0  0
 37 38  1  0  0  0
 38 39  1  0  0  0
 39 40  2  0  0  0
 40 41  1  0  0  0
 41 42  1  0  0  0
 41 43  2  0  0  0
 43 44  1  0  0  0
 44 45  2  0  0  0
  6  7  2  0  0  0
 23 24  1  0  0  0
 24 25  1  0  0  0
 25 20  1  0  0  0
 17 12  1  0  0  0
  7  1  1  0  0  0
 38 30  1  0  0  0
 45 39  1  0  0  0
 37 32  1  0  0  0
 10 11  1  0  0  0
 28 29  1  0  0  0
 42 46  1  0  0  0
 42 47  1  0  0  0
M  END
> <minimizedAffinity>
-8.78994

> <CNNscore>
0.2172485292

> <CNNaffinity>
7.1481466293

> <CNN_VS>
1.5529243946

> <CNNaffinity_variance>
0.2288291901

$$$$
[H]c1nc(N([H])[H])c([H])c(-n2c(N([H])c3c([H])c(N([H])C(=O)c4c([H])c([H])c(C([H])([H])N5C([H])([H])C([H])([H])N(C([H])([H])C([H])([H])[H])C([H])([H])C5([H])[H])c(Cl)c4[H])c([H])c([H])c3C([H])([H])[H])nc3c([H])c([H])c([H])c([H])c32)n1


 47 52  0  0  0  0  0  0  0  0999 V2000
  -18.0231   11.3324  -18.9923 C   0  0  0  0  0  0  0  0  0  0  0  0
  -16.9322   10.4644  -19.0919 C   0  0  0  0  0  0  0  0  0  0  0  0
  -16.1360   10.5055  -20.1806 C   0  0  0  0  0  0  0  0  0  0  0  0
  -16.3560   11.3732  -21.2038 C   0  0  0  0  0  0  0  0  0  0  0  0
  -15.4377   11.3818  -22.3975 C   0  0  0  0  0  0  0  0  0  0  0  0
  -17.4305   12.2521  -21.1429 C   0  0  0  0  0  0  0  0  0  0  0  0
  -18.2457   12.2136  -20.0348 C   0  0  0  0  0  0  0  0  0  0  0  0
  -19.2702   10.1223  -17.1713 C   0  0  0  0  0  0  0  0  0  0  0  0
  -18.9147    8.9629  -17.5132 O   0  0  0  0  0  0  0  0  0  0  0  0
  -18.8632   11.2620  -17.8588 N   0  0  0  0  0  0  0  0  0  0  0  0
  -19.2258   12.1960  -17.4811 H   0  0  0  0  0  0  0  0  0  0  0  0
  -21.7735   10.3886  -13.6715 C   0  0  0  0  0  0  0  0  0  0  0  0
  -22.2745   10.5371  -14.9373 C   0  0  0  0  0  0  0  0  0  0  0  0
  -21.4710   10.4507  -16.0888 C   0  0  0  0  0  0  0  0  0  0  0  0
  -20.1504   10.2152  -15.9898 C   0  0  0  0  0  0  0  0  0  0  0  0
  -19.6151   10.0621  -14.7304 C   0  0  0  0  0  0  0  0  0  0  0  0
  -20.3853   10.1430  -13.6029 C   0  0  0  0  0  0  0  0  0  0  0  0
  -19.6894    9.9445  -11.9969 Cl  0  0  0  0  0  0  0  0  0  0  0  0
  -22.5407   10.4995  -12.4108 C   0  0  0  0  0  0  0  0  0  0  0  0
  -24.5093   14.1490  -12.3908 N   0  0  0  0  0  0  0  0  0  0  0  0
  -23.4858   13.9625  -11.3810 C   0  0  0  0  0  0  0  0  0  0  0  0
  -22.5647   12.8840  -11.9287 C   0  0  0  0  0  0  0  0  0  0  0  0
  -23.2345   11.7015  -12.2896 N   0  0  0  0  0  0  0  0  0  0  0  0
  -24.6426   11.6919  -12.1977 C   0  0  0  0  0  0  0  0  0  0  0  0
  -25.3384   12.9857  -12.4210 C   0  0  0  0  0  0  0  0  0  0  0  0
  -26.1609   15.7425  -13.2268 C   0  0  0  0  0  0  0  0  0  0  0  0
  -25.2897   15.3198  -12.0458 C   0  0  0  0  0  0  0  0  0  0  0  0
  -17.6291   13.1314  -22.2004 N   0  0  0  0  0  0  0  0  0  0  0  0
  -17.2864   12.7896  -23.1683 H   0  0  0  0  0  0  0  0  0  0  0  0
  -18.2284   14.4298  -22.1757 C   0  0  0  0  0  0  0  0  0  0  0  0
  -18.9908   15.0295  -21.2573 N   0  0  0  0  0  0  0  0  0  0  0  0
  -19.3560   16.2666  -21.6123 C   0  0  0  0  0  0  0  0  0  0  0  0
  -20.1204   17.2664  -21.0227 C   0  0  0  0  0  0  0  0  0  0  0  0
  -20.3343   18.4785  -21.6363 C   0  0  0  0  0  0  0  0  0  0  0  0
  -19.7606   18.6726  -22.8675 C   0  0  0  0  0  0  0  0  0  0  0  0
  -19.0017   17.6855  -23.4580 C   0  0  0  0  0  0  0  0  0  0  0  0
  -18.7781   16.4641  -22.8544 C   0  0  0  0  0  0  0  0  0  0  0  0
  -18.1084   15.3531  -23.1720 N   0  0  0  0  0  0  0  0  0  0  0  0
  -17.3751   15.1470  -24.3606 C   0  0  0  0  0  0  0  0  0  0  0  0
  -16.2698   15.9483  -24.6088 C   0  0  0  0  0  0  0  0  0  0  0  0
  -15.4915   15.8109  -25.7597 C   0  0  0  0  0  0  0  0  0  0  0  0
  -14.3650   16.6423  -25.9909 N   0  0  0  0  0  0  0  0  0  0  0  0
  -15.8720   14.8536  -26.6214 N   0  0  0  0  0  0  0  0  0  0  0  0
  -16.9433   14.0779  -26.3794 C   0  0  0  0  0  0  0  0  0  0  0  0
  -17.6946   14.2090  -25.2710 N   0  0  0  0  0  0  0  0  0  0  0  0
  -13.7888   16.9656  -25.1927 H   0  0  0  0  0  0  0  0  0  0  0  0
  -14.1038   16.9361  -26.9521 H   0  0  0  0  0  0  0  0  0  0  0  0
 26 27  1  0  0  0
 27 20  1  0  0  0
 20 21  1  0  0  0
 21 22  1  0  0  0
 22 23  1  0  0  0
 23 19  1  0  0  0
 19 12  1  0  0  0
 12 13  2  0  0  0
 13 14  1  0  0  0
 14 15  2  0  0  0
 15 16  1  0  0  0
 16 17  2  0  0  0
 17 18  1  0  0  0
 15  8  1  0  0  0
  8  9  2  0  0  0
  8 10  1  0  0  0
 10  1  1  0  0  0
  1  2  2  0  0  0
  2  3  1  0  0  0
  3  4  2  0  0  0
  4  5  1  0  0  0
  4  6  1  0  0  0
  6 28  1  0  0  0
 28 30  1  0  0  0
 30 31  2  0  0  0
 31 32  1  0  0  0
 32 33  2  0  0  0
 33 34  1  0  0  0
 34 35  2  0  0  0
 35 36  1  0  0  0
 36 37  2  0  0  0
 37 38  1  0  0  0
 38 39  1  0  0  0
 39 40  2  0  0  0
 40 41  1  0  0  0
 41 42  1  0  0  0
 41 43  2  0  0  0
 43 44  1  0  0  0
 44 45  2  0  0  0
  6  7  2  0  0  0
 23 24  1  0  0  0
 24 25  1  0  0  0
 25 20  1  0  0  0
 17 12  1  0  0  0
  7  1  1  0  0  0
 38 30  1  0  0  0
 45 39  1  0  0  0
 37 32  1  0  0  0
 10 11  1  0  0  0
 28 29  1  0  0  0
 42 46  1  0  0  0
 42 47  1  0  0  0
M  END
> <minimizedAffinity>
-9.25297

> <CNNscore>
0.2038054019

> <CNNaffinity>
7.0975637436

> <CNN_VS>
1.4465218782

> <CNNaffinity_variance>
0.0729662850

$$$$
[H]c1nc(N([H])[H])c([H])c(-n2c(N([H])c3c([H])c(N([H])C(=O)c4c([H])c([H])c(C([H])([H])N5C([H])([H])C([H])([H])N(C([H])([H])C([H])([H])[H])C([H])([H])C5([H])[H])c(Cl)c4[H])c([H])c([H])c3C([H])([H])[H])nc3c([H])c([H])c([H])c([H])c32)n1


 47 52  0  0  0  0  0  0  0  0999 V2000
  -18.0719   11.3663  -18.8788 C   0  0  0  0  0  0  0  0  0  0  0  0
  -17.0148   10.4570  -18.9730 C   0  0  0  0  0  0  0  0  0  0  0  0
  -16.2209   10.4578  -20.0641 C   0  0  0  0  0  0  0  0  0  0  0  0
  -16.4112   11.3234  -21.0950 C   0  0  0  0  0  0  0  0  0  0  0  0
  -15.4969   11.2860  -22.2912 C   0  0  0  0  0  0  0  0  0  0  0  0
  -17.4517   12.2425  -21.0397 C   0  0  0  0  0  0  0  0  0  0  0  0
  -18.2644   12.2454  -19.9292 C   0  0  0  0  0  0  0  0  0  0  0  0
  -19.3553   10.2215  -17.0409 C   0  0  0  0  0  0  0  0  0  0  0  0
  -19.0418    9.0465  -17.3704 O   0  0  0  0  0  0  0  0  0  0  0  0
  -18.9106   11.3384  -17.7424 N   0  0  0  0  0  0  0  0  0  0  0  0
  -19.2390   12.2888  -17.3745 H   0  0  0  0  0  0  0  0  0  0  0  0
  -21.9695   10.5966  -13.6334 C   0  0  0  0  0  0  0  0  0  0  0  0
  -20.6149   10.7708  -13.5337 C   0  0  0  0  0  0  0  0  0  0  0  0
  -19.7494   10.6540  -14.6365 C   0  0  0  0  0  0  0  0  0  0  0  0
  -20.2282   10.3588  -15.8583 C   0  0  0  0  0  0  0  0  0  0  0  0
  -21.5865   10.1764  -15.9920 C   0  0  0  0  0  0  0  0  0  0  0  0
  -22.4389   10.2879  -14.9281 C   0  0  0  0  0  0  0  0  0  0  0  0
  -24.1752   10.0533  -15.1115 Cl  0  0  0  0  0  0  0  0  0  0  0  0
  -22.9426   10.6668  -12.5205 C   0  0  0  0  0  0  0  0  0  0  0  0
  -22.1568    7.5538   -9.8962 N   0  0  0  0  0  0  0  0  0  0  0  0
  -23.4606    7.5497  -10.5303 C   0  0  0  0  0  0  0  0  0  0  0  0
  -23.2991    8.3707  -11.7996 C   0  0  0  0  0  0  0  0  0  0  0  0
  -22.7760    9.6565  -11.5757 N   0  0  0  0  0  0  0  0  0  0  0  0
  -22.3839    9.9845  -10.2605 C   0  0  0  0  0  0  0  0  0  0  0  0
  -21.8895    8.8706   -9.4103 C   0  0  0  0  0  0  0  0  0  0  0  0
  -20.9024    5.7544   -8.8217 C   0  0  0  0  0  0  0  0  0  0  0  0
  -22.1721    6.6028   -8.8035 C   0  0  0  0  0  0  0  0  0  0  0  0
  -17.6203   13.1186  -22.1051 N   0  0  0  0  0  0  0  0  0  0  0  0
  -17.2352   12.7811  -23.0584 H   0  0  0  0  0  0  0  0  0  0  0  0
  -18.2376   14.4088  -22.1054 C   0  0  0  0  0  0  0  0  0  0  0  0
  -19.0079   15.0157  -21.1982 N   0  0  0  0  0  0  0  0  0  0  0  0
  -19.3905   16.2403  -21.5771 C   0  0  0  0  0  0  0  0  0  0  0  0
  -20.1685   17.2407  -21.0066 C   0  0  0  0  0  0  0  0  0  0  0  0
  -20.3996   18.4375  -21.6436 C   0  0  0  0  0  0  0  0  0  0  0  0
  -19.8292   18.6155  -22.8788 C   0  0  0  0  0  0  0  0  0  0  0  0
  -19.0568   17.6278  -23.4504 C   0  0  0  0  0  0  0  0  0  0  0  0
  -18.8160   16.4216  -22.8233 C   0  0  0  0  0  0  0  0  0  0  0  0
  -18.1311   15.3141  -23.1196 N   0  0  0  0  0  0  0  0  0  0  0  0
  -17.3955   15.0950  -24.3044 C   0  0  0  0  0  0  0  0  0  0  0  0
  -16.2892   15.8930  -24.5589 C   0  0  0  0  0  0  0  0  0  0  0  0
  -15.5087   15.7430  -25.7066 C   0  0  0  0  0  0  0  0  0  0  0  0
  -14.3813   16.5713  -25.9445 N   0  0  0  0  0  0  0  0  0  0  0  0
  -15.8880   14.7769  -26.5590 N   0  0  0  0  0  0  0  0  0  0  0  0
  -16.9602   14.0044  -26.3110 C   0  0  0  0  0  0  0  0  0  0  0  0
  -17.7137   14.1476  -25.2055 N   0  0  0  0  0  0  0  0  0  0  0  0
  -13.8065   16.9028  -25.1485 H   0  0  0  0  0  0  0  0  0  0  0  0
  -14.1179   16.8548  -26.9081 H   0  0  0  0  0  0  0  0  0  0  0  0
 26 27  1  0  0  0
 27 20  1  0  0  0
 20 21  1  0  0  0
 21 22  1  0  0  0
 22 23  1  0  0  0
 23 19  1  0  0  0
 19 12  1  0  0  0
 12 13  2  0  0  0
 13 14  1  0  0  0
 14 15  2  0  0  0
 15 16  1  0  0  0
 16 17  2  0  0  0
 17 18  1  0  0  0
 15  8  1  0  0  0
  8  9  2  0  0  0
  8 10  1  0  0  0
 10  1  1  0  0  0
  1  2  2  0  0  0
  2  3  1  0  0  0
  3  4  2  0  0  0
  4  5  1  0  0  0
  4  6  1  0  0  0
  6 28  1  0  0  0
 28 30  1  0  0  0
 30 31  2  0  0  0
 31 32  1  0  0  0
 32 33  2  0  0  0
 33 34  1  0  0  0
 34 35  2  0  0  0
 35 36  1  0  0  0
 36 37  2  0  0  0
 37 38  1  0  0  0
 38 39  1  0  0  0
 39 40  2  0  0  0
 40 41  1  0  0  0
 41 42  1  0  0  0
 41 43  2  0  0  0
 43 44  1  0  0  0
 44 45  2  0  0  0
  6  7  2  0  0  0
 23 24  1  0  0  0
 24 25  1  0  0  0
 25 20  1  0  0  0
 17 12  1  0  0  0
  7  1  1  0  0  0
 38 30  1  0  0  0
 45 39  1  0  0  0
 37 32  1  0  0  0
 10 11  1  0  0  0
 28 29  1  0  0  0
 42 46  1  0  0  0
 42 47  1  0  0  0
M  END
> <minimizedAffinity>
-8.97898

> <CNNscore>
0.1912299395

> <CNNaffinity>
7.0263566971

> <CNN_VS>
1.3436497450

> <CNNaffinity_variance>
0.0457376875

$$$$
[H]c1nc(N([H])[H])c([H])c(-n2c(N([H])c3c([H])c(N([H])C(=O)c4c([H])c([H])c(C([H])([H])N5C([H])([H])C([H])([H])N(C([H])([H])C([H])([H])[H])C([H])([H])C5([H])[H])c(Cl)c4[H])c([H])c([H])c3C([H])([H])[H])nc3c([H])c([H])c([H])c([H])c32)n1


 47 52  0  0  0  0  0  0  0  0999 V2000
  -17.4602   10.8854  -19.6768 C   0  0  0  0  0  0  0  0  0  0  0  0
  -16.1899   10.4264  -20.0362 C   0  0  0  0  0  0  0  0  0  0  0  0
  -15.5958   10.8946  -21.1537 C   0  0  0  0  0  0  0  0  0  0  0  0
  -16.1940   11.8118  -21.9594 C   0  0  0  0  0  0  0  0  0  0  0  0
  -15.4892   12.3050  -23.1956 C   0  0  0  0  0  0  0  0  0  0  0  0
  -17.4571   12.2926  -21.6369 C   0  0  0  0  0  0  0  0  0  0  0  0
  -18.0673   11.8178  -20.4985 C   0  0  0  0  0  0  0  0  0  0  0  0
  -18.9971   11.0077  -17.6873 C   0  0  0  0  0  0  0  0  0  0  0  0
  -19.3868   12.1884  -17.8915 O   0  0  0  0  0  0  0  0  0  0  0  0
  -18.0813   10.3687  -18.5180 N   0  0  0  0  0  0  0  0  0  0  0  0
  -17.8204    9.3655  -18.2499 H   0  0  0  0  0  0  0  0  0  0  0  0
  -20.7127    9.0789  -14.2344 C   0  0  0  0  0  0  0  0  0  0  0  0
  -19.8041    8.4495  -15.0429 C   0  0  0  0  0  0  0  0  0  0  0  0
  -19.2340    9.0663  -16.1714 C   0  0  0  0  0  0  0  0  0  0  0  0
  -19.5670   10.3250  -16.5090 C   0  0  0  0  0  0  0  0  0  0  0  0
  -20.4792   10.9854  -15.7167 C   0  0  0  0  0  0  0  0  0  0  0  0
  -21.0403   10.3975  -14.6164 C   0  0  0  0  0  0  0  0  0  0  0  0
  -22.2057   11.2527  -13.6097 Cl  0  0  0  0  0  0  0  0  0  0  0  0
  -21.3839    8.4915  -13.0535 C   0  0  0  0  0  0  0  0  0  0  0  0
  -18.5887    7.8060  -10.0683 N   0  0  0  0  0  0  0  0  0  0  0  0
  -19.8379    7.0778   -9.9620 C   0  0  0  0  0  0  0  0  0  0  0  0
  -20.4037    7.0314  -11.3724 C   0  0  0  0  0  0  0  0  0  0  0  0
  -20.5288    8.2976  -11.9708 N   0  0  0  0  0  0  0  0  0  0  0  0
  -20.0394    9.4114  -11.2559 C   0  0  0  0  0  0  0  0  0  0  0  0
  -18.8811    9.1747  -10.3558 C   0  0  0  0  0  0  0  0  0  0  0  0
  -16.4661    7.1637   -9.0446 C   0  0  0  0  0  0  0  0  0  0  0  0
  -17.8797    7.6918   -8.8100 C   0  0  0  0  0  0  0  0  0  0  0  0
  -18.0430   13.2331  -22.4755 N   0  0  0  0  0  0  0  0  0  0  0  0
  -18.4100   12.8574  -23.4215 H   0  0  0  0  0  0  0  0  0  0  0  0
  -18.2244   14.6338  -22.2500 C   0  0  0  0  0  0  0  0  0  0  0  0
  -18.7830   15.2961  -21.2333 N   0  0  0  0  0  0  0  0  0  0  0  0
  -18.7547   16.6233  -21.3995 C   0  0  0  0  0  0  0  0  0  0  0  0
  -19.1908   17.7108  -20.6519 C   0  0  0  0  0  0  0  0  0  0  0  0
  -19.0223   19.0061  -21.0822 C   0  0  0  0  0  0  0  0  0  0  0  0
  -18.4008   19.1940  -22.2910 C   0  0  0  0  0  0  0  0  0  0  0  0
  -17.9662   18.1203  -23.0374 C   0  0  0  0  0  0  0  0  0  0  0  0
  -18.1281   16.8146  -22.6188 C   0  0  0  0  0  0  0  0  0  0  0  0
  -17.8194   15.6117  -23.1099 N   0  0  0  0  0  0  0  0  0  0  0  0
  -17.1667   15.3680  -24.3376 C   0  0  0  0  0  0  0  0  0  0  0  0
  -16.0103   16.0772  -24.6295 C   0  0  0  0  0  0  0  0  0  0  0  0
  -15.3049   15.8974  -25.8208 C   0  0  0  0  0  0  0  0  0  0  0  0
  -14.1240   16.6345  -26.0964 N   0  0  0  0  0  0  0  0  0  0  0  0
  -15.8088   14.9937  -26.6771 N   0  0  0  0  0  0  0  0  0  0  0  0
  -16.9295   14.3073  -26.3928 C   0  0  0  0  0  0  0  0  0  0  0  0
  -17.6106   14.4793  -25.2453 N   0  0  0  0  0  0  0  0  0  0  0  0
  -13.4831   16.8913  -25.3237 H   0  0  0  0  0  0  0  0  0  0  0  0
  -13.8866   16.9244  -27.0648 H   0  0  0  0  0  0  0  0  0  0  0  0
 26 27  1  0  0  0
 27 20  1  0  0  0
 20 21  1  0  0  0
 21 22  1  0  0  0
 22 23  1  0  0  0
 23 19  1  0  0  0
 19 12  1  0  0  0
 12 13  2  0  0  0
 13 14  1  0  0  0
 14 15  2  0  0  0
 15 16  1  0  0  0
 16 17  2  0  0  0
 17 18  1  0  0  0
 15  8  1  0  0  0
  8  9  2  0  0  0
  8 10  1  0  0  0
 10  1  1  0  0  0
  1  2  2  0  0  0
  2  3  1  0  0  0
  3  4  2  0  0  0
  4  5  1  0  0  0
  4  6  1  0  0  0
  6 28  1  0  0  0
 28 30  1  0  0  0
 30 31  2  0  0  0
 31 32  1  0  0  0
 32 33  2  0  0  0
 33 34  1  0  0  0
 34 35  2  0  0  0
 35 36  1  0  0  0
 36 37  2  0  0  0
 37 38  1  0  0  0
 38 39  1  0  0  0
 39 40  2  0  0  0
 40 41  1  0  0  0
 41 42  1  0  0  0
 41 43  2  0  0  0
 43 44  1  0  0  0
 44 45  2  0  0  0
  6  7  2  0  0  0
 23 24  1  0  0  0
 24 25  1  0  0  0
 25 20  1  0  0  0
 17 12  1  0  0  0
  7  1  1  0  0  0
 38 30  1  0  0  0
 45 39  1  0  0  0
 37 32  1  0  0  0
 10 11  1  0  0  0
 28 29  1  0  0  0
 42 46  1  0  0  0
 42 47  1  0  0  0
M  END
> <minimizedAffinity>
-9.41170

> <CNNscore>
0.1899200082

> <CNNaffinity>
7.2298979759

> <CNN_VS>
1.3731023073

> <CNNaffinity_variance>
0.0944439843

$$$$
[H]c1nc(N([H])[H])c([H])c(-n2c(N([H])c3c([H])c(N([H])C(=O)c4c([H])c([H])c(C([H])([H])N5C([H])([H])C([H])([H])N(C([H])([H])C([H])([H])[H])C([H])([H])C5([H])[H])c(Cl)c4[H])c([H])c([H])c3C([H])([H])[H])nc3c([H])c([H])c([H])c([H])c32)n1


 47 52  0  0  0  0  0  0  0  0999 V2000
  -17.2638   10.5023  -19.6845 C   0  0  0  0  0  0  0  0  0  0  0  0
  -16.0294   10.0113  -20.1187 C   0  0  0  0  0  0  0  0  0  0  0  0
  -15.4194   10.5703  -21.1847 C   0  0  0  0  0  0  0  0  0  0  0  0
  -15.9671   11.6113  -21.8664 C   0  0  0  0  0  0  0  0  0  0  0  0
  -15.2464   12.2021  -23.0495 C   0  0  0  0  0  0  0  0  0  0  0  0
  -17.1934   12.1278  -21.4664 C   0  0  0  0  0  0  0  0  0  0  0  0
  -17.8197   11.5607  -20.3801 C   0  0  0  0  0  0  0  0  0  0  0  0
  -18.7729   10.4824  -17.6701 C   0  0  0  0  0  0  0  0  0  0  0  0
  -19.0949   11.6990  -17.7320 O   0  0  0  0  0  0  0  0  0  0  0  0
  -17.9034    9.8921  -18.5827 N   0  0  0  0  0  0  0  0  0  0  0  0
  -17.6989    8.8515  -18.4350 H   0  0  0  0  0  0  0  0  0  0  0  0
  -20.5860    8.2544  -14.4554 C   0  0  0  0  0  0  0  0  0  0  0  0
  -19.4140    7.8596  -15.0436 C   0  0  0  0  0  0  0  0  0  0  0  0
  -18.8092    8.5770  -16.0917 C   0  0  0  0  0  0  0  0  0  0  0  0
  -19.3708    9.7024  -16.5686 C   0  0  0  0  0  0  0  0  0  0  0  0
  -20.5507   10.1258  -15.9990 C   0  0  0  0  0  0  0  0  0  0  0  0
  -21.1488    9.4380  -14.9791 C   0  0  0  0  0  0  0  0  0  0  0  0
  -22.6580    9.9901  -14.2576 Cl  0  0  0  0  0  0  0  0  0  0  0  0
  -21.3042    7.5408  -13.3760 C   0  0  0  0  0  0  0  0  0  0  0  0
  -18.7294    6.9924  -10.1722 N   0  0  0  0  0  0  0  0  0  0  0  0
  -19.7674    5.9948  -10.3438 C   0  0  0  0  0  0  0  0  0  0  0  0
  -20.1652    6.0687  -11.8094 C   0  0  0  0  0  0  0  0  0  0  0  0
  -20.5368    7.3587  -12.2275 N   0  0  0  0  0  0  0  0  0  0  0  0
  -20.4057    8.4121  -11.2979 C   0  0  0  0  0  0  0  0  0  0  0  0
  -19.3176    8.2889  -10.2935 C   0  0  0  0  0  0  0  0  0  0  0  0
  -16.6278    7.0294   -8.9281 C   0  0  0  0  0  0  0  0  0  0  0  0
  -18.1395    6.8233   -8.8599 C   0  0  0  0  0  0  0  0  0  0  0  0
  -17.7278   13.1949  -22.1782 N   0  0  0  0  0  0  0  0  0  0  0  0
  -18.4831   13.7740  -21.6633 H   0  0  0  0  0  0  0  0  0  0  0  0
  -17.4084   13.6277  -23.5036 C   0  0  0  0  0  0  0  0  0  0  0  0
  -17.3645   12.9608  -24.6602 N   0  0  0  0  0  0  0  0  0  0  0  0
  -17.0195   13.7363  -25.6943 C   0  0  0  0  0  0  0  0  0  0  0  0
  -16.8408   13.5253  -27.0564 C   0  0  0  0  0  0  0  0  0  0  0  0
  -16.4739   14.5397  -27.9095 C   0  0  0  0  0  0  0  0  0  0  0  0
  -16.2868   15.7854  -27.3654 C   0  0  0  0  0  0  0  0  0  0  0  0
  -16.4621   16.0015  -26.0158 C   0  0  0  0  0  0  0  0  0  0  0  0
  -16.8303   14.9935  -25.1472 C   0  0  0  0  0  0  0  0  0  0  0  0
  -17.0682   14.9057  -23.8360 N   0  0  0  0  0  0  0  0  0  0  0  0
  -16.9869   15.9706  -22.9129 C   0  0  0  0  0  0  0  0  0  0  0  0
  -17.8050   17.0761  -23.0973 C   0  0  0  0  0  0  0  0  0  0  0  0
  -17.7863   18.1715  -22.2319 C   0  0  0  0  0  0  0  0  0  0  0  0
  -18.6332   19.2906  -22.4413 N   0  0  0  0  0  0  0  0  0  0  0  0
  -16.9272   18.0983  -21.2021 N   0  0  0  0  0  0  0  0  0  0  0  0
  -16.1351   17.0263  -21.0247 C   0  0  0  0  0  0  0  0  0  0  0  0
  -16.1517   15.9699  -21.8578 N   0  0  0  0  0  0  0  0  0  0  0  0
  -19.5784   19.1551  -22.8439 H   0  0  0  0  0  0  0  0  0  0  0  0
  -18.3229   20.2510  -22.1972 H   0  0  0  0  0  0  0  0  0  0  0  0
 26 27  1  0  0  0
 27 20  1  0  0  0
 20 21  1  0  0  0
 21 22  1  0  0  0
 22 23  1  0  0  0
 23 19  1  0  0  0
 19 12  1  0  0  0
 12 13  2  0  0  0
 13 14  1  0  0  0
 14 15  2  0  0  0
 15 16  1  0  0  0
 16 17  2  0  0  0
 17 18  1  0  0  0
 15  8  1  0  0  0
  8  9  2  0  0  0
  8 10  1  0  0  0
 10  1  1  0  0  0
  1  2  2  0  0  0
  2  3  1  0  0  0
  3  4  2  0  0  0
  4  5  1  0  0  0
  4  6  1  0  0  0
  6 28  1  0  0  0
 28 30  1  0  0  0
 30 31  2  0  0  0
 31 32  1  0  0  0
 32 33  2  0  0  0
 33 34  1  0  0  0
 34 35  2  0  0  0
 35 36  1  0  0  0
 36 37  2  0  0  0
 37 38  1  0  0  0
 38 39  1  0  0  0
 39 40  2  0  0  0
 40 41  1  0  0  0
 41 42  1  0  0  0
 41 43  2  0  0  0
 43 44  1  0  0  0
 44 45  2  0  0  0
  6  7  2  0  0  0
 23 24  1  0  0  0
 24 25  1  0  0  0
 25 20  1  0  0  0
 17 12  1  0  0  0
  7  1  1  0  0  0
 38 30  1  0  0  0
 45 39  1  0  0  0
 37 32  1  0  0  0
 10 11  1  0  0  0
 28 29  1  0  0  0
 42 46  1  0  0  0
 42 47  1  0  0  0
M  END
> <minimizedAffinity>
-9.63852

> <CNNscore>
0.1775885522

> <CNNaffinity>
7.1298384666

> <CNN_VS>
1.2661776543

> <CNNaffinity_variance>
0.0841840580

$$$$
[H]c1nc(N([H])[H])c([H])c(-n2c(N([H])c3c([H])c(N([H])C(=O)c4c([H])c([H])c(C([H])([H])N5C([H])([H])C([H])([H])N(C([H])([H])C([H])([H])[H])C([H])([H])C5([H])[H])c(Cl)c4[H])c([H])c([H])c3C([H])([H])[H])nc3c([H])c([H])c([H])c([H])c32)n1


 47 52  0  0  0  0  0  0  0  0999 V2000
  -17.4175   10.9157  -19.9200 C   0  0  0  0  0  0  0  0  0  0  0  0
  -16.1686   10.3090  -20.0793 C   0  0  0  0  0  0  0  0  0  0  0  0
  -15.3932   10.6311  -21.1358 C   0  0  0  0  0  0  0  0  0  0  0  0
  -15.7851   11.5386  -22.0691 C   0  0  0  0  0  0  0  0  0  0  0  0
  -14.8831   11.8656  -23.2300 C   0  0  0  0  0  0  0  0  0  0  0  0
  -17.0201   12.1634  -21.9466 C   0  0  0  0  0  0  0  0  0  0  0  0
  -17.8146   11.8379  -20.8712 C   0  0  0  0  0  0  0  0  0  0  0  0
  -18.8455   11.3953  -17.9035 C   0  0  0  0  0  0  0  0  0  0  0  0
  -18.7303   12.6490  -17.9529 O   0  0  0  0  0  0  0  0  0  0  0  0
  -18.2298   10.5513  -18.8232 N   0  0  0  0  0  0  0  0  0  0  0  0
  -18.3953    9.5023  -18.6860 H   0  0  0  0  0  0  0  0  0  0  0  0
  -21.2322    9.7511  -14.7118 C   0  0  0  0  0  0  0  0  0  0  0  0
  -21.3255   11.0647  -15.0876 C   0  0  0  0  0  0  0  0  0  0  0  0
  -20.5553   11.6151  -16.1282 C   0  0  0  0  0  0  0  0  0  0  0  0
  -19.6770   10.8571  -16.8088 C   0  0  0  0  0  0  0  0  0  0  0  0
  -19.5586    9.5317  -16.4546 C   0  0  0  0  0  0  0  0  0  0  0  0
  -20.3019    8.9840  -15.4454 C   0  0  0  0  0  0  0  0  0  0  0  0
  -20.1424    7.2867  -15.0017 Cl  0  0  0  0  0  0  0  0  0  0  0  0
  -21.9775    9.1039  -13.6091 C   0  0  0  0  0  0  0  0  0  0  0  0
  -26.0896    8.8230  -14.0630 N   0  0  0  0  0  0  0  0  0  0  0  0
  -25.3466    9.3170  -15.2058 C   0  0  0  0  0  0  0  0  0  0  0  0
  -23.9299    8.7949  -15.0273 C   0  0  0  0  0  0  0  0  0  0  0  0
  -23.3591    9.1285  -13.7863 N   0  0  0  0  0  0  0  0  0  0  0  0
  -24.1743    9.7975  -12.8488 C   0  0  0  0  0  0  0  0  0  0  0  0
  -25.6294    9.5000  -12.8919 C   0  0  0  0  0  0  0  0  0  0  0  0
  -27.9023    8.6682  -15.6928 C   0  0  0  0  0  0  0  0  0  0  0  0
  -27.4979    9.0846  -14.2802 C   0  0  0  0  0  0  0  0  0  0  0  0
  -17.3933   13.0903  -22.9123 N   0  0  0  0  0  0  0  0  0  0  0  0
  -17.3507   12.7463  -23.9373 H   0  0  0  0  0  0  0  0  0  0  0  0
  -17.8270   14.4407  -22.7270 C   0  0  0  0  0  0  0  0  0  0  0  0
  -18.7760   14.9601  -21.9434 N   0  0  0  0  0  0  0  0  0  0  0  0
  -18.8739   16.2895  -22.0574 C   0  0  0  0  0  0  0  0  0  0  0  0
  -19.6765   17.2632  -21.4749 C   0  0  0  0  0  0  0  0  0  0  0  0
  -19.5515   18.5960  -21.7905 C   0  0  0  0  0  0  0  0  0  0  0  0
  -18.5950   18.9392  -22.7125 C   0  0  0  0  0  0  0  0  0  0  0  0
  -17.7960   17.9789  -23.2940 C   0  0  0  0  0  0  0  0  0  0  0  0
  -17.9096   16.6375  -22.9874 C   0  0  0  0  0  0  0  0  0  0  0  0
  -17.2955   15.5166  -23.3745 N   0  0  0  0  0  0  0  0  0  0  0  0
  -16.2452   15.4375  -24.3144 C   0  0  0  0  0  0  0  0  0  0  0  0
  -16.5348   15.6428  -25.6559 C   0  0  0  0  0  0  0  0  0  0  0  0
  -15.5554   15.5813  -26.6489 C   0  0  0  0  0  0  0  0  0  0  0  0
  -15.8763   15.7955  -28.0145 N   0  0  0  0  0  0  0  0  0  0  0  0
  -14.3070   15.3109  -26.2340 N   0  0  0  0  0  0  0  0  0  0  0  0
  -14.0280   15.1123  -24.9337 C   0  0  0  0  0  0  0  0  0  0  0  0
  -14.9705   15.1710  -23.9753 N   0  0  0  0  0  0  0  0  0  0  0  0
  -16.6194   16.4706  -28.2710 H   0  0  0  0  0  0  0  0  0  0  0  0
  -15.3774   15.2852  -28.7689 H   0  0  0  0  0  0  0  0  0  0  0  0
 26 27  1  0  0  0
 27 20  1  0  0  0
 20 21  1  0  0  0
 21 22  1  0  0  0
 22 23  1  0  0  0
 23 19  1  0  0  0
 19 12  1  0  0  0
 12 13  2  0  0  0
 13 14  1  0  0  0
 14 15  2  0  0  0
 15 16  1  0  0  0
 16 17  2  0  0  0
 17 18  1  0  0  0
 15  8  1  0  0  0
  8  9  2  0  0  0
  8 10  1  0  0  0
 10  1  1  0  0  0
  1  2  2  0  0  0
  2  3  1  0  0  0
  3  4  2  0  0  0
  4  5  1  0  0  0
  4  6  1  0  0  0
  6 28  1  0  0  0
 28 30  1  0  0  0
 30 31  2  0  0  0
 31 32  1  0  0  0
 32 33  2  0  0  0
 33 34  1  0  0  0
 34 35  2  0  0  0
 35 36  1  0  0  0
 36 37  2  0  0  0
 37 38  1  0  0  0
 38 39  1  0  0  0
 39 40  2  0  0  0
 40 41  1  0  0  0
 41 42  1  0  0  0
 41 43  2  0  0  0
 43 44  1  0  0  0
 44 45  2  0  0  0
  6  7  2  0  0  0
 23 24  1  0  0  0
 24 25  1  0  0  0
 25 20  1  0  0  0
 17 12  1  0  0  0
  7  1  1  0  0  0
 38 30  1  0  0  0
 45 39  1  0  0  0
 37 32  1  0  0  0
 10 11  1  0  0  0
 28 29  1  0  0  0
 42 46  1  0  0  0
 42 47  1  0  0  0
M  END
> <minimizedAffinity>
-9.39721

> <CNNscore>
0.1740848571

> <CNNaffinity>
6.9402694702

> <CNN_VS>
1.2081958055

> <CNNaffinity_variance>
0.3216556907

$$$$
[H]c1nc(N([H])[H])c([H])c(-n2c(N([H])c3c([H])c(N([H])C(=O)c4c([H])c([H])c(C([H])([H])N5C([H])([H])C([H])([H])N(C([H])([H])C([H])([H])[H])C([H])([H])C5([H])[H])c(Cl)c4[H])c([H])c([H])c3C([H])([H])[H])nc3c([H])c([H])c([H])c([H])c32)n1


 47 52  0  0  0  0  0  0  0  0999 V2000
  -17.9483   11.1856  -18.9191 C   0  0  0  0  0  0  0  0  0  0  0  0
  -16.7945   10.4269  -19.1348 C   0  0  0  0  0  0  0  0  0  0  0  0
  -16.0797   10.5949  -20.2669 C   0  0  0  0  0  0  0  0  0  0  0  0
  -16.4431   11.4889  -21.2244 C   0  0  0  0  0  0  0  0  0  0  0  0
  -15.6112   11.6410  -22.4706 C   0  0  0  0  0  0  0  0  0  0  0  0
  -17.5841   12.2619  -21.0478 C   0  0  0  0  0  0  0  0  0  0  0  0
  -18.3168   12.0939  -19.8950 C   0  0  0  0  0  0  0  0  0  0  0  0
  -19.0470    9.7698  -17.1517 C   0  0  0  0  0  0  0  0  0  0  0  0
  -18.7091    8.6589  -17.6409 O   0  0  0  0  0  0  0  0  0  0  0  0
  -18.7011   10.9823  -17.7412 N   0  0  0  0  0  0  0  0  0  0  0  0
  -19.0416   11.8651  -17.2402 H   0  0  0  0  0  0  0  0  0  0  0  0
  -21.4240    9.6535  -13.5570 C   0  0  0  0  0  0  0  0  0  0  0  0
  -20.1075    9.2769  -13.5711 C   0  0  0  0  0  0  0  0  0  0  0  0
  -19.3185    9.3114  -14.7352 C   0  0  0  0  0  0  0  0  0  0  0  0
  -19.8375    9.7231  -15.9059 C   0  0  0  0  0  0  0  0  0  0  0  0
  -21.1595   10.1077  -15.9256 C   0  0  0  0  0  0  0  0  0  0  0  0
  -21.9373   10.0796  -14.8008 C   0  0  0  0  0  0  0  0  0  0  0  0
  -23.6274   10.5749  -14.8380 Cl  0  0  0  0  0  0  0  0  0  0  0  0
  -22.3305    9.6139  -12.3878 C   0  0  0  0  0  0  0  0  0  0  0  0
  -21.3317   12.7294   -9.8401 N   0  0  0  0  0  0  0  0  0  0  0  0
  -21.5659   11.4394   -9.2211 C   0  0  0  0  0  0  0  0  0  0  0  0
  -21.3326   10.4127  -10.3178 C   0  0  0  0  0  0  0  0  0  0  0  0
  -22.0997   10.6400  -11.4741 N   0  0  0  0  0  0  0  0  0  0  0  0
  -22.8914   11.8073  -11.5163 C   0  0  0  0  0  0  0  0  0  0  0  0
  -22.3859   12.9881  -10.7692 C   0  0  0  0  0  0  0  0  0  0  0  0
  -22.5328   14.6471   -8.9205 C   0  0  0  0  0  0  0  0  0  0  0  0
  -21.3088   13.7412   -8.8035 C   0  0  0  0  0  0  0  0  0  0  0  0
  -17.9296   13.1712  -22.0402 N   0  0  0  0  0  0  0  0  0  0  0  0
  -18.0103   12.7683  -23.0413 H   0  0  0  0  0  0  0  0  0  0  0  0
  -18.1931   14.5710  -21.9100 C   0  0  0  0  0  0  0  0  0  0  0  0
  -18.7395   15.2744  -20.9145 N   0  0  0  0  0  0  0  0  0  0  0  0
  -18.8102   16.5835  -21.1811 C   0  0  0  0  0  0  0  0  0  0  0  0
  -19.2778   17.6966  -20.4926 C   0  0  0  0  0  0  0  0  0  0  0  0
  -19.2212   18.9621  -21.0280 C   0  0  0  0  0  0  0  0  0  0  0  0
  -18.6803   19.0933  -22.2822 C   0  0  0  0  0  0  0  0  0  0  0  0
  -18.2150   17.9939  -22.9705 C   0  0  0  0  0  0  0  0  0  0  0  0
  -18.2651   16.7176  -22.4463 C   0  0  0  0  0  0  0  0  0  0  0  0
  -17.9026   15.5018  -22.8632 N   0  0  0  0  0  0  0  0  0  0  0  0
  -17.3024   15.2042  -24.1058 C   0  0  0  0  0  0  0  0  0  0  0  0
  -16.1658   15.9060  -24.4817 C   0  0  0  0  0  0  0  0  0  0  0  0
  -15.5120   15.6742  -25.6932 C   0  0  0  0  0  0  0  0  0  0  0  0
  -14.3505   16.4047  -26.0552 N   0  0  0  0  0  0  0  0  0  0  0  0
  -16.0453   14.7277  -26.4828 N   0  0  0  0  0  0  0  0  0  0  0  0
  -17.1467   14.0485  -26.1171 C   0  0  0  0  0  0  0  0  0  0  0  0
  -17.7783   14.2706  -24.9500 N   0  0  0  0  0  0  0  0  0  0  0  0
  -13.6784   16.7020  -25.3247 H   0  0  0  0  0  0  0  0  0  0  0  0
  -14.1583   16.6497  -27.0459 H   0  0  0  0  0  0  0  0  0  0  0  0
 26 27  1  0  0  0
 27 20  1  0  0  0
 20 21  1  0  0  0
 21 22  1  0  0  0
 22 23  1  0  0  0
 23 19  1  0  0  0
 19 12  1  0  0  0
 12 13  2  0  0  0
 13 14  1  0  0  0
 14 15  2  0  0  0
 15 16  1  0  0  0
 16 17  2  0  0  0
 17 18  1  0  0  0
 15  8  1  0  0  0
  8  9  2  0  0  0
  8 10  1  0  0  0
 10  1  1  0  0  0
  1  2  2  0  0  0
  2  3  1  0  0  0
  3  4  2  0  0  0
  4  5  1  0  0  0
  4  6  1  0  0  0
  6 28  1  0  0  0
 28 30  1  0  0  0
 30 31  2  0  0  0
 31 32  1  0  0  0
 32 33  2  0  0  0
 33 34  1  0  0  0
 34 35  2  0  0  0
 35 36  1  0  0  0
 36 37  2  0  0  0
 37 38  1  0  0  0
 38 39  1  0  0  0
 39 40  2  0  0  0
 40 41  1  0  0  0
 41 42  1  0  0  0
 41 43  2  0  0  0
 43 44  1  0  0  0
 44 45  2  0  0  0
  6  7  2  0  0  0
 23 24  1  0  0  0
 24 25  1  0  0  0
 25 20  1  0  0  0
 17 12  1  0  0  0
  7  1  1  0  0  0
 38 30  1  0  0  0
 45 39  1  0  0  0
 37 32  1  0  0  0
 10 11  1  0  0  0
 28 29  1  0  0  0
 42 46  1  0  0  0
 42 47  1  0  0  0
M  END
> <minimizedAffinity>
-9.37620

> <CNNscore>
0.1712163538

> <CNNaffinity>
7.0208959579

> <CNN_VS>
1.2020921707

> <CNNaffinity_variance>
0.0773702711

$$$$
[H]c1nc(N([H])[H])c([H])c(-n2c(N([H])c3c([H])c(N([H])C(=O)c4c([H])c([H])c(C([H])([H])N5C([H])([H])C([H])([H])N(C([H])([H])C([H])([H])[H])C([H])([H])C5([H])[H])c(Cl)c4[H])c([H])c([H])c3C([H])([H])[H])nc3c([H])c([H])c([H])c([H])c32)n1


 47 52  0  0  0  0  0  0  0  0999 V2000
  -18.1758   11.3833  -18.8860 C   0  0  0  0  0  0  0  0  0  0  0  0
  -17.0585   10.5514  -18.9996 C   0  0  0  0  0  0  0  0  0  0  0  0
  -16.2736   10.6235  -20.0949 C   0  0  0  0  0  0  0  0  0  0  0  0
  -16.5304   11.4887  -21.1117 C   0  0  0  0  0  0  0  0  0  0  0  0
  -15.6235   11.5327  -22.3132 C   0  0  0  0  0  0  0  0  0  0  0  0
  -17.6320   12.3321  -21.0369 C   0  0  0  0  0  0  0  0  0  0  0  0
  -18.4358   12.2620  -19.9221 C   0  0  0  0  0  0  0  0  0  0  0  0
  -19.3680   10.1246  -17.0613 C   0  0  0  0  0  0  0  0  0  0  0  0
  -18.9794    8.9788  -17.4130 O   0  0  0  0  0  0  0  0  0  0  0  0
  -19.0031   11.2803  -17.7457 N   0  0  0  0  0  0  0  0  0  0  0  0
  -19.3915   12.2004  -17.3595 H   0  0  0  0  0  0  0  0  0  0  0  0
  -21.8470   10.2982  -13.5385 C   0  0  0  0  0  0  0  0  0  0  0  0
  -22.3722   10.3633  -14.8015 C   0  0  0  0  0  0  0  0  0  0  0  0
  -21.5767   10.3057  -15.9603 C   0  0  0  0  0  0  0  0  0  0  0  0
  -20.2401   10.1833  -15.8717 C   0  0  0  0  0  0  0  0  0  0  0  0
  -19.6805   10.1163  -14.6153 C   0  0  0  0  0  0  0  0  0  0  0  0
  -20.4426   10.1703  -13.4807 C   0  0  0  0  0  0  0  0  0  0  0  0
  -19.7155   10.0827  -11.8786 Cl  0  0  0  0  0  0  0  0  0  0  0  0
  -22.6072   10.3868  -12.2718 C   0  0  0  0  0  0  0  0  0  0  0  0
  -25.1012    7.0976  -11.8769 N   0  0  0  0  0  0  0  0  0  0  0  0
  -25.3034    8.1778  -10.9313 C   0  0  0  0  0  0  0  0  0  0  0  0
  -24.7364    9.4185  -11.6026 C   0  0  0  0  0  0  0  0  0  0  0  0
  -23.4036    9.2705  -12.0255 N   0  0  0  0  0  0  0  0  0  0  0  0
  -22.8046    8.0021  -11.8724 C   0  0  0  0  0  0  0  0  0  0  0  0
  -23.7020    6.8211  -11.9620 C   0  0  0  0  0  0  0  0  0  0  0  0
  -27.0256    6.3557  -10.5683 C   0  0  0  0  0  0  0  0  0  0  0  0
  -25.8213    5.9319  -11.4065 C   0  0  0  0  0  0  0  0  0  0  0  0
  -17.8682   13.2098  -22.0881 N   0  0  0  0  0  0  0  0  0  0  0  0
  -17.8539   12.7738  -23.0784 H   0  0  0  0  0  0  0  0  0  0  0  0
  -18.1282   14.6151  -22.0309 C   0  0  0  0  0  0  0  0  0  0  0  0
  -18.7686   15.3549  -21.1215 N   0  0  0  0  0  0  0  0  0  0  0  0
  -18.7963   16.6551  -21.4354 C   0  0  0  0  0  0  0  0  0  0  0  0
  -19.3214   17.7937  -20.8358 C   0  0  0  0  0  0  0  0  0  0  0  0
  -19.1945   19.0406  -21.4021 C   0  0  0  0  0  0  0  0  0  0  0  0
  -18.5230   19.1265  -22.5956 C   0  0  0  0  0  0  0  0  0  0  0  0
  -18.0001   18.0016  -23.1956 C   0  0  0  0  0  0  0  0  0  0  0  0
  -18.1193   16.7436  -22.6395 C   0  0  0  0  0  0  0  0  0  0  0  0
  -17.7285   15.5120  -22.9771 N   0  0  0  0  0  0  0  0  0  0  0  0
  -17.0040   15.1693  -24.1392 C   0  0  0  0  0  0  0  0  0  0  0  0
  -15.6324   15.3788  -24.1551 C   0  0  0  0  0  0  0  0  0  0  0  0
  -14.8426   15.0686  -25.2637 C   0  0  0  0  0  0  0  0  0  0  0  0
  -13.4413   15.2915  -25.2557 N   0  0  0  0  0  0  0  0  0  0  0  0
  -15.4858   14.5517  -26.3234 N   0  0  0  0  0  0  0  0  0  0  0  0
  -16.8150   14.3493  -26.3064 C   0  0  0  0  0  0  0  0  0  0  0  0
  -17.5777   14.6478  -25.2391 N   0  0  0  0  0  0  0  0  0  0  0  0
  -12.9046   15.1757  -24.3768 H   0  0  0  0  0  0  0  0  0  0  0  0
  -12.9378   15.5708  -26.1199 H   0  0  0  0  0  0  0  0  0  0  0  0
 26 27  1  0  0  0
 27 20  1  0  0  0
 20 21  1  0  0  0
 21 22  1  0  0  0
 22 23  1  0  0  0
 23 19  1  0  0  0
 19 12  1  0  0  0
 12 13  2  0  0  0
 13 14  1  0  0  0
 14 15  2  0  0  0
 15 16  1  0  0  0
 16 17  2  0  0  0
 17 18  1  0  0  0
 15  8  1  0  0  0
  8  9  2  0  0  0
  8 10  1  0  0  0
 10  1  1  0  0  0
  1  2  2  0  0  0
  2  3  1  0  0  0
  3  4  2  0  0  0
  4  5  1  0  0  0
  4  6  1  0  0  0
  6 28  1  0  0  0
 28 30  1  0  0  0
 30 31  2  0  0  0
 31 32  1  0  0  0
 32 33  2  0  0  0
 33 34  1  0  0  0
 34 35  2  0  0  0
 35 36  1  0  0  0
 36 37  2  0  0  0
 37 38  1  0  0  0
 38 39  1  0  0  0
 39 40  2  0  0  0
 40 41  1  0  0  0
 41 42  1  0  0  0
 41 43  2  0  0  0
 43 44  1  0  0  0
 44 45  2  0  0  0
  6  7  2  0  0  0
 23 24  1  0  0  0
 24 25  1  0  0  0
 25 20  1  0  0  0
 17 12  1  0  0  0
  7  1  1  0  0  0
 38 30  1  0  0  0
 45 39  1  0  0  0
 37 32  1  0  0  0
 10 11  1  0  0  0
 28 29  1  0  0  0
 42 46  1  0  0  0
 42 47  1  0  0  0
M  END
> <minimizedAffinity>
-8.74063

> <CNNscore>
0.1689269841

> <CNNaffinity>
6.7891449928

> <CNN_VS>
1.1468697786

> <CNNaffinity_variance>
0.1040934920

$$$$
[H]c1nc(N([H])[H])c([H])c(-n2c(N([H])c3c([H])c(N([H])C(=O)c4c([H])c([H])c(C([H])([H])N5C([H])([H])C([H])([H])N(C([H])([H])C([H])([H])[H])C([H])([H])C5([H])[H])c(Cl)c4[H])c([H])c([H])c3C([H])([H])[H])nc3c([H])c([H])c([H])c([H])c32)n1


 47 52  0  0  0  0  0  0  0  0999 V2000
  -18.0219   11.4265  -19.0915 C   0  0  0  0  0  0  0  0  0  0  0  0
  -16.9615   10.5214  -19.1890 C   0  0  0  0  0  0  0  0  0  0  0  0
  -16.1738   10.5222  -20.2846 C   0  0  0  0  0  0  0  0  0  0  0  0
  -16.3736   11.3839  -21.3170 C   0  0  0  0  0  0  0  0  0  0  0  0
  -15.4660   11.3469  -22.5182 C   0  0  0  0  0  0  0  0  0  0  0  0
  -17.4177   12.2989  -21.2585 C   0  0  0  0  0  0  0  0  0  0  0  0
  -18.2241   12.3016  -20.1434 C   0  0  0  0  0  0  0  0  0  0  0  0
  -19.2728   10.2833  -17.2303 C   0  0  0  0  0  0  0  0  0  0  0  0
  -18.9377    9.1101  -17.5446 O   0  0  0  0  0  0  0  0  0  0  0  0
  -18.8540   11.3985  -17.9502 N   0  0  0  0  0  0  0  0  0  0  0  0
  -19.1994   12.3474  -17.5943 H   0  0  0  0  0  0  0  0  0  0  0  0
  -21.7464   10.6649  -13.7201 C   0  0  0  0  0  0  0  0  0  0  0  0
  -22.2064   10.9771  -14.9717 C   0  0  0  0  0  0  0  0  0  0  0  0
  -21.4122   10.8557  -16.1265 C   0  0  0  0  0  0  0  0  0  0  0  0
  -20.1422   10.4203  -16.0451 C   0  0  0  0  0  0  0  0  0  0  0  0
  -19.6490   10.0990  -14.8003 C   0  0  0  0  0  0  0  0  0  0  0  0
  -20.4107   10.2118  -13.6698 C   0  0  0  0  0  0  0  0  0  0  0  0
  -19.7691    9.7969  -12.0826 Cl  0  0  0  0  0  0  0  0  0  0  0  0
  -22.5022   10.7972  -12.4546 C   0  0  0  0  0  0  0  0  0  0  0  0
  -25.3075    7.8854  -11.5344 N   0  0  0  0  0  0  0  0  0  0  0  0
  -24.0515    7.4191  -12.0886 C   0  0  0  0  0  0  0  0  0  0  0  0
  -23.0435    8.5188  -11.7954 C   0  0  0  0  0  0  0  0  0  0  0  0
  -23.4396    9.7847  -12.2619 N   0  0  0  0  0  0  0  0  0  0  0  0
  -24.7230    9.8990  -12.8370 C   0  0  0  0  0  0  0  0  0  0  0  0
  -25.7736    8.9838  -12.3205 C   0  0  0  0  0  0  0  0  0  0  0  0
  -27.5424    7.2347  -12.2745 C   0  0  0  0  0  0  0  0  0  0  0  0
  -26.2606    6.7950  -11.5701 C   0  0  0  0  0  0  0  0  0  0  0  0
  -17.5960   13.1710  -22.3255 N   0  0  0  0  0  0  0  0  0  0  0  0
  -17.4002   12.7607  -23.3075 H   0  0  0  0  0  0  0  0  0  0  0  0
  -18.0056   14.5411  -22.2943 C   0  0  0  0  0  0  0  0  0  0  0  0
  -18.9858   15.1511  -21.6223 N   0  0  0  0  0  0  0  0  0  0  0  0
  -19.0430   16.4653  -21.8660 C   0  0  0  0  0  0  0  0  0  0  0  0
  -19.8537   17.5056  -21.4274 C   0  0  0  0  0  0  0  0  0  0  0  0
  -19.6765   18.7996  -21.8582 C   0  0  0  0  0  0  0  0  0  0  0  0
  -18.6589   19.0349  -22.7480 C   0  0  0  0  0  0  0  0  0  0  0  0
  -17.8515   18.0082  -23.1871 C   0  0  0  0  0  0  0  0  0  0  0  0
  -18.0170   16.7045  -22.7637 C   0  0  0  0  0  0  0  0  0  0  0  0
  -17.4097   15.5400  -23.0060 N   0  0  0  0  0  0  0  0  0  0  0  0
  -16.3081   15.3515  -23.8683 C   0  0  0  0  0  0  0  0  0  0  0  0
  -16.4585   15.6472  -25.2157 C   0  0  0  0  0  0  0  0  0  0  0  0
  -15.4203   15.4880  -26.1354 C   0  0  0  0  0  0  0  0  0  0  0  0
  -15.5984   15.7979  -27.5087 N   0  0  0  0  0  0  0  0  0  0  0  0
  -14.2578   15.0298  -25.6431 N   0  0  0  0  0  0  0  0  0  0  0  0
  -14.1136   14.7437  -24.3372 C   0  0  0  0  0  0  0  0  0  0  0  0
  -15.1130   14.8963  -23.4495 N   0  0  0  0  0  0  0  0  0  0  0  0
  -16.2195   16.5797  -27.7857 H   0  0  0  0  0  0  0  0  0  0  0  0
  -15.1150   15.2526  -28.2485 H   0  0  0  0  0  0  0  0  0  0  0  0
 26 27  1  0  0  0
 27 20  1  0  0  0
 20 21  1  0  0  0
 21 22  1  0  0  0
 22 23  1  0  0  0
 23 19  1  0  0  0
 19 12  1  0  0  0
 12 13  2  0  0  0
 13 14  1  0  0  0
 14 15  2  0  0  0
 15 16  1  0  0  0
 16 17  2  0  0  0
 17 18  1  0  0  0
 15  8  1  0  0  0
  8  9  2  0  0  0
  8 10  1  0  0  0
 10  1  1  0  0  0
  1  2  2  0  0  0
  2  3  1  0  0  0
  3  4  2  0  0  0
  4  5  1  0  0  0
  4  6  1  0  0  0
  6 28  1  0  0  0
 28 30  1  0  0  0
 30 31  2  0  0  0
 31 32  1  0  0  0
 32 33  2  0  0  0
 33 34  1  0  0  0
 34 35  2  0  0  0
 35 36  1  0  0  0
 36 37  2  0  0  0
 37 38  1  0  0  0
 38 39  1  0  0  0
 39 40  2  0  0  0
 40 41  1  0  0  0
 41 42  1  0  0  0
 41 43  2  0  0  0
 43 44  1  0  0  0
 44 45  2  0  0  0
  6  7  2  0  0  0
 23 24  1  0  0  0
 24 25  1  0  0  0
 25 20  1  0  0  0
 17 12  1  0  0  0
  7  1  1  0  0  0
 38 30  1  0  0  0
 45 39  1  0  0  0
 37 32  1  0  0  0
 10 11  1  0  0  0
 28 29  1  0  0  0
 42 46  1  0  0  0
 42 47  1  0  0  0
M  END
> <minimizedAffinity>
-9.11828

> <CNNscore>
0.1670432836

> <CNNaffinity>
6.8374509811

> <CNN_VS>
1.1421502829

> <CNNaffinity_variance>
0.1018089652

$$$$
[H]c1c([H])c(N([H])c2nc(N([H])[C@]3([H])C([H])([H])C([H])([H])OC([H])([H])[C@]3([H])N([H])[H])c([H])c3nc([H])n([H])c(=O)c23)c2c(c1[H])c(C([H])([H])[H])c([H])n2[H]


 36 40  0  0  0  0  0  0  0  0999 V2000
  -17.0889   12.5920  -21.8078 C   0  0  0  0  0  0  0  0  0  0  0  0
  -17.8596   13.7148  -21.9045 N   0  0  0  0  0  0  0  0  0  0  0  0
  -18.7347   14.1220  -21.0028 C   0  0  0  0  0  0  0  0  0  0  0  0
  -18.9137   13.3812  -19.8590 C   0  0  0  0  0  0  0  0  0  0  0  0
  -18.1647   12.2339  -19.7024 C   0  0  0  0  0  0  0  0  0  0  0  0
  -18.3165   11.4639  -18.6026 N   0  0  0  0  0  0  0  0  0  0  0  0
  -17.6243   10.3319  -18.4119 C   0  0  0  0  0  0  0  0  0  0  0  0
  -16.7476    9.9422  -19.3426 N   0  0  0  0  0  0  0  0  0  0  0  0
  -16.5246   10.6594  -20.4934 C   0  0  0  0  0  0  0  0  0  0  0  0
  -15.6824   10.2079  -21.3100 O   0  0  0  0  0  0  0  0  0  0  0  0
  -17.2452   11.8134  -20.6598 C   0  0  0  0  0  0  0  0  0  0  0  0
  -16.1817    9.0646  -19.2422 H   0  0  0  0  0  0  0  0  0  0  0  0
  -16.1236   12.2930  -22.7546 N   0  0  0  0  0  0  0  0  0  0  0  0
  -15.7345   11.3402  -22.8564 H   0  0  0  0  0  0  0  0  0  0  0  0
  -16.3210   15.3078  -28.0984 C   0  0  0  0  0  0  0  0  0  0  0  0
  -16.4592   14.4782  -26.8933 C   0  0  0  0  0  0  0  0  0  0  0  0
  -17.4906   13.5688  -26.6556 C   0  0  0  0  0  0  0  0  0  0  0  0
  -17.2687   13.0014  -25.4418 N   0  0  0  0  0  0  0  0  0  0  0  0
  -16.1698   13.4836  -24.8880 C   0  0  0  0  0  0  0  0  0  0  0  0
  -15.5216   13.2276  -23.6669 C   0  0  0  0  0  0  0  0  0  0  0  0
  -14.3809   13.9337  -23.4316 C   0  0  0  0  0  0  0  0  0  0  0  0
  -13.8421   14.8742  -24.3282 C   0  0  0  0  0  0  0  0  0  0  0  0
  -14.4898   15.1011  -25.5021 C   0  0  0  0  0  0  0  0  0  0  0  0
  -15.6569   14.3949  -25.7674 C   0  0  0  0  0  0  0  0  0  0  0  0
  -17.9041   12.2838  -25.0346 H   0  0  0  0  0  0  0  0  0  0  0  0
  -19.5109   15.3197  -21.2180 N   0  0  0  0  0  0  0  0  0  0  0  0
  -20.5374   15.2641  -20.9933 H   0  0  0  0  0  0  0  0  0  0  0  0
  -18.9516   16.5321  -21.7080 C   0  0  0  0  0  0  0  0  0  0  0  0
  -20.0772   17.3777  -22.3212 C   0  0  0  0  0  0  0  0  0  0  0  0
  -19.4346   18.6716  -22.8397 C   0  0  0  0  0  0  0  0  0  0  0  0
  -18.4735   18.4204  -23.8103 O   0  0  0  0  0  0  0  0  0  0  0  0
  -17.4404   17.6487  -23.2391 C   0  0  0  0  0  0  0  0  0  0  0  0
  -17.9911   16.2975  -22.8735 C   0  0  0  0  0  0  0  0  0  0  0  0
  -18.7136   15.8113  -24.0384 N   0  0  0  0  0  0  0  0  0  0  0  0
  -18.8967   14.7893  -23.9145 H   0  0  0  0  0  0  0  0  0  0  0  0
  -18.0384   15.8774  -24.8467 H   0  0  0  0  0  0  0  0  0  0  0  0
 15 16  1  0  0  0
 16 17  2  0  0  0
 17 18  1  0  0  0
 18 19  1  0  0  0
 19 20  2  0  0  0
 20 13  1  0  0  0
 13  1  1  0  0  0
  1  2  2  0  0  0
  2  3  1  0  0  0
  3 26  1  0  0  0
 26 28  1  0  0  0
 28 29  1  0  0  0
 29 30  1  0  0  0
 30 31  1  0  0  0
 31 32  1  0  0  0
 32 33  1  0  0  0
 33 34  1  0  0  0
  3  4  2  0  0  0
  4  5  1  0  0  0
  5  6  1  0  0  0
  6  7  2  0  0  0
  7  8  1  0  0  0
  8  9  1  0  0  0
  9 10  2  0  0  0
  9 11  1  0  0  0
 20 21  1  0  0  0
 21 22  2  0  0  0
 22 23  1  0  0  0
 23 24  2  0  0  0
 24 16  1  0  0  0
 24 19  1  0  0  0
 11  1  1  0  0  0
 33 28  1  0  0  0
 11  5  2  0  0  0
 18 25  1  0  0  0
 13 14  1  0  0  0
 26 27  1  0  0  0
 34 35  1  0  0  0
 34 36  1  0  0  0
  8 12  1  0  0  0
M  END
> <minimizedAffinity>
-10.11809

> <CNNscore>
0.8959847093

> <CNNaffinity>
7.8326568604

> <CNN_VS>
7.0179409981

> <CNNaffinity_variance>
0.1150152460

$$$$
[H]c1c([H])c(N([H])c2nc(N([H])[C@]3([H])C([H])([H])C([H])([H])OC([H])([H])[C@]3([H])N([H])[H])c([H])c3nc([H])n([H])c(=O)c23)c2c(c1[H])c(C([H])([H])[H])c([H])n2[H]


 36 40  0  0  0  0  0  0  0  0999 V2000
  -17.1186   12.4728  -21.7248 C   0  0  0  0  0  0  0  0  0  0  0  0
  -17.9206   13.5764  -21.7791 N   0  0  0  0  0  0  0  0  0  0  0  0
  -18.7867   13.9391  -20.8501 C   0  0  0  0  0  0  0  0  0  0  0  0
  -18.9214   13.1677  -19.7205 C   0  0  0  0  0  0  0  0  0  0  0  0
  -18.1391   12.0378  -19.6064 C   0  0  0  0  0  0  0  0  0  0  0  0
  -18.2469   11.2390  -18.5221 N   0  0  0  0  0  0  0  0  0  0  0  0
  -17.5210   10.1221  -18.3724 C   0  0  0  0  0  0  0  0  0  0  0  0
  -16.6544    9.7775  -19.3300 N   0  0  0  0  0  0  0  0  0  0  0  0
  -16.4752   10.5266  -20.4681 C   0  0  0  0  0  0  0  0  0  0  0  0
  -15.6390   10.1168  -21.3124 O   0  0  0  0  0  0  0  0  0  0  0  0
  -17.2295   11.6642  -20.5924 C   0  0  0  0  0  0  0  0  0  0  0  0
  -16.0635    8.9134  -19.2620 H   0  0  0  0  0  0  0  0  0  0  0  0
  -16.1661   12.2217  -22.6982 N   0  0  0  0  0  0  0  0  0  0  0  0
  -15.7524   11.2830  -22.8288 H   0  0  0  0  0  0  0  0  0  0  0  0
  -16.3720   15.0860  -28.1238 C   0  0  0  0  0  0  0  0  0  0  0  0
  -16.4923   14.2728  -26.9058 C   0  0  0  0  0  0  0  0  0  0  0  0
  -17.4399   13.2699  -26.6974 C   0  0  0  0  0  0  0  0  0  0  0  0
  -17.2288   12.7538  -25.4590 N   0  0  0  0  0  0  0  0  0  0  0  0
  -16.2146   13.3556  -24.8622 C   0  0  0  0  0  0  0  0  0  0  0  0
  -15.6113   13.1922  -23.6028 C   0  0  0  0  0  0  0  0  0  0  0  0
  -14.5605   14.0141  -23.3280 C   0  0  0  0  0  0  0  0  0  0  0  0
  -14.0698   14.9844  -24.2203 C   0  0  0  0  0  0  0  0  0  0  0  0
  -14.6724   15.1199  -25.4318 C   0  0  0  0  0  0  0  0  0  0  0  0
  -15.7477   14.2947  -25.7381 C   0  0  0  0  0  0  0  0  0  0  0  0
  -17.8111   11.9850  -25.0661 H   0  0  0  0  0  0  0  0  0  0  0  0
  -19.5988   15.1200  -21.0210 N   0  0  0  0  0  0  0  0  0  0  0  0
  -20.5241   14.9910  -21.5052 H   0  0  0  0  0  0  0  0  0  0  0  0
  -19.2017   16.4095  -20.5711 C   0  0  0  0  0  0  0  0  0  0  0  0
  -19.9042   17.4670  -21.4349 C   0  0  0  0  0  0  0  0  0  0  0  0
  -19.4487   18.8400  -20.9218 C   0  0  0  0  0  0  0  0  0  0  0  0
  -18.0738   19.0039  -21.0301 O   0  0  0  0  0  0  0  0  0  0  0  0
  -17.4352   18.0336  -20.2302 C   0  0  0  0  0  0  0  0  0  0  0  0
  -17.7144   16.6721  -20.8054 C   0  0  0  0  0  0  0  0  0  0  0  0
  -17.4301   16.7535  -22.2295 N   0  0  0  0  0  0  0  0  0  0  0  0
  -17.3734   15.7828  -22.6141 H   0  0  0  0  0  0  0  0  0  0  0  0
  -16.4520   17.1418  -22.3081 H   0  0  0  0  0  0  0  0  0  0  0  0
 15 16  1  0  0  0
 16 17  2  0  0  0
 17 18  1  0  0  0
 18 19  1  0  0  0
 19 20  2  0  0  0
 20 13  1  0  0  0
 13  1  1  0  0  0
  1  2  2  0  0  0
  2  3  1  0  0  0
  3 26  1  0  0  0
 26 28  1  0  0  0
 28 29  1  0  0  0
 29 30  1  0  0  0
 30 31  1  0  0  0
 31 32  1  0  0  0
 32 33  1  0  0  0
 33 34  1  0  0  0
  3  4  2  0  0  0
  4  5  1  0  0  0
  5  6  1  0  0  0
  6  7  2  0  0  0
  7  8  1  0  0  0
  8  9  1  0  0  0
  9 10  2  0  0  0
  9 11  1  0  0  0
 20 21  1  0  0  0
 21 22  2  0  0  0
 22 23  1  0  0  0
 23 24  2  0  0  0
 24 16  1  0  0  0
 24 19  1  0  0  0
 11  1  1  0  0  0
 33 28  1  0  0  0
 11  5  2  0  0  0
 18 25  1  0  0  0
 13 14  1  0  0  0
 26 27  1  0  0  0
 34 35  1  0  0  0
 34 36  1  0  0  0
  8 12  1  0  0  0
M  END
> <minimizedAffinity>
-9.96304

> <CNNscore>
0.8903982043

> <CNNaffinity>
7.9543294907

> <CNN_VS>
7.0825204849

> <CNNaffinity_variance>
0.2516945004

$$$$
[H]c1c([H])c(N([H])c2nc(N([H])[C@]3([H])C([H])([H])C([H])([H])OC([H])([H])[C@]3([H])N([H])[H])c([H])c3nc([H])n([H])c(=O)c23)c2c(c1[H])c(C([H])([H])[H])c([H])n2[H]


 36 40  0  0  0  0  0  0  0  0999 V2000
  -17.1311   12.4672  -21.6723 C   0  0  0  0  0  0  0  0  0  0  0  0
  -17.9234   13.5778  -21.7266 N   0  0  0  0  0  0  0  0  0  0  0  0
  -18.7945   13.9420  -20.8028 C   0  0  0  0  0  0  0  0  0  0  0  0
  -18.9456   13.1647  -19.6793 C   0  0  0  0  0  0  0  0  0  0  0  0
  -18.1738   12.0275  -19.5656 C   0  0  0  0  0  0  0  0  0  0  0  0
  -18.2977   11.2230  -18.4873 N   0  0  0  0  0  0  0  0  0  0  0  0
  -17.5826   10.0990  -18.3385 C   0  0  0  0  0  0  0  0  0  0  0  0
  -16.7106    9.7532  -19.2906 N   0  0  0  0  0  0  0  0  0  0  0  0
  -16.5152   10.5078  -20.4223 C   0  0  0  0  0  0  0  0  0  0  0  0
  -15.6750   10.0962  -21.2619 O   0  0  0  0  0  0  0  0  0  0  0  0
  -17.2588   11.6525  -20.5460 C   0  0  0  0  0  0  0  0  0  0  0  0
  -16.1275    8.8837  -19.2229 H   0  0  0  0  0  0  0  0  0  0  0  0
  -16.1723   12.2142  -22.6389 N   0  0  0  0  0  0  0  0  0  0  0  0
  -15.7494   11.2779  -22.7573 H   0  0  0  0  0  0  0  0  0  0  0  0
  -16.3941   15.0307  -28.0888 C   0  0  0  0  0  0  0  0  0  0  0  0
  -16.5100   14.2274  -26.8638 C   0  0  0  0  0  0  0  0  0  0  0  0
  -17.4523   13.2214  -26.6466 C   0  0  0  0  0  0  0  0  0  0  0  0
  -17.2384   12.7171  -25.4038 N   0  0  0  0  0  0  0  0  0  0  0  0
  -16.2271   13.3291  -24.8125 C   0  0  0  0  0  0  0  0  0  0  0  0
  -15.6226   13.1796  -23.5520 C   0  0  0  0  0  0  0  0  0  0  0  0
  -14.5760   14.0092  -23.2845 C   0  0  0  0  0  0  0  0  0  0  0  0
  -14.0905   14.9743  -24.1853 C   0  0  0  0  0  0  0  0  0  0  0  0
  -14.6941   15.0964  -25.3977 C   0  0  0  0  0  0  0  0  0  0  0  0
  -15.7652   14.2631  -25.6966 C   0  0  0  0  0  0  0  0  0  0  0  0
  -17.8166   11.9487  -25.0042 H   0  0  0  0  0  0  0  0  0  0  0  0
  -19.5951   15.1307  -20.9733 N   0  0  0  0  0  0  0  0  0  0  0  0
  -20.6393   15.0072  -20.9306 H   0  0  0  0  0  0  0  0  0  0  0  0
  -19.0367   16.4207  -21.1903 C   0  0  0  0  0  0  0  0  0  0  0  0
  -18.1110   16.7577  -20.0123 C   0  0  0  0  0  0  0  0  0  0  0  0
  -17.5327   18.1538  -20.2815 C   0  0  0  0  0  0  0  0  0  0  0  0
  -18.5274   19.1189  -20.3693 O   0  0  0  0  0  0  0  0  0  0  0  0
  -19.3703   18.8066  -21.4562 C   0  0  0  0  0  0  0  0  0  0  0  0
  -20.0945   17.5234  -21.1539 C   0  0  0  0  0  0  0  0  0  0  0  0
  -20.6430   17.6585  -19.8137 N   0  0  0  0  0  0  0  0  0  0  0  0
  -21.3499   16.9025  -19.6650 H   0  0  0  0  0  0  0  0  0  0  0  0
  -21.1939   18.5586  -19.8153 H   0  0  0  0  0  0  0  0  0  0  0  0
 15 16  1  0  0  0
 16 17  2  0  0  0
 17 18  1  0  0  0
 18 19  1  0  0  0
 19 20  2  0  0  0
 20 13  1  0  0  0
 13  1  1  0  0  0
  1  2  2  0  0  0
  2  3  1  0  0  0
  3 26  1  0  0  0
 26 28  1  0  0  0
 28 29  1  0  0  0
 29 30  1  0  0  0
 30 31  1  0  0  0
 31 32  1  0  0  0
 32 33  1  0  0  0
 33 34  1  0  0  0
  3  4  2  0  0  0
  4  5  1  0  0  0
  5  6  1  0  0  0
  6  7  2  0  0  0
  7  8  1  0  0  0
  8  9  1  0  0  0
  9 10  2  0  0  0
  9 11  1  0  0  0
 20 21  1  0  0  0
 21 22  2  0  0  0
 22 23  1  0  0  0
 23 24  2  0  0  0
 24 16  1  0  0  0
 24 19  1  0  0  0
 11  1  1  0  0  0
 33 28  1  0  0  0
 11  5  2  0  0  0
 18 25  1  0  0  0
 13 14  1  0  0  0
 26 27  1  0  0  0
 34 35  1  0  0  0
 34 36  1  0  0  0
  8 12  1  0  0  0
M  END
> <minimizedAffinity>
-9.97388

> <CNNscore>
0.8208103180

> <CNNaffinity>
7.7325348854

> <CNN_VS>
6.3469443321

> <CNNaffinity_variance>
0.1491304189

$$$$
[H]c1c([H])c(N([H])c2nc(N([H])[C@]3([H])C([H])([H])C([H])([H])OC([H])([H])[C@]3([H])N([H])[H])c([H])c3nc([H])n([H])c(=O)c23)c2c(c1[H])c(C([H])([H])[H])c([H])n2[H]


 36 40  0  0  0  0  0  0  0  0999 V2000
  -17.3879   13.3734  -21.5010 C   0  0  0  0  0  0  0  0  0  0  0  0
  -18.2217   14.4271  -21.2594 N   0  0  0  0  0  0  0  0  0  0  0  0
  -19.0602   14.5218  -20.2432 C   0  0  0  0  0  0  0  0  0  0  0  0
  -19.1290   13.4950  -19.3321 C   0  0  0  0  0  0  0  0  0  0  0  0
  -18.3118   12.4004  -19.5216 C   0  0  0  0  0  0  0  0  0  0  0  0
  -18.3546   11.3591  -18.6618 N   0  0  0  0  0  0  0  0  0  0  0  0
  -17.5928   10.2664  -18.8119 C   0  0  0  0  0  0  0  0  0  0  0  0
  -16.7553   10.1963  -19.8513 N   0  0  0  0  0  0  0  0  0  0  0  0
  -16.6419   11.2052  -20.7775 C   0  0  0  0  0  0  0  0  0  0  0  0
  -15.8285   11.0432  -21.7221 O   0  0  0  0  0  0  0  0  0  0  0  0
  -17.4317   12.3107  -20.5970 C   0  0  0  0  0  0  0  0  0  0  0  0
  -16.1384    9.3637  -20.0146 H   0  0  0  0  0  0  0  0  0  0  0  0
  -16.4679   13.4008  -22.5357 N   0  0  0  0  0  0  0  0  0  0  0  0
  -15.4520   13.4854  -22.3617 H   0  0  0  0  0  0  0  0  0  0  0  0
  -15.6515   15.6589  -28.1853 C   0  0  0  0  0  0  0  0  0  0  0  0
  -15.7164   15.2909  -26.7642 C   0  0  0  0  0  0  0  0  0  0  0  0
  -15.0472   15.9479  -25.7308 C   0  0  0  0  0  0  0  0  0  0  0  0
  -15.3578   15.3148  -24.5701 N   0  0  0  0  0  0  0  0  0  0  0  0
  -16.1769   14.3009  -24.7887 C   0  0  0  0  0  0  0  0  0  0  0  0
  -16.7782   13.3557  -23.9391 C   0  0  0  0  0  0  0  0  0  0  0  0
  -17.5835   12.4348  -24.5380 C   0  0  0  0  0  0  0  0  0  0  0  0
  -17.8316   12.3921  -25.9220 C   0  0  0  0  0  0  0  0  0  0  0  0
  -17.2372   13.3193  -26.7196 C   0  0  0  0  0  0  0  0  0  0  0  0
  -16.4095   14.2702  -26.1349 C   0  0  0  0  0  0  0  0  0  0  0  0
  -14.9799   15.6182  -23.6483 H   0  0  0  0  0  0  0  0  0  0  0  0
  -19.9108   15.6784  -20.0955 N   0  0  0  0  0  0  0  0  0  0  0  0
  -20.4108   16.0107  -20.9597 H   0  0  0  0  0  0  0  0  0  0  0  0
  -20.0888   16.3610  -18.8604 C   0  0  0  0  0  0  0  0  0  0  0  0
  -20.8575   17.6632  -19.1273 C   0  0  0  0  0  0  0  0  0  0  0  0
  -21.0259   18.3698  -17.7751 C   0  0  0  0  0  0  0  0  0  0  0  0
  -19.8022   18.6746  -17.1934 O   0  0  0  0  0  0  0  0  0  0  0  0
  -19.1042   17.4743  -16.9458 C   0  0  0  0  0  0  0  0  0  0  0  0
  -18.7634   16.8321  -18.2627 C   0  0  0  0  0  0  0  0  0  0  0  0
  -18.1709   17.8691  -19.0927 N   0  0  0  0  0  0  0  0  0  0  0  0
  -17.7018   17.4149  -19.9094 H   0  0  0  0  0  0  0  0  0  0  0  0
  -17.3895   18.2876  -18.5200 H   0  0  0  0  0  0  0  0  0  0  0  0
 15 16  1  0  0  0
 16 17  2  0  0  0
 17 18  1  0  0  0
 18 19  1  0  0  0
 19 20  2  0  0  0
 20 13  1  0  0  0
 13  1  1  0  0  0
  1  2  2  0  0  0
  2  3  1  0  0  0
  3 26  1  0  0  0
 26 28  1  0  0  0
 28 29  1  0  0  0
 29 30  1  0  0  0
 30 31  1  0  0  0
 31 32  1  0  0  0
 32 33  1  0  0  0
 33 34  1  0  0  0
  3  4  2  0  0  0
  4  5  1  0  0  0
  5  6  1  0  0  0
  6  7  2  0  0  0
  7  8  1  0  0  0
  8  9  1  0  0  0
  9 10  2  0  0  0
  9 11  1  0  0  0
 20 21  1  0  0  0
 21 22  2  0  0  0
 22 23  1  0  0  0
 23 24  2  0  0  0
 24 16  1  0  0  0
 24 19  1  0  0  0
 11  1  1  0  0  0
 33 28  1  0  0  0
 11  5  2  0  0  0
 18 25  1  0  0  0
 13 14  1  0  0  0
 26 27  1  0  0  0
 34 35  1  0  0  0
 34 36  1  0  0  0
  8 12  1  0  0  0
M  END
> <minimizedAffinity>
-9.40036

> <CNNscore>
0.7685008049

> <CNNaffinity>
7.6425542831

> <CNN_VS>
5.8733091354

> <CNNaffinity_variance>
0.3626133502

$$$$
[H]c1c([H])c(N([H])c2nc(N([H])[C@]3([H])C([H])([H])C([H])([H])OC([H])([H])[C@]3([H])N([H])[H])c([H])c3nc([H])n([H])c(=O)c23)c2c(c1[H])c(C([H])([H])[H])c([H])n2[H]


 36 40  0  0  0  0  0  0  0  0999 V2000
  -18.1611   12.1798  -20.1661 C   0  0  0  0  0  0  0  0  0  0  0  0
  -18.3534   11.4305  -19.0411 N   0  0  0  0  0  0  0  0  0  0  0  0
  -17.6128   10.4010  -18.6718 C   0  0  0  0  0  0  0  0  0  0  0  0
  -16.5519   10.0209  -19.4587 C   0  0  0  0  0  0  0  0  0  0  0  0
  -16.3058   10.7380  -20.6106 C   0  0  0  0  0  0  0  0  0  0  0  0
  -15.2843   10.3931  -21.4248 N   0  0  0  0  0  0  0  0  0  0  0  0
  -15.0145   11.0479  -22.5629 C   0  0  0  0  0  0  0  0  0  0  0  0
  -15.7825   12.0842  -22.9135 N   0  0  0  0  0  0  0  0  0  0  0  0
  -16.8431   12.5090  -22.1500 C   0  0  0  0  0  0  0  0  0  0  0  0
  -17.5079   13.4909  -22.5670 O   0  0  0  0  0  0  0  0  0  0  0  0
  -17.0934   11.8216  -20.9909 C   0  0  0  0  0  0  0  0  0  0  0  0
  -15.6145   12.6294  -23.7939 H   0  0  0  0  0  0  0  0  0  0  0  0
  -18.9250   13.3054  -20.4254 N   0  0  0  0  0  0  0  0  0  0  0  0
  -19.5296   13.3749  -21.2615 H   0  0  0  0  0  0  0  0  0  0  0  0
  -21.2020   16.3631  -15.6140 C   0  0  0  0  0  0  0  0  0  0  0  0
  -20.8085   15.4705  -16.7130 C   0  0  0  0  0  0  0  0  0  0  0  0
  -21.3420   14.2034  -16.9518 C   0  0  0  0  0  0  0  0  0  0  0  0
  -20.7257   13.6967  -18.0509 N   0  0  0  0  0  0  0  0  0  0  0  0
  -19.8373   14.5496  -18.5305 C   0  0  0  0  0  0  0  0  0  0  0  0
  -18.9592   14.5013  -19.6275 C   0  0  0  0  0  0  0  0  0  0  0  0
  -18.1711   15.5960  -19.8159 C   0  0  0  0  0  0  0  0  0  0  0  0
  -18.1988   16.7337  -18.9891 C   0  0  0  0  0  0  0  0  0  0  0  0
  -19.0586   16.7531  -17.9357 C   0  0  0  0  0  0  0  0  0  0  0  0
  -19.8738   15.6487  -17.7195 C   0  0  0  0  0  0  0  0  0  0  0  0
  -20.9511   12.7554  -18.4351 H   0  0  0  0  0  0  0  0  0  0  0  0
  -17.9195    9.6675  -17.4672 N   0  0  0  0  0  0  0  0  0  0  0  0
  -17.1012    9.3262  -16.9005 H   0  0  0  0  0  0  0  0  0  0  0  0
  -19.2482    9.3996  -17.0361 C   0  0  0  0  0  0  0  0  0  0  0  0
  -19.7837   10.6379  -16.3027 C   0  0  0  0  0  0  0  0  0  0  0  0
  -21.2136   10.3088  -15.8520 C   0  0  0  0  0  0  0  0  0  0  0  0
  -21.2481    9.2196  -14.9911 O   0  0  0  0  0  0  0  0  0  0  0  0
  -20.7605    8.0850  -15.6725 C   0  0  0  0  0  0  0  0  0  0  0  0
  -19.3034    8.2950  -15.9813 C   0  0  0  0  0  0  0  0  0  0  0  0
  -18.6740    8.7379  -14.7471 N   0  0  0  0  0  0  0  0  0  0  0  0
  -17.6370    8.6569  -14.8540 H   0  0  0  0  0  0  0  0  0  0  0  0
  -18.9353    8.0234  -14.0158 H   0  0  0  0  0  0  0  0  0  0  0  0
 15 16  1  0  0  0
 16 17  2  0  0  0
 17 18  1  0  0  0
 18 19  1  0  0  0
 19 20  2  0  0  0
 20 13  1  0  0  0
 13  1  1  0  0  0
  1  2  2  0  0  0
  2  3  1  0  0  0
  3 26  1  0  0  0
 26 28  1  0  0  0
 28 29  1  0  0  0
 29 30  1  0  0  0
 30 31  1  0  0  0
 31 32  1  0  0  0
 32 33  1  0  0  0
 33 34  1  0  0  0
  3  4  2  0  0  0
  4  5  1  0  0  0
  5  6  1  0  0  0
  6  7  2  0  0  0
  7  8  1  0  0  0
  8  9  1  0  0  0
  9 10  2  0  0  0
  9 11  1  0  0  0
 20 21  1  0  0  0
 21 22  2  0  0  0
 22 23  1  0  0  0
 23 24  2  0  0  0
 24 16  1  0  0  0
 24 19  1  0  0  0
 11  1  1  0  0  0
 33 28  1  0  0  0
 11  5  2  0  0  0
 18 25  1  0  0  0
 13 14  1  0  0  0
 26 27  1  0  0  0
 34 35  1  0  0  0
 34 36  1  0  0  0
  8 12  1  0  0  0
M  END
> <minimizedAffinity>
-8.25628

> <CNNscore>
0.7641393542

> <CNNaffinity>
7.2913789749

> <CNN_VS>
5.5716295242

> <CNNaffinity_variance>
0.1313834041

$$$$
[H]c1c([H])c(N([H])c2nc(N([H])[C@]3([H])C([H])([H])C([H])([H])OC([H])([H])[C@]3([H])N([H])[H])c([H])c3nc([H])n([H])c(=O)c23)c2c(c1[H])c(C([H])([H])[H])c([H])n2[H]


 36 40  0  0  0  0  0  0  0  0999 V2000
  -18.6328   12.3792  -19.8462 C   0  0  0  0  0  0  0  0  0  0  0  0
  -19.1802   11.8731  -18.7024 N   0  0  0  0  0  0  0  0  0  0  0  0
  -18.7559   10.7988  -18.0616 C   0  0  0  0  0  0  0  0  0  0  0  0
  -17.6771   10.1051  -18.5556 C   0  0  0  0  0  0  0  0  0  0  0  0
  -17.0800   10.5657  -19.7102 C   0  0  0  0  0  0  0  0  0  0  0  0
  -16.0265    9.9089  -20.2433 N   0  0  0  0  0  0  0  0  0  0  0  0
  -15.4226   10.3071  -21.3718 C   0  0  0  0  0  0  0  0  0  0  0  0
  -15.8751   11.3961  -22.0011 N   0  0  0  0  0  0  0  0  0  0  0  0
  -16.9399   12.1292  -21.5352 C   0  0  0  0  0  0  0  0  0  0  0  0
  -17.2930   13.1355  -22.2005 O   0  0  0  0  0  0  0  0  0  0  0  0
  -17.5359   11.6993  -20.3782 C   0  0  0  0  0  0  0  0  0  0  0  0
  -15.4387   11.7491  -22.8874 H   0  0  0  0  0  0  0  0  0  0  0  0
  -19.0786   13.5690  -20.3970 N   0  0  0  0  0  0  0  0  0  0  0  0
  -19.4454   13.6207  -21.3626 H   0  0  0  0  0  0  0  0  0  0  0  0
  -21.6829   17.5399  -16.5068 C   0  0  0  0  0  0  0  0  0  0  0  0
  -21.2430   16.4607  -17.4019 C   0  0  0  0  0  0  0  0  0  0  0  0
  -21.9262   15.2628  -17.6155 C   0  0  0  0  0  0  0  0  0  0  0  0
  -21.2061   14.5299  -18.5038 N   0  0  0  0  0  0  0  0  0  0  0  0
  -20.1126   15.1742  -18.8723 C   0  0  0  0  0  0  0  0  0  0  0  0
  -19.0628   14.8536  -19.7509 C   0  0  0  0  0  0  0  0  0  0  0  0
  -18.0811   15.7886  -19.8819 C   0  0  0  0  0  0  0  0  0  0  0  0
  -18.0743   17.0191  -19.2003 C   0  0  0  0  0  0  0  0  0  0  0  0
  -19.1029   17.3029  -18.3573 C   0  0  0  0  0  0  0  0  0  0  0  0
  -20.1177   16.3660  -18.2039 C   0  0  0  0  0  0  0  0  0  0  0  0
  -21.5090   13.5877  -18.8279 H   0  0  0  0  0  0  0  0  0  0  0  0
  -19.4241   10.3421  -16.8665 N   0  0  0  0  0  0  0  0  0  0  0  0
  -19.5772    9.3048  -16.7779 H   0  0  0  0  0  0  0  0  0  0  0  0
  -19.8680   11.2200  -15.8393 C   0  0  0  0  0  0  0  0  0  0  0  0
  -19.9200   10.4400  -14.5176 C   0  0  0  0  0  0  0  0  0  0  0  0
  -20.4049   11.4178  -13.4384 C   0  0  0  0  0  0  0  0  0  0  0  0
  -21.6692   11.9177  -13.7220 O   0  0  0  0  0  0  0  0  0  0  0  0
  -21.6130   12.6375  -14.9336 C   0  0  0  0  0  0  0  0  0  0  0  0
  -21.3102   11.6788  -16.0525 C   0  0  0  0  0  0  0  0  0  0  0  0
  -22.2275   10.5599  -15.9042 N   0  0  0  0  0  0  0  0  0  0  0  0
  -22.2184   10.0020  -16.7885 H   0  0  0  0  0  0  0  0  0  0  0  0
  -23.1933   10.9818  -15.8509 H   0  0  0  0  0  0  0  0  0  0  0  0
 15 16  1  0  0  0
 16 17  2  0  0  0
 17 18  1  0  0  0
 18 19  1  0  0  0
 19 20  2  0  0  0
 20 13  1  0  0  0
 13  1  1  0  0  0
  1  2  2  0  0  0
  2  3  1  0  0  0
  3 26  1  0  0  0
 26 28  1  0  0  0
 28 29  1  0  0  0
 29 30  1  0  0  0
 30 31  1  0  0  0
 31 32  1  0  0  0
 32 33  1  0  0  0
 33 34  1  0  0  0
  3  4  2  0  0  0
  4  5  1  0  0  0
  5  6  1  0  0  0
  6  7  2  0  0  0
  7  8  1  0  0  0
  8  9  1  0  0  0
  9 10  2  0  0  0
  9 11  1  0  0  0
 20 21  1  0  0  0
 21 22  2  0  0  0
 22 23  1  0  0  0
 23 24  2  0  0  0
 24 16  1  0  0  0
 24 19  1  0  0  0
 11  1  1  0  0  0
 33 28  1  0  0  0
 11  5  2  0  0  0
 18 25  1  0  0  0
 13 14  1  0  0  0
 26 27  1  0  0  0
 34 35  1  0  0  0
 34 36  1  0  0  0
  8 12  1  0  0  0
M  END
> <minimizedAffinity>
-7.99402

> <CNNscore>
0.6418927908

> <CNNaffinity>
6.9842195511

> <CNN_VS>
4.4831199646

> <CNNaffinity_variance>
0.2289790809

$$$$
[H]c1c([H])c(N([H])c2nc(N([H])[C@]3([H])C([H])([H])C([H])([H])OC([H])([H])[C@]3([H])N([H])[H])c([H])c3nc([H])n([H])c(=O)c23)c2c(c1[H])c(C([H])([H])[H])c([H])n2[H]


 36 40  0  0  0  0  0  0  0  0999 V2000
  -17.5365   13.4283  -21.7084 C   0  0  0  0  0  0  0  0  0  0  0  0
  -18.3355   14.5347  -21.6694 N   0  0  0  0  0  0  0  0  0  0  0  0
  -19.2063   14.8163  -20.7169 C   0  0  0  0  0  0  0  0  0  0  0  0
  -19.3498   13.9484  -19.6609 C   0  0  0  0  0  0  0  0  0  0  0  0
  -18.5710   12.8104  -19.6428 C   0  0  0  0  0  0  0  0  0  0  0  0
  -18.6873   11.9191  -18.6341 N   0  0  0  0  0  0  0  0  0  0  0  0
  -17.9651   10.7911  -18.5798 C   0  0  0  0  0  0  0  0  0  0  0  0
  -17.0935   10.5302  -19.5591 N   0  0  0  0  0  0  0  0  0  0  0  0
  -16.9056   11.3766  -20.6252 C   0  0  0  0  0  0  0  0  0  0  0  0
  -16.0653   11.0407  -21.4976 O   0  0  0  0  0  0  0  0  0  0  0  0
  -17.6563   12.5230  -20.6527 C   0  0  0  0  0  0  0  0  0  0  0  0
  -16.5051    9.6617  -19.5644 H   0  0  0  0  0  0  0  0  0  0  0  0
  -16.5788   13.2616  -22.6946 N   0  0  0  0  0  0  0  0  0  0  0  0
  -15.5744   13.1607  -22.4697 H   0  0  0  0  0  0  0  0  0  0  0  0
  -15.6216   15.7172  -28.2387 C   0  0  0  0  0  0  0  0  0  0  0  0
  -15.7317   15.3057  -26.8323 C   0  0  0  0  0  0  0  0  0  0  0  0
  -15.1409   15.9629  -25.7524 C   0  0  0  0  0  0  0  0  0  0  0  0
  -15.4720   15.2828  -24.6243 N   0  0  0  0  0  0  0  0  0  0  0  0
  -16.2316   14.2388  -24.9071 C   0  0  0  0  0  0  0  0  0  0  0  0
  -16.8242   13.2427  -24.1114 C   0  0  0  0  0  0  0  0  0  0  0  0
  -17.5576   12.3032  -24.7707 C   0  0  0  0  0  0  0  0  0  0  0  0
  -17.7420   12.2891  -26.1652 C   0  0  0  0  0  0  0  0  0  0  0  0
  -17.1576   13.2654  -26.9099 C   0  0  0  0  0  0  0  0  0  0  0  0
  -16.4027   14.2363  -26.2628 C   0  0  0  0  0  0  0  0  0  0  0  0
  -15.1501   15.5767  -23.6786 H   0  0  0  0  0  0  0  0  0  0  0  0
  -20.0145   16.0101  -20.7873 N   0  0  0  0  0  0  0  0  0  0  0  0
  -20.8093   16.0838  -20.1016 H   0  0  0  0  0  0  0  0  0  0  0  0
  -19.7792   17.0553  -21.7229 C   0  0  0  0  0  0  0  0  0  0  0  0
  -18.9455   18.1474  -21.0371 C   0  0  0  0  0  0  0  0  0  0  0  0
  -18.7165   19.2549  -22.0749 C   0  0  0  0  0  0  0  0  0  0  0  0
  -19.9120   19.8056  -22.5179 O   0  0  0  0  0  0  0  0  0  0  0  0
  -20.6699   18.7989  -23.1514 C   0  0  0  0  0  0  0  0  0  0  0  0
  -21.0669   17.7736  -22.1249 C   0  0  0  0  0  0  0  0  0  0  0  0
  -21.6160   18.5050  -20.9940 N   0  0  0  0  0  0  0  0  0  0  0  0
  -22.1226   17.8312  -20.3755 H   0  0  0  0  0  0  0  0  0  0  0  0
  -22.3639   19.1346  -21.3915 H   0  0  0  0  0  0  0  0  0  0  0  0
 15 16  1  0  0  0
 16 17  2  0  0  0
 17 18  1  0  0  0
 18 19  1  0  0  0
 19 20  2  0  0  0
 20 13  1  0  0  0
 13  1  1  0  0  0
  1  2  2  0  0  0
  2  3  1  0  0  0
  3 26  1  0  0  0
 26 28  1  0  0  0
 28 29  1  0  0  0
 29 30  1  0  0  0
 30 31  1  0  0  0
 31 32  1  0  0  0
 32 33  1  0  0  0
 33 34  1  0  0  0
  3  4  2  0  0  0
  4  5  1  0  0  0
  5  6  1  0  0  0
  6  7  2  0  0  0
  7  8  1  0  0  0
  8  9  1  0  0  0
  9 10  2  0  0  0
  9 11  1  0  0  0
 20 21  1  0  0  0
 21 22  2  0  0  0
 22 23  1  0  0  0
 23 24  2  0  0  0
 24 16  1  0  0  0
 24 19  1  0  0  0
 11  1  1  0  0  0
 33 28  1  0  0  0
 11  5  2  0  0  0
 18 25  1  0  0  0
 13 14  1  0  0  0
 26 27  1  0  0  0
 34 35  1  0  0  0
 34 36  1  0  0  0
  8 12  1  0  0  0
M  END
> <minimizedAffinity>
-9.19326

> <CNNscore>
0.6001808643

> <CNNaffinity>
7.5102005005

> <CNN_VS>
4.5074787140

> <CNNaffinity_variance>
0.2893070877

$$$$
[H]c1c([H])c(N([H])c2nc(N([H])[C@]3([H])C([H])([H])C([H])([H])OC([H])([H])[C@]3([H])N([H])[H])c([H])c3nc([H])n([H])c(=O)c23)c2c(c1[H])c(C([H])([H])[H])c([H])n2[H]


 36 40  0  0  0  0  0  0  0  0999 V2000
  -18.4676   13.8292  -20.5903 C   0  0  0  0  0  0  0  0  0  0  0  0
  -18.8196   14.6596  -19.5653 N   0  0  0  0  0  0  0  0  0  0  0  0
  -18.6858   14.3874  -18.2797 C   0  0  0  0  0  0  0  0  0  0  0  0
  -18.1527   13.1781  -17.9018 C   0  0  0  0  0  0  0  0  0  0  0  0
  -17.7781   12.2938  -18.8915 C   0  0  0  0  0  0  0  0  0  0  0  0
  -17.2640   11.0865  -18.5698 N   0  0  0  0  0  0  0  0  0  0  0  0
  -16.9004   10.1865  -19.4943 C   0  0  0  0  0  0  0  0  0  0  0  0
  -17.0498   10.4876  -20.7880 N   0  0  0  0  0  0  0  0  0  0  0  0
  -17.5632   11.6898  -21.2118 C   0  0  0  0  0  0  0  0  0  0  0  0
  -17.6682   11.8770  -22.4503 O   0  0  0  0  0  0  0  0  0  0  0  0
  -17.9242   12.5908  -20.2441 C   0  0  0  0  0  0  0  0  0  0  0  0
  -16.7817    9.8186  -21.5503 H   0  0  0  0  0  0  0  0  0  0  0  0
  -18.5496   14.2353  -21.9116 N   0  0  0  0  0  0  0  0  0  0  0  0
  -19.3269   13.9408  -22.5268 H   0  0  0  0  0  0  0  0  0  0  0  0
  -15.5037   15.5758  -27.0701 C   0  0  0  0  0  0  0  0  0  0  0  0
  -16.3138   15.0767  -25.9503 C   0  0  0  0  0  0  0  0  0  0  0  0
  -17.1583   13.9668  -25.9990 C   0  0  0  0  0  0  0  0  0  0  0  0
  -17.7281   13.8279  -24.7740 N   0  0  0  0  0  0  0  0  0  0  0  0
  -17.3078   14.7694  -23.9472 C   0  0  0  0  0  0  0  0  0  0  0  0
  -17.5912   15.0569  -22.6004 C   0  0  0  0  0  0  0  0  0  0  0  0
  -16.9532   16.1364  -22.0686 C   0  0  0  0  0  0  0  0  0  0  0  0
  -16.0531   16.9464  -22.7844 C   0  0  0  0  0  0  0  0  0  0  0  0
  -15.7974   16.6444  -24.0854 C   0  0  0  0  0  0  0  0  0  0  0  0
  -16.4356   15.5486  -24.6538 C   0  0  0  0  0  0  0  0  0  0  0  0
  -18.4032   13.0662  -24.5537 H   0  0  0  0  0  0  0  0  0  0  0  0
  -19.1097   15.3360  -17.2779 N   0  0  0  0  0  0  0  0  0  0  0  0
  -19.0875   15.0089  -16.2780 H   0  0  0  0  0  0  0  0  0  0  0  0
  -19.5423   16.6548  -17.5885 C   0  0  0  0  0  0  0  0  0  0  0  0
  -19.1832   17.5770  -16.4143 C   0  0  0  0  0  0  0  0  0  0  0  0
  -19.6677   18.9853  -16.7856 C   0  0  0  0  0  0  0  0  0  0  0  0
  -21.0407   19.0238  -16.9913 O   0  0  0  0  0  0  0  0  0  0  0  0
  -21.3627   18.1795  -18.0742 C   0  0  0  0  0  0  0  0  0  0  0  0
  -21.0642   16.7576  -17.6848 C   0  0  0  0  0  0  0  0  0  0  0  0
  -21.6722   16.5447  -16.3808 N   0  0  0  0  0  0  0  0  0  0  0  0
  -21.7008   15.5170  -16.1902 H   0  0  0  0  0  0  0  0  0  0  0  0
  -22.6811   16.8378  -16.4800 H   0  0  0  0  0  0  0  0  0  0  0  0
 15 16  1  0  0  0
 16 17  2  0  0  0
 17 18  1  0  0  0
 18 19  1  0  0  0
 19 20  2  0  0  0
 20 13  1  0  0  0
 13  1  1  0  0  0
  1  2  2  0  0  0
  2  3  1  0  0  0
  3 26  1  0  0  0
 26 28  1  0  0  0
 28 29  1  0  0  0
 29 30  1  0  0  0
 30 31  1  0  0  0
 31 32  1  0  0  0
 32 33  1  0  0  0
 33 34  1  0  0  0
  3  4  2  0  0  0
  4  5  1  0  0  0
  5  6  1  0  0  0
  6  7  2  0  0  0
  7  8  1  0  0  0
  8  9  1  0  0  0
  9 10  2  0  0  0
  9 11  1  0  0  0
 20 21  1  0  0  0
 21 22  2  0  0  0
 22 23  1  0  0  0
 23 24  2  0  0  0
 24 16  1  0  0  0
 24 19  1  0  0  0
 11  1  1  0  0  0
 33 28  1  0  0  0
 11  5  2  0  0  0
 18 25  1  0  0  0
 13 14  1  0  0  0
 26 27  1  0  0  0
 34 35  1  0  0  0
 34 36  1  0  0  0
  8 12  1  0  0  0
M  END
> <minimizedAffinity>
-8.48354

> <CNNscore>
0.5848727226

> <CNNaffinity>
7.2133283615

> <CNN_VS>
4.2188792229

> <CNNaffinity_variance>
0.2345606089

$$$$
[H]c1c([H])c(N([H])c2nc(N([H])[C@]3([H])C([H])([H])C([H])([H])OC([H])([H])[C@]3([H])N([H])[H])c([H])c3nc([H])n([H])c(=O)c23)c2c(c1[H])c(C([H])([H])[H])c([H])n2[H]


 36 40  0  0  0  0  0  0  0  0999 V2000
  -18.2038   12.4903  -19.3299 C   0  0  0  0  0  0  0  0  0  0  0  0
  -19.0203   13.5688  -19.1447 N   0  0  0  0  0  0  0  0  0  0  0  0
  -19.9883   13.6507  -18.2498 C   0  0  0  0  0  0  0  0  0  0  0  0
  -20.2251   12.5827  -17.4177 C   0  0  0  0  0  0  0  0  0  0  0  0
  -19.4340   11.4616  -17.5559 C   0  0  0  0  0  0  0  0  0  0  0  0
  -19.6384   10.3804  -16.7719 N   0  0  0  0  0  0  0  0  0  0  0  0
  -18.9075    9.2618  -16.8787 C   0  0  0  0  0  0  0  0  0  0  0  0
  -17.9363    9.2057  -17.7953 N   0  0  0  0  0  0  0  0  0  0  0  0
  -17.6540   10.2544  -18.6372 C   0  0  0  0  0  0  0  0  0  0  0  0
  -16.7236   10.1029  -19.4687 O   0  0  0  0  0  0  0  0  0  0  0  0
  -18.4163   11.3856  -18.5034 C   0  0  0  0  0  0  0  0  0  0  0  0
  -17.3365    8.3541  -17.9201 H   0  0  0  0  0  0  0  0  0  0  0  0
  -17.1477   12.5272  -20.2248 N   0  0  0  0  0  0  0  0  0  0  0  0
  -16.2119   12.1604  -19.9814 H   0  0  0  0  0  0  0  0  0  0  0  0
  -17.1429   17.4852  -23.8445 C   0  0  0  0  0  0  0  0  0  0  0  0
  -17.1539   16.4459  -22.8057 C   0  0  0  0  0  0  0  0  0  0  0  0
  -17.1552   16.6819  -21.4304 C   0  0  0  0  0  0  0  0  0  0  0  0
  -17.1666   15.4763  -20.8050 N   0  0  0  0  0  0  0  0  0  0  0  0
  -17.1728   14.4881  -21.6826 C   0  0  0  0  0  0  0  0  0  0  0  0
  -17.1853   13.0887  -21.5482 C   0  0  0  0  0  0  0  0  0  0  0  0
  -17.1880   12.3730  -22.7070 C   0  0  0  0  0  0  0  0  0  0  0  0
  -17.1805   12.9547  -23.9878 C   0  0  0  0  0  0  0  0  0  0  0  0
  -17.1692   14.3108  -24.0877 C   0  0  0  0  0  0  0  0  0  0  0  0
  -17.1652   15.0657  -22.9209 C   0  0  0  0  0  0  0  0  0  0  0  0
  -17.1698   15.3837  -19.7677 H   0  0  0  0  0  0  0  0  0  0  0  0
  -20.8042   14.8375  -18.1538 N   0  0  0  0  0  0  0  0  0  0  0  0
  -21.6671   14.7705  -17.5553 H   0  0  0  0  0  0  0  0  0  0  0  0
  -20.4898   16.0540  -18.8202 C   0  0  0  0  0  0  0  0  0  0  0  0
  -19.6376   16.9203  -17.8814 C   0  0  0  0  0  0  0  0  0  0  0  0
  -19.3231   18.2209  -18.6334 C   0  0  0  0  0  0  0  0  0  0  0  0
  -20.4768   18.9159  -18.9721 O   0  0  0  0  0  0  0  0  0  0  0  0
  -21.2517   18.1173  -19.8386 C   0  0  0  0  0  0  0  0  0  0  0  0
  -21.7301   16.9075  -19.0835 C   0  0  0  0  0  0  0  0  0  0  0  0
  -22.2905   17.3907  -17.8314 N   0  0  0  0  0  0  0  0  0  0  0  0
  -22.8481   16.6204  -17.3965 H   0  0  0  0  0  0  0  0  0  0  0  0
  -22.9957   18.1300  -18.0956 H   0  0  0  0  0  0  0  0  0  0  0  0
 15 16  1  0  0  0
 16 17  2  0  0  0
 17 18  1  0  0  0
 18 19  1  0  0  0
 19 20  2  0  0  0
 20 13  1  0  0  0
 13  1  1  0  0  0
  1  2  2  0  0  0
  2  3  1  0  0  0
  3 26  1  0  0  0
 26 28  1  0  0  0
 28 29  1  0  0  0
 29 30  1  0  0  0
 30 31  1  0  0  0
 31 32  1  0  0  0
 32 33  1  0  0  0
 33 34  1  0  0  0
  3  4  2  0  0  0
  4  5  1  0  0  0
  5  6  1  0  0  0
  6  7  2  0  0  0
  7  8  1  0  0  0
  8  9  1  0  0  0
  9 10  2  0  0  0
  9 11  1  0  0  0
 20 21  1  0  0  0
 21 22  2  0  0  0
 22 23  1  0  0  0
 23 24  2  0  0  0
 24 16  1  0  0  0
 24 19  1  0  0  0
 11  1  1  0  0  0
 33 28  1  0  0  0
 11  5  2  0  0  0
 18 25  1  0  0  0
 13 14  1  0  0  0
 26 27  1  0  0  0
 34 35  1  0  0  0
 34 36  1  0  0  0
  8 12  1  0  0  0
M  END
> <minimizedAffinity>
-8.08630

> <CNNscore>
0.5435001850

> <CNNaffinity>
6.9453454018

> <CNN_VS>
3.7747964859

> <CNNaffinity_variance>
0.1836929172

$$$$
[H]c1nn2c(C#Cc3c([H])c(C(=O)N([H])c4c([H])c([H])c(C([H])([H])N5C([H])([H])C([H])([H])N(C([H])([H])[H])C([H])([H])C5([H])[H])c(C(F)(F)F)c4[H])c([H])c([H])c3C([H])([H])[H])c([H])nc2c([H])c1[H]


 40 44  0  0  0  0  0  0  0  0999 V2000
  -19.3929   10.2711  -17.1328 N   0  0  0  0  0  0  0  0  0  0  0  0
  -18.9742   11.5611  -17.7397 C   0  0  0  0  0  0  0  0  0  0  0  0
  -19.2889   12.6525  -17.2292 O   0  0  0  0  0  0  0  0  0  0  0  0
  -19.0197    9.4126  -17.3664 H   0  0  0  0  0  0  0  0  0  0  0  0
  -18.2712   11.4082  -18.9855 C   0  0  0  0  0  0  0  0  0  0  0  0
  -17.4556   10.2215  -18.9027 C   0  0  0  0  0  0  0  0  0  0  0  0
  -16.5169    9.9723  -19.8317 C   0  0  0  0  0  0  0  0  0  0  0  0
  -16.3772   10.8696  -20.8436 C   0  0  0  0  0  0  0  0  0  0  0  0
  -15.2238   10.7683  -21.7971 C   0  0  0  0  0  0  0  0  0  0  0  0
  -17.1685   12.0420  -20.9641 C   0  0  0  0  0  0  0  0  0  0  0  0
  -18.1021   12.2628  -19.9937 C   0  0  0  0  0  0  0  0  0  0  0  0
  -17.0476   12.6448  -22.2359 C   0  0  0  0  0  0  0  0  0  0  0  0
  -17.0301   12.9477  -23.3685 C   0  0  0  0  0  0  0  0  0  0  0  0
  -17.1521   12.9847  -24.8017 C   0  0  0  0  0  0  0  0  0  0  0  0
  -17.8607   12.3434  -25.7195 C   0  0  0  0  0  0  0  0  0  0  0  0
  -17.6071   12.9285  -26.9570 N   0  0  0  0  0  0  0  0  0  0  0  0
  -16.7394   13.9267  -26.8054 C   0  0  0  0  0  0  0  0  0  0  0  0
  -16.1205   14.8559  -27.6929 C   0  0  0  0  0  0  0  0  0  0  0  0
  -15.2501   15.7787  -27.1934 C   0  0  0  0  0  0  0  0  0  0  0  0
  -14.9853   15.7834  -25.8300 C   0  0  0  0  0  0  0  0  0  0  0  0
  -15.5902   14.8789  -25.0243 N   0  0  0  0  0  0  0  0  0  0  0  0
  -16.4467   13.9818  -25.5120 N   0  0  0  0  0  0  0  0  0  0  0  0
  -21.6397   10.7271  -13.6273 C   0  0  0  0  0  0  0  0  0  0  0  0
  -22.1621   11.2572  -14.7801 C   0  0  0  0  0  0  0  0  0  0  0  0
  -21.5529   11.1371  -16.0592 C   0  0  0  0  0  0  0  0  0  0  0  0
  -20.4306   10.5014  -16.1791 C   0  0  0  0  0  0  0  0  0  0  0  0
  -19.8528    9.9194  -14.9737 C   0  0  0  0  0  0  0  0  0  0  0  0
  -20.4282   10.0232  -13.7586 C   0  0  0  0  0  0  0  0  0  0  0  0
  -19.6819    9.5424  -12.5839 C   0  0  0  0  0  0  0  0  0  0  0  0
  -20.2369    8.7874  -11.6647 F   0  0  0  0  0  0  0  0  0  0  0  0
  -18.5726    8.7626  -13.0786 F   0  0  0  0  0  0  0  0  0  0  0  0
  -18.9860   10.6505  -12.0102 F   0  0  0  0  0  0  0  0  0  0  0  0
  -22.2268   10.6260  -12.3144 C   0  0  0  0  0  0  0  0  0  0  0  0
  -25.5107    9.3456  -14.5814 C   0  0  0  0  0  0  0  0  0  0  0  0
  -25.8997    9.4522  -13.1786 N   0  0  0  0  0  0  0  0  0  0  0  0
  -25.1295    8.4562  -12.4543 C   0  0  0  0  0  0  0  0  0  0  0  0
  -23.6951    8.8619  -12.5106 C   0  0  0  0  0  0  0  0  0  0  0  0
  -23.4962   10.2070  -12.0110 N   0  0  0  0  0  0  0  0  0  0  0  0
  -24.6059   10.8983  -11.6775 C   0  0  0  0  0  0  0  0  0  0  0  0
  -25.6907   10.7933  -12.7777 C   0  0  0  0  0  0  0  0  0  0  0  0
 34 35  1  0  0  0
 35 36  1  0  0  0
 36 37  1  0  0  0
 37 38  1  0  0  0
 38 33  1  0  0  0
 33 23  1  0  0  0
 23 24  2  0  0  0
 24 25  1  0  0  0
 25 26  2  0  0  0
 26  1  1  0  0  0
  1  2  1  0  0  0
  2  3  2  0  0  0
  2  5  1  0  0  0
  5  6  2  0  0  0
  6  7  1  0  0  0
  7  8  2  0  0  0
  8  9  1  0  0  0
  8 10  1  0  0  0
 10 11  2  0  0  0
 10 12  1  0  0  0
 12 13  3  0  0  0
 13 14  1  0  0  0
 14 15  2  0  0  0
 15 16  1  0  0  0
 16 17  2  0  0  0
 17 18  1  0  0  0
 18 19  2  0  0  0
 19 20  1  0  0  0
 20 21  2  0  0  0
 21 22  1  0  0  0
 26 27  1  0  0  0
 27 28  2  0  0  0
 28 29  1  0  0  0
 29 30  1  0  0  0
 29 31  1  0  0  0
 29 32  1  0  0  0
 38 39  1  0  0  0
 39 40  1  0  0  0
 40 35  1  0  0  0
 28 23  1  0  0  0
 11  5  1  0  0  0
 22 14  1  0  0  0
 22 17  1  0  0  0
  1  4  1  0  0  0
M  END
> <minimizedAffinity>
-9.65850

> <CNNscore>
0.2837872803

> <CNNaffinity>
6.5913262367

> <CNN_VS>
1.8705345392

> <CNNaffinity_variance>
0.0275563952

$$$$
[H]c1nn2c(C#Cc3c([H])c(C(=O)N([H])c4c([H])c([H])c(C([H])([H])N5C([H])([H])C([H])([H])N(C([H])([H])[H])C([H])([H])C5([H])[H])c(C(F)(F)F)c4[H])c([H])c([H])c3C([H])([H])[H])c([H])nc2c([H])c1[H]


 40 44  0  0  0  0  0  0  0  0999 V2000
  -19.7812   10.7702  -17.2452 N   0  0  0  0  0  0  0  0  0  0  0  0
  -18.5175   10.4961  -17.9771 C   0  0  0  0  0  0  0  0  0  0  0  0
  -17.8407    9.4765  -17.7467 O   0  0  0  0  0  0  0  0  0  0  0  0
  -20.4355   11.4261  -17.5146 H   0  0  0  0  0  0  0  0  0  0  0  0
  -18.1362   11.5499  -18.8791 C   0  0  0  0  0  0  0  0  0  0  0  0
  -18.3339   12.8124  -18.2103 C   0  0  0  0  0  0  0  0  0  0  0  0
  -18.2843   13.9650  -18.8996 C   0  0  0  0  0  0  0  0  0  0  0  0
  -18.0344   13.8916  -20.2340 C   0  0  0  0  0  0  0  0  0  0  0  0
  -18.1660   15.1082  -21.1014 C   0  0  0  0  0  0  0  0  0  0  0  0
  -17.8237   12.6691  -20.9242 C   0  0  0  0  0  0  0  0  0  0  0  0
  -17.8937   11.5216  -20.1890 C   0  0  0  0  0  0  0  0  0  0  0  0
  -17.2911   12.8657  -22.2176 C   0  0  0  0  0  0  0  0  0  0  0  0
  -17.0592   12.9775  -23.3616 C   0  0  0  0  0  0  0  0  0  0  0  0
  -17.1310   13.0342  -24.7975 C   0  0  0  0  0  0  0  0  0  0  0  0
  -17.8078   12.4065  -25.7482 C   0  0  0  0  0  0  0  0  0  0  0  0
  -17.5104   13.0079  -26.9680 N   0  0  0  0  0  0  0  0  0  0  0  0
  -16.6476   14.0027  -26.7726 C   0  0  0  0  0  0  0  0  0  0  0  0
  -15.9971   14.9429  -27.6251 C   0  0  0  0  0  0  0  0  0  0  0  0
  -15.1438   15.8576  -27.0830 C   0  0  0  0  0  0  0  0  0  0  0  0
  -14.9268   15.8434  -25.7112 C   0  0  0  0  0  0  0  0  0  0  0  0
  -15.5604   14.9289  -24.9396 N   0  0  0  0  0  0  0  0  0  0  0  0
  -16.4002   14.0398  -25.4691 N   0  0  0  0  0  0  0  0  0  0  0  0
  -21.0318    8.1707  -14.2082 C   0  0  0  0  0  0  0  0  0  0  0  0
  -19.6801    8.3479  -14.3644 C   0  0  0  0  0  0  0  0  0  0  0  0
  -19.0975    9.2381  -15.3078 C   0  0  0  0  0  0  0  0  0  0  0  0
  -19.8601    9.9346  -16.0898 C   0  0  0  0  0  0  0  0  0  0  0  0
  -21.3019    9.7750  -15.9437 C   0  0  0  0  0  0  0  0  0  0  0  0
  -21.8616    8.9381  -15.0467 C   0  0  0  0  0  0  0  0  0  0  0  0
  -23.3186    8.7302  -15.0929 C   0  0  0  0  0  0  0  0  0  0  0  0
  -24.0700    8.8100  -14.0197 F   0  0  0  0  0  0  0  0  0  0  0  0
  -23.8581    9.7213  -15.9931 F   0  0  0  0  0  0  0  0  0  0  0  0
  -23.5781    7.5366  -15.8340 F   0  0  0  0  0  0  0  0  0  0  0  0
  -21.7515    7.4435  -13.1925 C   0  0  0  0  0  0  0  0  0  0  0  0
  -19.1438    9.5779  -10.7012 C   0  0  0  0  0  0  0  0  0  0  0  0
  -19.8272    8.5493   -9.9230 N   0  0  0  0  0  0  0  0  0  0  0  0
  -21.2365    8.9010   -9.9117 C   0  0  0  0  0  0  0  0  0  0  0  0
  -21.7500    8.7649  -11.3057 C   0  0  0  0  0  0  0  0  0  0  0  0
  -21.4987    7.4442  -11.8452 N   0  0  0  0  0  0  0  0  0  0  0  0
  -20.7787    6.6030  -11.0741 C   0  0  0  0  0  0  0  0  0  0  0  0
  -19.5169    7.2968  -10.5043 C   0  0  0  0  0  0  0  0  0  0  0  0
 34 35  1  0  0  0
 35 36  1  0  0  0
 36 37  1  0  0  0
 37 38  1  0  0  0
 38 33  1  0  0  0
 33 23  1  0  0  0
 23 24  2  0  0  0
 24 25  1  0  0  0
 25 26  2  0  0  0
 26  1  1  0  0  0
  1  2  1  0  0  0
  2  3  2  0  0  0
  2  5  1  0  0  0
  5  6  2  0  0  0
  6  7  1  0  0  0
  7  8  2  0  0  0
  8  9  1  0  0  0
  8 10  1  0  0  0
 10 11  2  0  0  0
 10 12  1  0  0  0
 12 13  3  0  0  0
 13 14  1  0  0  0
 14 15  2  0  0  0
 15 16  1  0  0  0
 16 17  2  0  0  0
 17 18  1  0  0  0
 18 19  2  0  0  0
 19 20  1  0  0  0
 20 21  2  0  0  0
 21 22  1  0  0  0
 26 27  1  0  0  0
 27 28  2  0  0  0
 28 29  1  0  0  0
 29 30  1  0  0  0
 29 31  1  0  0  0
 29 32  1  0  0  0
 38 39  1  0  0  0
 39 40  1  0  0  0
 40 35  1  0  0  0
 28 23  1  0  0  0
 11  5  1  0  0  0
 22 14  1  0  0  0
 22 17  1  0  0  0
  1  4  1  0  0  0
M  END
> <minimizedAffinity>
-9.36378

> <CNNscore>
0.2313607335

> <CNNaffinity>
6.5510573387

> <CNN_VS>
1.5156574249

> <CNNaffinity_variance>
0.1670779735

$$$$
[H]c1nn2c(C#Cc3c([H])c(C(=O)N([H])c4c([H])c([H])c(C([H])([H])N5C([H])([H])C([H])([H])N(C([H])([H])[H])C([H])([H])C5([H])[H])c(C(F)(F)F)c4[H])c([H])c([H])c3C([H])([H])[H])c([H])nc2c([H])c1[H]


 40 44  0  0  0  0  0  0  0  0999 V2000
  -19.2338   10.5991  -16.9708 N   0  0  0  0  0  0  0  0  0  0  0  0
  -19.2356   11.7324  -17.9317 C   0  0  0  0  0  0  0  0  0  0  0  0
  -19.9453   12.7392  -17.7485 O   0  0  0  0  0  0  0  0  0  0  0  0
  -18.5714    9.8977  -16.9569 H   0  0  0  0  0  0  0  0  0  0  0  0
  -18.4250   11.4986  -19.0970 C   0  0  0  0  0  0  0  0  0  0  0  0
  -17.6500   10.3022  -18.8772 C   0  0  0  0  0  0  0  0  0  0  0  0
  -16.6365    9.9846  -19.7006 C   0  0  0  0  0  0  0  0  0  0  0  0
  -16.3823   10.8230  -20.7403 C   0  0  0  0  0  0  0  0  0  0  0  0
  -15.1490   10.6476  -21.5758 C   0  0  0  0  0  0  0  0  0  0  0  0
  -17.1300   12.0026  -20.9947 C   0  0  0  0  0  0  0  0  0  0  0  0
  -18.1430   12.2939  -20.1282 C   0  0  0  0  0  0  0  0  0  0  0  0
  -16.8780   12.5333  -22.2793 C   0  0  0  0  0  0  0  0  0  0  0  0
  -16.8291   12.8272  -23.4134 C   0  0  0  0  0  0  0  0  0  0  0  0
  -17.0368   12.9388  -24.8328 C   0  0  0  0  0  0  0  0  0  0  0  0
  -17.8182   12.3627  -25.7346 C   0  0  0  0  0  0  0  0  0  0  0  0
  -17.6234   13.0019  -26.9559 N   0  0  0  0  0  0  0  0  0  0  0  0
  -16.7195   13.9685  -26.8106 C   0  0  0  0  0  0  0  0  0  0  0  0
  -16.1290   14.9244  -27.6890 C   0  0  0  0  0  0  0  0  0  0  0  0
  -15.2036   15.7983  -27.2006 C   0  0  0  0  0  0  0  0  0  0  0  0
  -14.8563   15.7281  -25.8576 C   0  0  0  0  0  0  0  0  0  0  0  0
  -15.4371   14.8005  -25.0605 N   0  0  0  0  0  0  0  0  0  0  0  0
  -16.3473   13.9514  -25.5367 N   0  0  0  0  0  0  0  0  0  0  0  0
  -22.3332    9.8498  -14.2547 C   0  0  0  0  0  0  0  0  0  0  0  0
  -21.9892   11.1611  -14.4672 C   0  0  0  0  0  0  0  0  0  0  0  0
  -21.0011   11.5844  -15.3979 C   0  0  0  0  0  0  0  0  0  0  0  0
  -20.3606   10.7039  -16.0998 C   0  0  0  0  0  0  0  0  0  0  0  0
  -20.7081    9.3017  -15.9032 C   0  0  0  0  0  0  0  0  0  0  0  0
  -21.6488    8.8933  -15.0276 C   0  0  0  0  0  0  0  0  0  0  0  0
  -21.8067    7.4491  -14.7881 C   0  0  0  0  0  0  0  0  0  0  0  0
  -22.9356    6.8216  -15.0220 F   0  0  0  0  0  0  0  0  0  0  0  0
  -20.8342    6.7752  -15.6149 F   0  0  0  0  0  0  0  0  0  0  0  0
  -21.2944    7.1513  -13.4881 F   0  0  0  0  0  0  0  0  0  0  0  0
  -23.4179    9.2985  -13.4815 C   0  0  0  0  0  0  0  0  0  0  0  0
  -23.2180   12.3767  -10.6449 C   0  0  0  0  0  0  0  0  0  0  0  0
  -23.3821   11.0966   -9.9630 N   0  0  0  0  0  0  0  0  0  0  0  0
  -24.6894   10.5873  -10.3390 C   0  0  0  0  0  0  0  0  0  0  0  0
  -24.6515   10.2701  -11.7962 C   0  0  0  0  0  0  0  0  0  0  0  0
  -23.5725    9.3596  -12.1209 N   0  0  0  0  0  0  0  0  0  0  0  0
  -22.7373    9.0284  -11.1143 C   0  0  0  0  0  0  0  0  0  0  0  0
  -22.2840   10.2782  -10.3199 C   0  0  0  0  0  0  0  0  0  0  0  0
 34 35  1  0  0  0
 35 36  1  0  0  0
 36 37  1  0  0  0
 37 38  1  0  0  0
 38 33  1  0  0  0
 33 23  1  0  0  0
 23 24  2  0  0  0
 24 25  1  0  0  0
 25 26  2  0  0  0
 26  1  1  0  0  0
  1  2  1  0  0  0
  2  3  2  0  0  0
  2  5  1  0  0  0
  5  6  2  0  0  0
  6  7  1  0  0  0
  7  8  2  0  0  0
  8  9  1  0  0  0
  8 10  1  0  0  0
 10 11  2  0  0  0
 10 12  1  0  0  0
 12 13  3  0  0  0
 13 14  1  0  0  0
 14 15  2  0  0  0
 15 16  1  0  0  0
 16 17  2  0  0  0
 17 18  1  0  0  0
 18 19  2  0  0  0
 19 20  1  0  0  0
 20 21  2  0  0  0
 21 22  1  0  0  0
 26 27  1  0  0  0
 27 28  2  0  0  0
 28 29  1  0  0  0
 29 30  1  0  0  0
 29 31  1  0  0  0
 29 32  1  0  0  0
 38 39  1  0  0  0
 39 40  1  0  0  0
 40 35  1  0  0  0
 28 23  1  0  0  0
 11  5  1  0  0  0
 22 14  1  0  0  0
 22 17  1  0  0  0
  1  4  1  0  0  0
M  END
> <minimizedAffinity>
-9.26508

> <CNNscore>
0.2140989453

> <CNNaffinity>
6.4409813881

> <CNN_VS>
1.3790073395

> <CNNaffinity_variance>
0.0430137590

$$$$
[H]c1nn2c(C#Cc3c([H])c(C(=O)N([H])c4c([H])c([H])c(C([H])([H])N5C([H])([H])C([H])([H])N(C([H])([H])[H])C([H])([H])C5([H])[H])c(C(F)(F)F)c4[H])c([H])c([H])c3C([H])([H])[H])c([H])nc2c([H])c1[H]


 40 44  0  0  0  0  0  0  0  0999 V2000
  -19.2487   10.4909  -16.7680 N   0  0  0  0  0  0  0  0  0  0  0  0
  -18.9453   11.7754  -17.4502 C   0  0  0  0  0  0  0  0  0  0  0  0
  -19.2890   12.8682  -16.9616 O   0  0  0  0  0  0  0  0  0  0  0  0
  -18.8424    9.6452  -16.9931 H   0  0  0  0  0  0  0  0  0  0  0  0
  -18.3163   11.6097  -18.7333 C   0  0  0  0  0  0  0  0  0  0  0  0
  -17.6808   10.3152  -18.7625 C   0  0  0  0  0  0  0  0  0  0  0  0
  -16.8219    9.9986  -19.7464 C   0  0  0  0  0  0  0  0  0  0  0  0
  -16.5879   10.9343  -20.7046 C   0  0  0  0  0  0  0  0  0  0  0  0
  -15.4959   10.7346  -21.7133 C   0  0  0  0  0  0  0  0  0  0  0  0
  -17.2029   12.2138  -20.7152 C   0  0  0  0  0  0  0  0  0  0  0  0
  -18.0595   12.4988  -19.6919 C   0  0  0  0  0  0  0  0  0  0  0  0
  -17.0397   12.8795  -21.9503 C   0  0  0  0  0  0  0  0  0  0  0  0
  -16.7948   13.5885  -22.8515 C   0  0  0  0  0  0  0  0  0  0  0  0
  -16.3268   14.6547  -23.6968 C   0  0  0  0  0  0  0  0  0  0  0  0
  -15.6910   15.8045  -23.5248 C   0  0  0  0  0  0  0  0  0  0  0  0
  -15.4169   16.3455  -24.7779 N   0  0  0  0  0  0  0  0  0  0  0  0
  -15.8865   15.5340  -25.7230 C   0  0  0  0  0  0  0  0  0  0  0  0
  -15.9056   15.5665  -27.1487 C   0  0  0  0  0  0  0  0  0  0  0  0
  -16.4879   14.5408  -27.8326 C   0  0  0  0  0  0  0  0  0  0  0  0
  -17.0536   13.4927  -27.1182 C   0  0  0  0  0  0  0  0  0  0  0  0
  -17.0187   13.5052  -25.7648 N   0  0  0  0  0  0  0  0  0  0  0  0
  -16.4428   14.5043  -25.0969 N   0  0  0  0  0  0  0  0  0  0  0  0
  -22.3851   10.0764  -14.0227 C   0  0  0  0  0  0  0  0  0  0  0  0
  -21.5340   11.1383  -13.8466 C   0  0  0  0  0  0  0  0  0  0  0  0
  -20.4586   11.4507  -14.7227 C   0  0  0  0  0  0  0  0  0  0  0  0
  -20.2344   10.7031  -15.7566 C   0  0  0  0  0  0  0  0  0  0  0  0
  -21.1259    9.5707  -15.9765 C   0  0  0  0  0  0  0  0  0  0  0  0
  -22.1519    9.2724  -15.1539 C   0  0  0  0  0  0  0  0  0  0  0  0
  -22.8877    8.0162  -15.3747 C   0  0  0  0  0  0  0  0  0  0  0  0
  -22.3922    7.0328  -16.0891 F   0  0  0  0  0  0  0  0  0  0  0  0
  -23.1350    7.4377  -14.0756 F   0  0  0  0  0  0  0  0  0  0  0  0
  -24.2207    8.3412  -15.7731 F   0  0  0  0  0  0  0  0  0  0  0  0
  -23.6010    9.7477  -13.3214 C   0  0  0  0  0  0  0  0  0  0  0  0
  -26.2078   11.2445  -10.4014 C   0  0  0  0  0  0  0  0  0  0  0  0
  -26.7961   11.4367  -11.7234 N   0  0  0  0  0  0  0  0  0  0  0  0
  -25.9393   12.3728  -12.4302 C   0  0  0  0  0  0  0  0  0  0  0  0
  -24.6274   11.7018  -12.6623 C   0  0  0  0  0  0  0  0  0  0  0  0
  -24.7837   10.4398  -13.3563 N   0  0  0  0  0  0  0  0  0  0  0  0
  -26.0481   10.0306  -13.5894 C   0  0  0  0  0  0  0  0  0  0  0  0
  -26.9284   10.1611  -12.3220 C   0  0  0  0  0  0  0  0  0  0  0  0
 34 35  1  0  0  0
 35 36  1  0  0  0
 36 37  1  0  0  0
 37 38  1  0  0  0
 38 33  1  0  0  0
 33 23  1  0  0  0
 23 24  2  0  0  0
 24 25  1  0  0  0
 25 26  2  0  0  0
 26  1  1  0  0  0
  1  2  1  0  0  0
  2  3  2  0  0  0
  2  5  1  0  0  0
  5  6  2  0  0  0
  6  7  1  0  0  0
  7  8  2  0  0  0
  8  9  1  0  0  0
  8 10  1  0  0  0
 10 11  2  0  0  0
 10 12  1  0  0  0
 12 13  3  0  0  0
 13 14  1  0  0  0
 14 15  2  0  0  0
 15 16  1  0  0  0
 16 17  2  0  0  0
 17 18  1  0  0  0
 18 19  2  0  0  0
 19 20  1  0  0  0
 20 21  2  0  0  0
 21 22  1  0  0  0
 26 27  1  0  0  0
 27 28  2  0  0  0
 28 29  1  0  0  0
 29 30  1  0  0  0
 29 31  1  0  0  0
 29 32  1  0  0  0
 38 39  1  0  0  0
 39 40  1  0  0  0
 40 35  1  0  0  0
 28 23  1  0  0  0
 11  5  1  0  0  0
 22 14  1  0  0  0
 22 17  1  0  0  0
  1  4  1  0  0  0
M  END
> <minimizedAffinity>
-8.79415

> <CNNscore>
0.2007930279

> <CNNaffinity>
6.4236555099

> <CNN_VS>
1.2898252010

> <CNNaffinity_variance>
0.0789735466

$$$$
[H]c1nn2c(C#Cc3c([H])c(C(=O)N([H])c4c([H])c([H])c(C([H])([H])N5C([H])([H])C([H])([H])N(C([H])([H])[H])C([H])([H])C5([H])[H])c(C(F)(F)F)c4[H])c([H])c([H])c3C([H])([H])[H])c([H])nc2c([H])c1[H]


 40 44  0  0  0  0  0  0  0  0999 V2000
  -18.7655   12.0517  -19.3329 N   0  0  0  0  0  0  0  0  0  0  0  0
  -17.7247   11.7651  -20.3538 C   0  0  0  0  0  0  0  0  0  0  0  0
  -17.1482   10.6624  -20.4029 O   0  0  0  0  0  0  0  0  0  0  0  0
  -19.3738   12.7997  -19.3701 H   0  0  0  0  0  0  0  0  0  0  0  0
  -17.4088   12.8960  -21.1849 C   0  0  0  0  0  0  0  0  0  0  0  0
  -16.7149   12.4180  -22.3556 C   0  0  0  0  0  0  0  0  0  0  0  0
  -16.0952   13.2790  -23.1808 C   0  0  0  0  0  0  0  0  0  0  0  0
  -16.1572   14.6021  -22.8739 C   0  0  0  0  0  0  0  0  0  0  0  0
  -15.3251   15.5979  -23.6261 C   0  0  0  0  0  0  0  0  0  0  0  0
  -16.8396   15.1103  -21.7375 C   0  0  0  0  0  0  0  0  0  0  0  0
  -17.4456   14.2013  -20.9200 C   0  0  0  0  0  0  0  0  0  0  0  0
  -17.0182   16.5102  -21.7982 C   0  0  0  0  0  0  0  0  0  0  0  0
  -17.3838   17.6204  -21.8920 C   0  0  0  0  0  0  0  0  0  0  0  0
  -18.1576   18.8217  -22.0603 C   0  0  0  0  0  0  0  0  0  0  0  0
  -18.6740   19.4935  -23.0791 C   0  0  0  0  0  0  0  0  0  0  0  0
  -19.4334   20.5441  -22.5715 N   0  0  0  0  0  0  0  0  0  0  0  0
  -19.3828   20.5249  -21.2414 C   0  0  0  0  0  0  0  0  0  0  0  0
  -19.9418   21.3341  -20.2085 C   0  0  0  0  0  0  0  0  0  0  0  0
  -19.6818   21.0283  -18.9056 C   0  0  0  0  0  0  0  0  0  0  0  0
  -18.8716   19.9368  -18.6206 C   0  0  0  0  0  0  0  0  0  0  0  0
  -18.3564   19.1993  -19.6324 N   0  0  0  0  0  0  0  0  0  0  0  0
  -18.6170   19.4941  -20.9057 N   0  0  0  0  0  0  0  0  0  0  0  0
  -19.5817    9.5717  -16.0574 C   0  0  0  0  0  0  0  0  0  0  0  0
  -18.5736    9.1821  -16.9029 C   0  0  0  0  0  0  0  0  0  0  0  0
  -18.1364    9.9404  -18.0235 C   0  0  0  0  0  0  0  0  0  0  0  0
  -18.7083   11.0700  -18.2973 C   0  0  0  0  0  0  0  0  0  0  0  0
  -19.7783   11.5163  -17.4134 C   0  0  0  0  0  0  0  0  0  0  0  0
  -20.1935   10.8060  -16.3450 C   0  0  0  0  0  0  0  0  0  0  0  0
  -21.3874   11.2657  -15.6161 C   0  0  0  0  0  0  0  0  0  0  0  0
  -21.3688   11.5054  -14.3257 F   0  0  0  0  0  0  0  0  0  0  0  0
  -21.7933   12.5145  -16.2154 F   0  0  0  0  0  0  0  0  0  0  0  0
  -22.4868   10.4308  -15.9842 F   0  0  0  0  0  0  0  0  0  0  0  0
  -20.0047    8.9954  -14.8055 C   0  0  0  0  0  0  0  0  0  0  0  0
  -21.0237    8.0389  -10.8547 C   0  0  0  0  0  0  0  0  0  0  0  0
  -19.7213    8.6977  -10.8754 N   0  0  0  0  0  0  0  0  0  0  0  0
  -18.8168    7.8133  -11.5892 C   0  0  0  0  0  0  0  0  0  0  0  0
  -19.2659    7.7550  -13.0106 C   0  0  0  0  0  0  0  0  0  0  0  0
  -19.3539    9.0746  -13.6017 N   0  0  0  0  0  0  0  0  0  0  0  0
  -19.1228   10.1210  -12.7818 C   0  0  0  0  0  0  0  0  0  0  0  0
  -19.8994    9.9790  -11.4496 C   0  0  0  0  0  0  0  0  0  0  0  0
 34 35  1  0  0  0
 35 36  1  0  0  0
 36 37  1  0  0  0
 37 38  1  0  0  0
 38 33  1  0  0  0
 33 23  1  0  0  0
 23 24  2  0  0  0
 24 25  1  0  0  0
 25 26  2  0  0  0
 26  1  1  0  0  0
  1  2  1  0  0  0
  2  3  2  0  0  0
  2  5  1  0  0  0
  5  6  2  0  0  0
  6  7  1  0  0  0
  7  8  2  0  0  0
  8  9  1  0  0  0
  8 10  1  0  0  0
 10 11  2  0  0  0
 10 12  1  0  0  0
 12 13  3  0  0  0
 13 14  1  0  0  0
 14 15  2  0  0  0
 15 16  1  0  0  0
 16 17  2  0  0  0
 17 18  1  0  0  0
 18 19  2  0  0  0
 19 20  1  0  0  0
 20 21  2  0  0  0
 21 22  1  0  0  0
 26 27  1  0  0  0
 27 28  2  0  0  0
 28 29  1  0  0  0
 29 30  1  0  0  0
 29 31  1  0  0  0
 29 32  1  0  0  0
 38 39  1  0  0  0
 39 40  1  0  0  0
 40 35  1  0  0  0
 28 23  1  0  0  0
 11  5  1  0  0  0
 22 14  1  0  0  0
 22 17  1  0  0  0
  1  4  1  0  0  0
M  END
> <minimizedAffinity>
-9.10791

> <CNNscore>
0.1877268255

> <CNNaffinity>
6.7164545059

> <CNN_VS>
1.2608586550

> <CNNaffinity_variance>
0.1702187657

$$$$
[H]c1nn2c(C#Cc3c([H])c(C(=O)N([H])c4c([H])c([H])c(C([H])([H])N5C([H])([H])C([H])([H])N(C([H])([H])[H])C([H])([H])C5([H])[H])c(C(F)(F)F)c4[H])c([H])c([H])c3C([H])([H])[H])c([H])nc2c([H])c1[H]


 40 44  0  0  0  0  0  0  0  0999 V2000
  -19.5854   10.6686  -17.1661 N   0  0  0  0  0  0  0  0  0  0  0  0
  -18.4338   10.4132  -18.0695 C   0  0  0  0  0  0  0  0  0  0  0  0
  -17.7763    9.3577  -18.0024 O   0  0  0  0  0  0  0  0  0  0  0  0
  -20.2405   11.3640  -17.3017 H   0  0  0  0  0  0  0  0  0  0  0  0
  -18.1234   11.5221  -18.9318 C   0  0  0  0  0  0  0  0  0  0  0  0
  -18.3922   12.7436  -18.2135 C   0  0  0  0  0  0  0  0  0  0  0  0
  -18.4174   13.9228  -18.8577 C   0  0  0  0  0  0  0  0  0  0  0  0
  -18.1731   13.9160  -20.1952 C   0  0  0  0  0  0  0  0  0  0  0  0
  -18.3843   15.1549  -21.0140 C   0  0  0  0  0  0  0  0  0  0  0  0
  -17.8940   12.7360  -20.9333 C   0  0  0  0  0  0  0  0  0  0  0  0
  -17.8892   11.5590  -20.2430 C   0  0  0  0  0  0  0  0  0  0  0  0
  -17.3836   13.0142  -22.2207 C   0  0  0  0  0  0  0  0  0  0  0  0
  -17.1473   13.1386  -23.3625 C   0  0  0  0  0  0  0  0  0  0  0  0
  -17.1795   13.1202  -24.8008 C   0  0  0  0  0  0  0  0  0  0  0  0
  -17.8229   12.4363  -25.7358 C   0  0  0  0  0  0  0  0  0  0  0  0
  -17.4979   12.9774  -26.9766 N   0  0  0  0  0  0  0  0  0  0  0  0
  -16.6512   13.9910  -26.8096 C   0  0  0  0  0  0  0  0  0  0  0  0
  -15.9869   14.8937  -27.6917 C   0  0  0  0  0  0  0  0  0  0  0  0
  -15.1587   15.8452  -27.1747 C   0  0  0  0  0  0  0  0  0  0  0  0
  -14.9799   15.9043  -25.7986 C   0  0  0  0  0  0  0  0  0  0  0  0
  -15.6253   15.0235  -24.9981 N   0  0  0  0  0  0  0  0  0  0  0  0
  -16.4407   14.0984  -25.5035 N   0  0  0  0  0  0  0  0  0  0  0  0
  -20.0906    8.7414  -13.4815 C   0  0  0  0  0  0  0  0  0  0  0  0
  -19.6901    7.9696  -14.5430 C   0  0  0  0  0  0  0  0  0  0  0  0
  -19.4189    8.4807  -15.8418 C   0  0  0  0  0  0  0  0  0  0  0  0
  -19.5558    9.7476  -16.0751 C   0  0  0  0  0  0  0  0  0  0  0  0
  -19.9727   10.5967  -14.9657 C   0  0  0  0  0  0  0  0  0  0  0  0
  -20.2249   10.1202  -13.7297 C   0  0  0  0  0  0  0  0  0  0  0  0
  -20.7967   11.0343  -12.7270 C   0  0  0  0  0  0  0  0  0  0  0  0
  -20.1061   11.4591  -11.6947 F   0  0  0  0  0  0  0  0  0  0  0  0
  -21.1891   12.2351  -13.4253 F   0  0  0  0  0  0  0  0  0  0  0  0
  -22.0755   10.5299  -12.3376 F   0  0  0  0  0  0  0  0  0  0  0  0
  -20.2314    8.3887  -12.0908 C   0  0  0  0  0  0  0  0  0  0  0  0
  -18.5355    5.6854   -9.3745 C   0  0  0  0  0  0  0  0  0  0  0  0
  -18.0335    7.0286   -9.1018 N   0  0  0  0  0  0  0  0  0  0  0  0
  -17.2523    7.4261  -10.2601 C   0  0  0  0  0  0  0  0  0  0  0  0
  -18.1887    7.5680  -11.4127 C   0  0  0  0  0  0  0  0  0  0  0  0
  -19.2715    8.4836  -11.1167 N   0  0  0  0  0  0  0  0  0  0  0  0
  -19.3237    8.9725   -9.8602 C   0  0  0  0  0  0  0  0  0  0  0  0
  -19.1480    7.8500   -8.8079 C   0  0  0  0  0  0  0  0  0  0  0  0
 34 35  1  0  0  0
 35 36  1  0  0  0
 36 37  1  0  0  0
 37 38  1  0  0  0
 38 33  1  0  0  0
 33 23  1  0  0  0
 23 24  2  0  0  0
 24 25  1  0  0  0
 25 26  2  0  0  0
 26  1  1  0  0  0
  1  2  1  0  0  0
  2  3  2  0  0  0
  2  5  1  0  0  0
  5  6  2  0  0  0
  6  7  1  0  0  0
  7  8  2  0  0  0
  8  9  1  0  0  0
  8 10  1  0  0  0
 10 11  2  0  0  0
 10 12  1  0  0  0
 12 13  3  0  0  0
 13 14  1  0  0  0
 14 15  2  0  0  0
 15 16  1  0  0  0
 16 17  2  0  0  0
 17 18  1  0  0  0
 18 19  2  0  0  0
 19 20  1  0  0  0
 20 21  2  0  0  0
 21 22  1  0  0  0
 26 27  1  0  0  0
 27 28  2  0  0  0
 28 29  1  0  0  0
 29 30  1  0  0  0
 29 31  1  0  0  0
 29 32  1  0  0  0
 38 39  1  0  0  0
 39 40  1  0  0  0
 40 35  1  0  0  0
 28 23  1  0  0  0
 11  5  1  0  0  0
 22 14  1  0  0  0
 22 17  1  0  0  0
  1  4  1  0  0  0
M  END
> <minimizedAffinity>
-9.66731

> <CNNscore>
0.1836521477

> <CNNaffinity>
6.5505418777

> <CNN_VS>
1.2030210495

> <CNNaffinity_variance>
0.4040487409

$$$$
[H]c1nn2c(C#Cc3c([H])c(C(=O)N([H])c4c([H])c([H])c(C([H])([H])N5C([H])([H])C([H])([H])N(C([H])([H])[H])C([H])([H])C5([H])[H])c(C(F)(F)F)c4[H])c([H])c([H])c3C([H])([H])[H])c([H])nc2c([H])c1[H]


 40 44  0  0  0  0  0  0  0  0999 V2000
  -20.3806   10.1506  -15.7448 N   0  0  0  0  0  0  0  0  0  0  0  0
  -19.2444   10.1726  -16.7019 C   0  0  0  0  0  0  0  0  0  0  0  0
  -18.3509    9.3056  -16.6706 O   0  0  0  0  0  0  0  0  0  0  0  0
  -21.1886   10.6682  -15.8464 H   0  0  0  0  0  0  0  0  0  0  0  0
  -19.2485   11.3181  -17.5721 C   0  0  0  0  0  0  0  0  0  0  0  0
  -20.2551   12.2390  -17.1039 C   0  0  0  0  0  0  0  0  0  0  0  0
  -20.6363   13.2786  -17.8655 C   0  0  0  0  0  0  0  0  0  0  0  0
  -20.0344   13.4281  -19.0754 C   0  0  0  0  0  0  0  0  0  0  0  0
  -20.5469   14.4356  -20.0614 C   0  0  0  0  0  0  0  0  0  0  0  0
  -19.0327   12.5492  -19.5647 C   0  0  0  0  0  0  0  0  0  0  0  0
  -18.6832   11.5004  -18.7648 C   0  0  0  0  0  0  0  0  0  0  0  0
  -18.3568   13.0750  -20.6881 C   0  0  0  0  0  0  0  0  0  0  0  0
  -17.6480   13.3425  -21.5830 C   0  0  0  0  0  0  0  0  0  0  0  0
  -16.5961   13.3747  -22.5642 C   0  0  0  0  0  0  0  0  0  0  0  0
  -15.8019   12.4880  -23.1464 C   0  0  0  0  0  0  0  0  0  0  0  0
  -15.0528   13.1431  -24.1199 N   0  0  0  0  0  0  0  0  0  0  0  0
  -15.3796   14.4336  -24.1363 C   0  0  0  0  0  0  0  0  0  0  0  0
  -14.9513   15.5631  -24.8944 C   0  0  0  0  0  0  0  0  0  0  0  0
  -15.5087   16.7828  -24.6489 C   0  0  0  0  0  0  0  0  0  0  0  0
  -16.4771   16.8920  -23.6593 C   0  0  0  0  0  0  0  0  0  0  0  0
  -16.8497   15.7947  -22.9592 N   0  0  0  0  0  0  0  0  0  0  0  0
  -16.3100   14.6012  -23.2046 N   0  0  0  0  0  0  0  0  0  0  0  0
  -19.8171    6.8107  -13.2806 C   0  0  0  0  0  0  0  0  0  0  0  0
  -19.2057    7.9793  -12.9020 C   0  0  0  0  0  0  0  0  0  0  0  0
  -19.3452    9.2123  -13.5964 C   0  0  0  0  0  0  0  0  0  0  0  0
  -20.0810    9.2703  -14.6610 C   0  0  0  0  0  0  0  0  0  0  0  0
  -20.7509    8.0470  -15.0856 C   0  0  0  0  0  0  0  0  0  0  0  0
  -20.6289    6.8759  -14.4283 C   0  0  0  0  0  0  0  0  0  0  0  0
  -21.2132    5.6667  -15.0319 C   0  0  0  0  0  0  0  0  0  0  0  0
  -20.5514    4.5359  -15.1113 F   0  0  0  0  0  0  0  0  0  0  0  0
  -22.3980    5.3459  -14.2724 F   0  0  0  0  0  0  0  0  0  0  0  0
  -21.7970    6.0281  -16.2849 F   0  0  0  0  0  0  0  0  0  0  0  0
  -19.9007    5.5507  -12.5850 C   0  0  0  0  0  0  0  0  0  0  0  0
  -17.7458    7.2267   -9.4055 C   0  0  0  0  0  0  0  0  0  0  0  0
  -17.3360    5.8384   -9.5927 N   0  0  0  0  0  0  0  0  0  0  0  0
  -18.4932    5.0158   -9.2857 C   0  0  0  0  0  0  0  0  0  0  0  0
  -19.5271    5.2789  -10.3283 C   0  0  0  0  0  0  0  0  0  0  0  0
  -19.0123    5.0586  -11.6644 N   0  0  0  0  0  0  0  0  0  0  0  0
  -17.7007    4.7583  -11.7650 C   0  0  0  0  0  0  0  0  0  0  0  0
  -16.8334    5.7148  -10.9100 C   0  0  0  0  0  0  0  0  0  0  0  0
 34 35  1  0  0  0
 35 36  1  0  0  0
 36 37  1  0  0  0
 37 38  1  0  0  0
 38 33  1  0  0  0
 33 23  1  0  0  0
 23 24  2  0  0  0
 24 25  1  0  0  0
 25 26  2  0  0  0
 26  1  1  0  0  0
  1  2  1  0  0  0
  2  3  2  0  0  0
  2  5  1  0  0  0
  5  6  2  0  0  0
  6  7  1  0  0  0
  7  8  2  0  0  0
  8  9  1  0  0  0
  8 10  1  0  0  0
 10 11  2  0  0  0
 10 12  1  0  0  0
 12 13  3  0  0  0
 13 14  1  0  0  0
 14 15  2  0  0  0
 15 16  1  0  0  0
 16 17  2  0  0  0
 17 18  1  0  0  0
 18 19  2  0  0  0
 19 20  1  0  0  0
 20 21  2  0  0  0
 21 22  1  0  0  0
 26 27  1  0  0  0
 27 28  2  0  0  0
 28 29  1  0  0  0
 29 30  1  0  0  0
 29 31  1  0  0  0
 29 32  1  0  0  0
 38 39  1  0  0  0
 39 40  1  0  0  0
 40 35  1  0  0  0
 28 23  1  0  0  0
 11  5  1  0  0  0
 22 14  1  0  0  0
 22 17  1  0  0  0
  1  4  1  0  0  0
M  END
> <minimizedAffinity>
-8.81662

> <CNNscore>
0.1442004293

> <CNNaffinity>
6.5263733864

> <CNN_VS>
0.9411058426

> <CNNaffinity_variance>
0.2226339132

$$$$
[H]c1nn2c(C#Cc3c([H])c(C(=O)N([H])c4c([H])c([H])c(C([H])([H])N5C([H])([H])C([H])([H])N(C([H])([H])[H])C([H])([H])C5([H])[H])c(C(F)(F)F)c4[H])c([H])c([H])c3C([H])([H])[H])c([H])nc2c([H])c1[H]


 40 44  0  0  0  0  0  0  0  0999 V2000
  -20.6018   13.6413  -18.0675 N   0  0  0  0  0  0  0  0  0  0  0  0
  -19.5960   12.6207  -17.6747 C   0  0  0  0  0  0  0  0  0  0  0  0
  -19.4199   12.3063  -16.4826 O   0  0  0  0  0  0  0  0  0  0  0  0
  -20.9152   13.7783  -18.9697 H   0  0  0  0  0  0  0  0  0  0  0  0
  -18.8173   12.1271  -18.7790 C   0  0  0  0  0  0  0  0  0  0  0  0
  -18.2859   10.8359  -18.4174 C   0  0  0  0  0  0  0  0  0  0  0  0
  -17.3313   10.2568  -19.1654 C   0  0  0  0  0  0  0  0  0  0  0  0
  -16.9005   10.9267  -20.2673 C   0  0  0  0  0  0  0  0  0  0  0  0
  -15.7033   10.4448  -21.0316 C   0  0  0  0  0  0  0  0  0  0  0  0
  -17.4074   12.1930  -20.6607 C   0  0  0  0  0  0  0  0  0  0  0  0
  -18.3674   12.7506  -19.8672 C   0  0  0  0  0  0  0  0  0  0  0  0
  -17.0308   12.5383  -21.9776 C   0  0  0  0  0  0  0  0  0  0  0  0
  -16.9227   12.7423  -23.1272 C   0  0  0  0  0  0  0  0  0  0  0  0
  -17.1296   12.8547  -24.5466 C   0  0  0  0  0  0  0  0  0  0  0  0
  -17.9048   12.2735  -25.4505 C   0  0  0  0  0  0  0  0  0  0  0  0
  -17.7140   12.9167  -26.6704 N   0  0  0  0  0  0  0  0  0  0  0  0
  -16.8188   13.8909  -26.5221 C   0  0  0  0  0  0  0  0  0  0  0  0
  -16.2356   14.8536  -27.3979 C   0  0  0  0  0  0  0  0  0  0  0  0
  -15.3185   15.7346  -26.9068 C   0  0  0  0  0  0  0  0  0  0  0  0
  -14.9723   15.6649  -25.5635 C   0  0  0  0  0  0  0  0  0  0  0  0
  -15.5460   14.7309  -24.7688 N   0  0  0  0  0  0  0  0  0  0  0  0
  -16.4481   13.8747  -25.2477 N   0  0  0  0  0  0  0  0  0  0  0  0
  -21.2413   16.6188  -15.1917 C   0  0  0  0  0  0  0  0  0  0  0  0
  -22.0625   15.5203  -15.1499 C   0  0  0  0  0  0  0  0  0  0  0  0
  -21.9381   14.3997  -16.0164 C   0  0  0  0  0  0  0  0  0  0  0  0
  -21.0082   14.3850  -16.9181 C   0  0  0  0  0  0  0  0  0  0  0  0
  -20.1137   15.5344  -16.9836 C   0  0  0  0  0  0  0  0  0  0  0  0
  -20.2211   16.5973  -16.1609 C   0  0  0  0  0  0  0  0  0  0  0  0
  -19.3737   17.7737  -16.4178 C   0  0  0  0  0  0  0  0  0  0  0  0
  -18.5501   18.2521  -15.5146 F   0  0  0  0  0  0  0  0  0  0  0  0
  -18.5333   17.4504  -17.5460 F   0  0  0  0  0  0  0  0  0  0  0  0
  -20.1901   18.7991  -16.9865 F   0  0  0  0  0  0  0  0  0  0  0  0
  -21.1461   17.7297  -14.2778 C   0  0  0  0  0  0  0  0  0  0  0  0
  -22.0435   20.5190  -11.2816 C   0  0  0  0  0  0  0  0  0  0  0  0
  -22.9521   20.7062  -12.4086 N   0  0  0  0  0  0  0  0  0  0  0  0
  -22.1400   21.1372  -13.5332 C   0  0  0  0  0  0  0  0  0  0  0  0
  -21.2500   20.0017  -13.9125 C   0  0  0  0  0  0  0  0  0  0  0  0
  -22.0037   18.7951  -14.1858 N   0  0  0  0  0  0  0  0  0  0  0  0
  -23.3340   18.8509  -13.9675 C   0  0  0  0  0  0  0  0  0  0  0  0
  -23.6566   19.4931  -12.5958 C   0  0  0  0  0  0  0  0  0  0  0  0
 34 35  1  0  0  0
 35 36  1  0  0  0
 36 37  1  0  0  0
 37 38  1  0  0  0
 38 33  1  0  0  0
 33 23  1  0  0  0
 23 24  2  0  0  0
 24 25  1  0  0  0
 25 26  2  0  0  0
 26  1  1  0  0  0
  1  2  1  0  0  0
  2  3  2  0  0  0
  2  5  1  0  0  0
  5  6  2  0  0  0
  6  7  1  0  0  0
  7  8  2  0  0  0
  8  9  1  0  0  0
  8 10  1  0  0  0
 10 11  2  0  0  0
 10 12  1  0  0  0
 12 13  3  0  0  0
 13 14  1  0  0  0
 14 15  2  0  0  0
 15 16  1  0  0  0
 16 17  2  0  0  0
 17 18  1  0  0  0
 18 19  2  0  0  0
 19 20  1  0  0  0
 20 21  2  0  0  0
 21 22  1  0  0  0
 26 27  1  0  0  0
 27 28  2  0  0  0
 28 29  1  0  0  0
 29 30  1  0  0  0
 29 31  1  0  0  0
 29 32  1  0  0  0
 38 39  1  0  0  0
 39 40  1  0  0  0
 40 35  1  0  0  0
 28 23  1  0  0  0
 11  5  1  0  0  0
 22 14  1  0  0  0
 22 17  1  0  0  0
  1  4  1  0  0  0
M  END
> <minimizedAffinity>
-9.65492

> <CNNscore>
0.1396941096

> <CNNaffinity>
6.5452828407

> <CNN_VS>
0.9143374562

> <CNNaffinity_variance>
0.0341635272

$$$$
[H]c1nn2c(C#Cc3c([H])c(C(=O)N([H])c4c([H])c([H])c(C([H])([H])N5C([H])([H])C([H])([H])N(C([H])([H])[H])C([H])([H])C5([H])[H])c(C(F)(F)F)c4[H])c([H])c([H])c3C([H])([H])[H])c([H])nc2c([H])c1[H]


 40 44  0  0  0  0  0  0  0  0999 V2000
  -18.8214   14.3366  -18.5775 N   0  0  0  0  0  0  0  0  0  0  0  0
  -20.2078   14.8668  -18.5107 C   0  0  0  0  0  0  0  0  0  0  0  0
  -20.9314   14.9247  -19.5227 O   0  0  0  0  0  0  0  0  0  0  0  0
  -18.2957   14.0876  -17.8077 H   0  0  0  0  0  0  0  0  0  0  0  0
  -20.5680   15.3708  -17.2124 C   0  0  0  0  0  0  0  0  0  0  0  0
  -21.4851   14.4389  -16.6031 C   0  0  0  0  0  0  0  0  0  0  0  0
  -22.1642   14.7763  -15.4936 C   0  0  0  0  0  0  0  0  0  0  0  0
  -21.9461   16.0128  -14.9721 C   0  0  0  0  0  0  0  0  0  0  0  0
  -22.8108   16.5349  -13.8634 C   0  0  0  0  0  0  0  0  0  0  0  0
  -21.0436   16.9518  -15.5371 C   0  0  0  0  0  0  0  0  0  0  0  0
  -20.3830   16.5735  -16.6695 C   0  0  0  0  0  0  0  0  0  0  0  0
  -20.7667   18.0259  -14.6625 C   0  0  0  0  0  0  0  0  0  0  0  0
  -20.7012   19.0247  -14.0517 C   0  0  0  0  0  0  0  0  0  0  0  0
  -20.8965   20.3487  -13.5232 C   0  0  0  0  0  0  0  0  0  0  0  0
  -20.5551   21.5800  -13.8742 C   0  0  0  0  0  0  0  0  0  0  0  0
  -21.1564   22.4707  -12.9893 N   0  0  0  0  0  0  0  0  0  0  0  0
  -21.8644   21.7912  -12.0897 C   0  0  0  0  0  0  0  0  0  0  0  0
  -22.6656   22.1546  -10.9672 C   0  0  0  0  0  0  0  0  0  0  0  0
  -23.2700   21.1775  -10.2333 C   0  0  0  0  0  0  0  0  0  0  0  0
  -23.0821   19.8504  -10.5976 C   0  0  0  0  0  0  0  0  0  0  0  0
  -22.3081   19.5497  -11.6669 N   0  0  0  0  0  0  0  0  0  0  0  0
  -21.7236   20.5056  -12.3886 N   0  0  0  0  0  0  0  0  0  0  0  0
  -17.3679   13.1152  -22.3112 C   0  0  0  0  0  0  0  0  0  0  0  0
  -18.0785   14.2883  -22.2683 C   0  0  0  0  0  0  0  0  0  0  0  0
  -18.5876   14.8677  -21.0738 C   0  0  0  0  0  0  0  0  0  0  0  0
  -18.3942   14.2741  -19.9387 C   0  0  0  0  0  0  0  0  0  0  0  0
  -17.6359   13.0290  -19.9492 C   0  0  0  0  0  0  0  0  0  0  0  0
  -17.1440   12.4772  -21.0770 C   0  0  0  0  0  0  0  0  0  0  0  0
  -16.5364   11.1384  -20.9976 C   0  0  0  0  0  0  0  0  0  0  0  0
  -15.4129   10.8437  -21.6089 F   0  0  0  0  0  0  0  0  0  0  0  0
  -16.2750   10.8753  -19.6026 F   0  0  0  0  0  0  0  0  0  0  0  0
  -17.5523   10.1685  -21.2595 F   0  0  0  0  0  0  0  0  0  0  0  0
  -16.6565   12.5120  -23.4105 C   0  0  0  0  0  0  0  0  0  0  0  0
  -15.5105   16.4736  -24.1550 C   0  0  0  0  0  0  0  0  0  0  0  0
  -15.3350   15.6803  -25.3676 N   0  0  0  0  0  0  0  0  0  0  0  0
  -14.2988   14.7032  -25.0816 C   0  0  0  0  0  0  0  0  0  0  0  0
  -14.8323   13.7628  -24.0538 C   0  0  0  0  0  0  0  0  0  0  0  0
  -16.0812   13.1599  -24.4727 N   0  0  0  0  0  0  0  0  0  0  0  0
  -16.6033   13.5977  -25.6373 C   0  0  0  0  0  0  0  0  0  0  0  0
  -16.5981   15.1444  -25.7145 C   0  0  0  0  0  0  0  0  0  0  0  0
 34 35  1  0  0  0
 35 36  1  0  0  0
 36 37  1  0  0  0
 37 38  1  0  0  0
 38 33  1  0  0  0
 33 23  1  0  0  0
 23 24  2  0  0  0
 24 25  1  0  0  0
 25 26  2  0  0  0
 26  1  1  0  0  0
  1  2  1  0  0  0
  2  3  2  0  0  0
  2  5  1  0  0  0
  5  6  2  0  0  0
  6  7  1  0  0  0
  7  8  2  0  0  0
  8  9  1  0  0  0
  8 10  1  0  0  0
 10 11  2  0  0  0
 10 12  1  0  0  0
 12 13  3  0  0  0
 13 14  1  0  0  0
 14 15  2  0  0  0
 15 16  1  0  0  0
 16 17  2  0  0  0
 17 18  1  0  0  0
 18 19  2  0  0  0
 19 20  1  0  0  0
 20 21  2  0  0  0
 21 22  1  0  0  0
 26 27  1  0  0  0
 27 28  2  0  0  0
 28 29  1  0  0  0
 29 30  1  0  0  0
 29 31  1  0  0  0
 29 32  1  0  0  0
 38 39  1  0  0  0
 39 40  1  0  0  0
 40 35  1  0  0  0
 28 23  1  0  0  0
 11  5  1  0  0  0
 22 14  1  0  0  0
 22 17  1  0  0  0
  1  4  1  0  0  0
M  END
> <minimizedAffinity>
-8.50304

> <CNNscore>
0.1389837116

> <CNNaffinity>
6.0621309280

> <CNN_VS>
0.8425374627

> <CNNaffinity_variance>
0.1069462523

$$$$
[H]/C(C(=O)N1C([H])([H])C([H])([H])C([H])([H])C1([H])[H])=C(/[H])c1sc2nc([H])c(C#N)c(N([H])c3c([H])c([H])c4c(c([H])c([H])n4[H])c3C([H])([H])[H])c2c1[H]


 33 37  0  0  0  0  0  0  0  0999 V2000
  -17.2889   12.7809  -21.6826 C   0  0  0  0  0  0  0  0  0  0  0  0
  -17.0693   11.9753  -20.6013 C   0  0  0  0  0  0  0  0  0  0  0  0
  -17.5127   12.2910  -19.3236 C   0  0  0  0  0  0  0  0  0  0  0  0
  -18.1829   13.4551  -19.2059 N   0  0  0  0  0  0  0  0  0  0  0  0
  -18.4049   14.2604  -20.2741 C   0  0  0  0  0  0  0  0  0  0  0  0
  -19.2041   15.7603  -20.4286 S   0  0  0  0  0  0  0  0  0  0  0  0
  -18.9907   16.0098  -22.1033 C   0  0  0  0  0  0  0  0  0  0  0  0
  -18.2965   14.9047  -22.4914 C   0  0  0  0  0  0  0  0  0  0  0  0
  -17.9905   13.9976  -21.5536 C   0  0  0  0  0  0  0  0  0  0  0  0
  -16.7861   12.3571  -22.9571 N   0  0  0  0  0  0  0  0  0  0  0  0
  -16.8730   11.3638  -23.2424 H   0  0  0  0  0  0  0  0  0  0  0  0
  -17.9269   12.7001  -25.5288 C   0  0  0  0  0  0  0  0  0  0  0  0
  -16.7089   13.4548  -25.1019 C   0  0  0  0  0  0  0  0  0  0  0  0
  -16.1620   13.2823  -23.8510 C   0  0  0  0  0  0  0  0  0  0  0  0
  -15.0354   13.9881  -23.4710 C   0  0  0  0  0  0  0  0  0  0  0  0
  -14.4708   14.8562  -24.3452 C   0  0  0  0  0  0  0  0  0  0  0  0
  -14.9889   15.0576  -25.6087 C   0  0  0  0  0  0  0  0  0  0  0  0
  -14.6212   15.8411  -26.6299 N   0  0  0  0  0  0  0  0  0  0  0  0
  -15.4929   15.6508  -27.6607 C   0  0  0  0  0  0  0  0  0  0  0  0
  -16.4357   14.7225  -27.2796 C   0  0  0  0  0  0  0  0  0  0  0  0
  -16.1300   14.3395  -25.9870 C   0  0  0  0  0  0  0  0  0  0  0  0
  -13.7978   16.4782  -26.6030 H   0  0  0  0  0  0  0  0  0  0  0  0
  -19.4432   17.1455  -22.9469 C   0  0  0  0  0  0  0  0  0  0  0  0
  -20.5081   17.8357  -22.6085 C   0  0  0  0  0  0  0  0  0  0  0  0
  -21.1057   18.9491  -23.2697 C   0  0  0  0  0  0  0  0  0  0  0  0
  -20.6652   20.1072  -22.8738 O   0  0  0  0  0  0  0  0  0  0  0  0
  -22.0894   18.9897  -24.2750 N   0  0  0  0  0  0  0  0  0  0  0  0
  -22.5741   20.2745  -24.8341 C   0  0  0  0  0  0  0  0  0  0  0  0
  -23.2284   19.9028  -26.1366 C   0  0  0  0  0  0  0  0  0  0  0  0
  -23.8038   18.5278  -25.8834 C   0  0  0  0  0  0  0  0  0  0  0  0
  -22.7919   17.9211  -24.9361 C   0  0  0  0  0  0  0  0  0  0  0  0
  -16.3343   10.7337  -20.8235 C   0  0  0  0  0  0  0  0  0  0  0  0
  -15.7456    9.7501  -21.0211 N   0  0  0  0  0  0  0  0  0  0  0  0
 12 13  1  0  0  0
 13 14  2  0  0  0
 14 10  1  0  0  0
 10  1  1  0  0  0
  1  2  2  0  0  0
  2  3  1  0  0  0
  3  4  2  0  0  0
  4  5  1  0  0  0
  5  6  1  0  0  0
  6  7  1  0  0  0
  7 23  1  0  0  0
 23 24  2  0  0  0
 24 25  1  0  0  0
 25 26  2  0  0  0
 25 27  1  0  0  0
 27 28  1  0  0  0
 28 29  1  0  0  0
 29 30  1  0  0  0
 30 31  1  0  0  0
  7  8  2  0  0  0
  8  9  1  0  0  0
  2 32  1  0  0  0
 32 33  3  0  0  0
 14 15  1  0  0  0
 15 16  2  0  0  0
 16 17  1  0  0  0
 17 18  1  0  0  0
 18 19  1  0  0  0
 19 20  2  0  0  0
 20 21  1  0  0  0
 21 13  1  0  0  0
  9  1  1  0  0  0
 21 17  2  0  0  0
  9  5  2  0  0  0
 31 27  1  0  0  0
 10 11  1  0  0  0
 18 22  1  0  0  0
M  END
> <minimizedAffinity>
-10.61654

> <CNNscore>
0.9067247510

> <CNNaffinity>
8.0160427094

> <CNN_VS>
7.2683444023

> <CNNaffinity_variance>
0.0815247595

$$$$
[H]/C(C(=O)N1C([H])([H])C([H])([H])C([H])([H])C1([H])[H])=C(/[H])c1sc2nc([H])c(C#N)c(N([H])c3c([H])c([H])c4c(c([H])c([H])n4[H])c3C([H])([H])[H])c2c1[H]


 33 37  0  0  0  0  0  0  0  0999 V2000
  -17.2072   12.5353  -21.5391 C   0  0  0  0  0  0  0  0  0  0  0  0
  -16.1803   12.0660  -22.3083 C   0  0  0  0  0  0  0  0  0  0  0  0
  -15.4258   10.9529  -21.9610 C   0  0  0  0  0  0  0  0  0  0  0  0
  -15.7674   10.3502  -20.8042 N   0  0  0  0  0  0  0  0  0  0  0  0
  -16.7853   10.8096  -20.0350 C   0  0  0  0  0  0  0  0  0  0  0  0
  -17.4335   10.2665  -18.5528 S   0  0  0  0  0  0  0  0  0  0  0  0
  -18.6624   11.4331  -18.3506 C   0  0  0  0  0  0  0  0  0  0  0  0
  -18.5262   12.2159  -19.4563 C   0  0  0  0  0  0  0  0  0  0  0  0
  -17.5600   11.9008  -20.3299 C   0  0  0  0  0  0  0  0  0  0  0  0
  -17.9202   13.6937  -21.9934 N   0  0  0  0  0  0  0  0  0  0  0  0
  -18.6209   13.6041  -22.7528 H   0  0  0  0  0  0  0  0  0  0  0  0
  -20.0861   14.9970  -20.7117 C   0  0  0  0  0  0  0  0  0  0  0  0
  -18.7300   15.6212  -20.7935 C   0  0  0  0  0  0  0  0  0  0  0  0
  -17.6840   14.9809  -21.4174 C   0  0  0  0  0  0  0  0  0  0  0  0
  -16.4354   15.5714  -21.4844 C   0  0  0  0  0  0  0  0  0  0  0  0
  -16.2490   16.7927  -20.9274 C   0  0  0  0  0  0  0  0  0  0  0  0
  -17.2724   17.4675  -20.2927 C   0  0  0  0  0  0  0  0  0  0  0  0
  -17.3374   18.6556  -19.6795 N   0  0  0  0  0  0  0  0  0  0  0  0
  -18.6075   18.8391  -19.2191 C   0  0  0  0  0  0  0  0  0  0  0  0
  -19.3638   17.7374  -19.5508 C   0  0  0  0  0  0  0  0  0  0  0  0
  -18.5342   16.8637  -20.2286 C   0  0  0  0  0  0  0  0  0  0  0  0
  -16.5284   19.3052  -19.5893 H   0  0  0  0  0  0  0  0  0  0  0  0
  -19.6473   11.5757  -17.2479 C   0  0  0  0  0  0  0  0  0  0  0  0
  -19.9871   10.5315  -16.5274 C   0  0  0  0  0  0  0  0  0  0  0  0
  -20.9022   10.4509  -15.4365 C   0  0  0  0  0  0  0  0  0  0  0  0
  -22.1467   10.3154  -15.7897 O   0  0  0  0  0  0  0  0  0  0  0  0
  -20.6704   10.4949  -14.0493 N   0  0  0  0  0  0  0  0  0  0  0  0
  -21.7818   10.3884  -13.0738 C   0  0  0  0  0  0  0  0  0  0  0  0
  -21.1180   10.0176  -11.7758 C   0  0  0  0  0  0  0  0  0  0  0  0
  -19.7724   10.7042  -11.8381 C   0  0  0  0  0  0  0  0  0  0  0  0
  -19.4417   10.6385  -13.3132 C   0  0  0  0  0  0  0  0  0  0  0  0
  -15.8818   12.7825  -23.5447 C   0  0  0  0  0  0  0  0  0  0  0  0
  -15.6568   13.3398  -24.5406 N   0  0  0  0  0  0  0  0  0  0  0  0
 12 13  1  0  0  0
 13 14  2  0  0  0
 14 10  1  0  0  0
 10  1  1  0  0  0
  1  2  2  0  0  0
  2  3  1  0  0  0
  3  4  2  0  0  0
  4  5  1  0  0  0
  5  6  1  0  0  0
  6  7  1  0  0  0
  7 23  1  0  0  0
 23 24  2  0  0  0
 24 25  1  0  0  0
 25 26  2  0  0  0
 25 27  1  0  0  0
 27 28  1  0  0  0
 28 29  1  0  0  0
 29 30  1  0  0  0
 30 31  1  0  0  0
  7  8  2  0  0  0
  8  9  1  0  0  0
  2 32  1  0  0  0
 32 33  3  0  0  0
 14 15  1  0  0  0
 15 16  2  0  0  0
 16 17  1  0  0  0
 17 18  1  0  0  0
 18 19  1  0  0  0
 19 20  2  0  0  0
 20 21  1  0  0  0
 21 13  1  0  0  0
  9  1  1  0  0  0
 21 17  2  0  0  0
  9  5  2  0  0  0
 31 27  1  0  0  0
 10 11  1  0  0  0
 18 22  1  0  0  0
M  END
> <minimizedAffinity>
-8.96694

> <CNNscore>
0.7762556672

> <CNNaffinity>
7.5019140244

> <CNN_VS>
5.8234033585

> <CNNaffinity_variance>
0.0561445132

$$$$
[H]/C(C(=O)N1C([H])([H])C([H])([H])C([H])([H])C1([H])[H])=C(/[H])c1sc2nc([H])c(C#N)c(N([H])c3c([H])c([H])c4c(c([H])c([H])n4[H])c3C([H])([H])[H])c2c1[H]


 33 37  0  0  0  0  0  0  0  0999 V2000
  -17.2453   12.4650  -21.4227 C   0  0  0  0  0  0  0  0  0  0  0  0
  -16.2028   11.9943  -22.1696 C   0  0  0  0  0  0  0  0  0  0  0  0
  -15.4542   10.8832  -21.8035 C   0  0  0  0  0  0  0  0  0  0  0  0
  -15.8181   10.2841  -20.6517 N   0  0  0  0  0  0  0  0  0  0  0  0
  -16.8515   10.7450  -19.9045 C   0  0  0  0  0  0  0  0  0  0  0  0
  -17.5286   10.2062  -18.4336 S   0  0  0  0  0  0  0  0  0  0  0  0
  -18.7626   11.3722  -18.2600 C   0  0  0  0  0  0  0  0  0  0  0  0
  -18.6052   12.1513  -19.3655 C   0  0  0  0  0  0  0  0  0  0  0  0
  -17.6215   11.8343  -20.2186 C   0  0  0  0  0  0  0  0  0  0  0  0
  -17.9504   13.6210  -21.8951 N   0  0  0  0  0  0  0  0  0  0  0  0
  -18.6434   13.5262  -22.6609 H   0  0  0  0  0  0  0  0  0  0  0  0
  -20.1275   14.9448  -20.6540 C   0  0  0  0  0  0  0  0  0  0  0  0
  -18.7680   15.5631  -20.7245 C   0  0  0  0  0  0  0  0  0  0  0  0
  -17.7166   14.9129  -21.3287 C   0  0  0  0  0  0  0  0  0  0  0  0
  -16.4650   15.4980  -21.3854 C   0  0  0  0  0  0  0  0  0  0  0  0
  -16.2810   16.7240  -20.8380 C   0  0  0  0  0  0  0  0  0  0  0  0
  -17.3098   17.4088  -20.2231 C   0  0  0  0  0  0  0  0  0  0  0  0
  -17.3781   18.6031  -19.6223 N   0  0  0  0  0  0  0  0  0  0  0  0
  -18.6533   18.7958  -19.1800 C   0  0  0  0  0  0  0  0  0  0  0  0
  -19.4095   17.6937  -19.5107 C   0  0  0  0  0  0  0  0  0  0  0  0
  -18.5746   16.8104  -20.1692 C   0  0  0  0  0  0  0  0  0  0  0  0
  -16.5679   19.2505  -19.5280 H   0  0  0  0  0  0  0  0  0  0  0  0
  -19.7694   11.5174  -17.1777 C   0  0  0  0  0  0  0  0  0  0  0  0
  -20.1369   12.7120  -16.7742 C   0  0  0  0  0  0  0  0  0  0  0  0
  -21.0764   13.0700  -15.7627 C   0  0  0  0  0  0  0  0  0  0  0  0
  -21.0858   12.2740  -14.7340 O   0  0  0  0  0  0  0  0  0  0  0  0
  -21.9872   14.1410  -15.7048 N   0  0  0  0  0  0  0  0  0  0  0  0
  -22.8846   14.3336  -14.5403 C   0  0  0  0  0  0  0  0  0  0  0  0
  -23.3343   15.7659  -14.6361 C   0  0  0  0  0  0  0  0  0  0  0  0
  -23.3884   16.0389  -16.1222 C   0  0  0  0  0  0  0  0  0  0  0  0
  -22.2485   15.1952  -16.6496 C   0  0  0  0  0  0  0  0  0  0  0  0
  -15.8804   12.7069  -23.4024 C   0  0  0  0  0  0  0  0  0  0  0  0
  -15.6206   13.2926  -24.3731 N   0  0  0  0  0  0  0  0  0  0  0  0
 12 13  1  0  0  0
 13 14  2  0  0  0
 14 10  1  0  0  0
 10  1  1  0  0  0
  1  2  2  0  0  0
  2  3  1  0  0  0
  3  4  2  0  0  0
  4  5  1  0  0  0
  5  6  1  0  0  0
  6  7  1  0  0  0
  7 23  1  0  0  0
 23 24  2  0  0  0
 24 25  1  0  0  0
 25 26  2  0  0  0
 25 27  1  0  0  0
 27 28  1  0  0  0
 28 29  1  0  0  0
 29 30  1  0  0  0
 30 31  1  0  0  0
  7  8  2  0  0  0
  8  9  1  0  0  0
  2 32  1  0  0  0
 32 33  3  0  0  0
 14 15  1  0  0  0
 15 16  2  0  0  0
 16 17  1  0  0  0
 17 18  1  0  0  0
 18 19  1  0  0  0
 19 20  2  0  0  0
 20 21  1  0  0  0
 21 13  1  0  0  0
  9  1  1  0  0  0
 21 17  2  0  0  0
  9  5  2  0  0  0
 31 27  1  0  0  0
 10 11  1  0  0  0
 18 22  1  0  0  0
M  END
> <minimizedAffinity>
-8.52358

> <CNNscore>
0.7177664638

> <CNNaffinity>
7.5013365746

> <CNN_VS>
5.3842077255

> <CNNaffinity_variance>
0.0637662262

$$$$
[H]/C(C(=O)N1C([H])([H])C([H])([H])C([H])([H])C1([H])[H])=C(/[H])c1sc2nc([H])c(C#N)c(N([H])c3c([H])c([H])c4c(c([H])c([H])n4[H])c3C([H])([H])[H])c2c1[H]


 33 37  0  0  0  0  0  0  0  0999 V2000
  -17.2733   13.3234  -21.6764 C   0  0  0  0  0  0  0  0  0  0  0  0
  -16.9033   12.0297  -21.4399 C   0  0  0  0  0  0  0  0  0  0  0  0
  -17.6178   11.1822  -20.6033 C   0  0  0  0  0  0  0  0  0  0  0  0
  -18.7148   11.7139  -20.0272 N   0  0  0  0  0  0  0  0  0  0  0  0
  -19.0889   12.9970  -20.2567 C   0  0  0  0  0  0  0  0  0  0  0  0
  -20.3999   13.9260  -19.6817 S   0  0  0  0  0  0  0  0  0  0  0  0
  -20.0660   15.3932  -20.4867 C   0  0  0  0  0  0  0  0  0  0  0  0
  -18.9321   15.1084  -21.1845 C   0  0  0  0  0  0  0  0  0  0  0  0
  -18.4218   13.8744  -21.0710 C   0  0  0  0  0  0  0  0  0  0  0  0
  -16.4616   14.1103  -22.5587 N   0  0  0  0  0  0  0  0  0  0  0  0
  -15.7324   14.7365  -22.1691 H   0  0  0  0  0  0  0  0  0  0  0  0
  -15.1561   16.0616  -24.1463 C   0  0  0  0  0  0  0  0  0  0  0  0
  -16.0075   14.9940  -24.7550 C   0  0  0  0  0  0  0  0  0  0  0  0
  -16.6373   14.0502  -23.9765 C   0  0  0  0  0  0  0  0  0  0  0  0
  -17.4212   13.0688  -24.5546 C   0  0  0  0  0  0  0  0  0  0  0  0
  -17.5650   13.0435  -25.9020 C   0  0  0  0  0  0  0  0  0  0  0  0
  -16.9499   13.9719  -26.7176 C   0  0  0  0  0  0  0  0  0  0  0  0
  -16.9380   14.1535  -28.0437 N   0  0  0  0  0  0  0  0  0  0  0  0
  -16.1592   15.2357  -28.3281 C   0  0  0  0  0  0  0  0  0  0  0  0
  -15.6668   15.7507  -27.1499 C   0  0  0  0  0  0  0  0  0  0  0  0
  -16.1576   14.9630  -26.1253 C   0  0  0  0  0  0  0  0  0  0  0  0
  -17.4522   13.5461  -28.7155 H   0  0  0  0  0  0  0  0  0  0  0  0
  -20.8155   16.6751  -20.4482 C   0  0  0  0  0  0  0  0  0  0  0  0
  -20.6958   17.4788  -19.4164 C   0  0  0  0  0  0  0  0  0  0  0  0
  -21.3185   18.7403  -19.1823 C   0  0  0  0  0  0  0  0  0  0  0  0
  -21.0087   19.6600  -20.0484 O   0  0  0  0  0  0  0  0  0  0  0  0
  -22.2082   19.1417  -18.1687 N   0  0  0  0  0  0  0  0  0  0  0  0
  -22.7471   20.5218  -18.1119 C   0  0  0  0  0  0  0  0  0  0  0  0
  -23.9567   20.4243  -17.2229 C   0  0  0  0  0  0  0  0  0  0  0  0
  -23.6003   19.3420  -16.2292 C   0  0  0  0  0  0  0  0  0  0  0  0
  -22.7547   18.4025  -17.0610 C   0  0  0  0  0  0  0  0  0  0  0  0
  -15.7009   11.5394  -22.1071 C   0  0  0  0  0  0  0  0  0  0  0  0
  -14.7321   11.1507  -22.6201 N   0  0  0  0  0  0  0  0  0  0  0  0
 12 13  1  0  0  0
 13 14  2  0  0  0
 14 10  1  0  0  0
 10  1  1  0  0  0
  1  2  2  0  0  0
  2  3  1  0  0  0
  3  4  2  0  0  0
  4  5  1  0  0  0
  5  6  1  0  0  0
  6  7  1  0  0  0
  7 23  1  0  0  0
 23 24  2  0  0  0
 24 25  1  0  0  0
 25 26  2  0  0  0
 25 27  1  0  0  0
 27 28  1  0  0  0
 28 29  1  0  0  0
 29 30  1  0  0  0
 30 31  1  0  0  0
  7  8  2  0  0  0
  8  9  1  0  0  0
  2 32  1  0  0  0
 32 33  3  0  0  0
 14 15  1  0  0  0
 15 16  2  0  0  0
 16 17  1  0  0  0
 17 18  1  0  0  0
 18 19  1  0  0  0
 19 20  2  0  0  0
 20 21  1  0  0  0
 21 13  1  0  0  0
  9  1  1  0  0  0
 21 17  2  0  0  0
  9  5  2  0  0  0
 31 27  1  0  0  0
 10 11  1  0  0  0
 18 22  1  0  0  0
M  END
> <minimizedAffinity>
-7.48899

> <CNNscore>
0.5702275634

> <CNNaffinity>
7.5211515427

> <CNN_VS>
4.2887678146

> <CNNaffinity_variance>
0.1607443839

$$$$
[H]/C(C(=O)N1C([H])([H])C([H])([H])C([H])([H])C1([H])[H])=C(/[H])c1sc2nc([H])c(C#N)c(N([H])c3c([H])c([H])c4c(c([H])c([H])n4[H])c3C([H])([H])[H])c2c1[H]


 33 37  0  0  0  0  0  0  0  0999 V2000
  -17.5541   12.8456  -20.1380 C   0  0  0  0  0  0  0  0  0  0  0  0
  -17.1751   12.0194  -21.1579 C   0  0  0  0  0  0  0  0  0  0  0  0
  -17.1731   12.4165  -22.4887 C   0  0  0  0  0  0  0  0  0  0  0  0
  -17.5720   13.6829  -22.7238 N   0  0  0  0  0  0  0  0  0  0  0  0
  -17.9497   14.5093  -21.7172 C   0  0  0  0  0  0  0  0  0  0  0  0
  -18.4908   16.1277  -21.7087 S   0  0  0  0  0  0  0  0  0  0  0  0
  -18.7268   16.3258  -20.0302 C   0  0  0  0  0  0  0  0  0  0  0  0
  -18.3725   15.1117  -19.5259 C   0  0  0  0  0  0  0  0  0  0  0  0
  -17.9706   14.1693  -20.3898 C   0  0  0  0  0  0  0  0  0  0  0  0
  -17.5180   12.3314  -18.7997 N   0  0  0  0  0  0  0  0  0  0  0  0
  -16.6139   12.0427  -18.3815 H   0  0  0  0  0  0  0  0  0  0  0  0
  -18.1781    9.7731  -17.7740 C   0  0  0  0  0  0  0  0  0  0  0  0
  -19.0402   10.9681  -17.5210 C   0  0  0  0  0  0  0  0  0  0  0  0
  -18.7118   12.2066  -18.0226 C   0  0  0  0  0  0  0  0  0  0  0  0
  -19.5193   13.3024  -17.7794 C   0  0  0  0  0  0  0  0  0  0  0  0
  -20.6434   13.1460  -17.0388 C   0  0  0  0  0  0  0  0  0  0  0  0
  -21.0077   11.9206  -16.5179 C   0  0  0  0  0  0  0  0  0  0  0  0
  -22.0451   11.5194  -15.7731 N   0  0  0  0  0  0  0  0  0  0  0  0
  -21.9179   10.1833  -15.5332 C   0  0  0  0  0  0  0  0  0  0  0  0
  -20.7698    9.7297  -16.1429 C   0  0  0  0  0  0  0  0  0  0  0  0
  -20.1852   10.8153  -16.7681 C   0  0  0  0  0  0  0  0  0  0  0  0
  -22.8048   12.1539  -15.4495 H   0  0  0  0  0  0  0  0  0  0  0  0
  -19.2008   17.5200  -19.2848 C   0  0  0  0  0  0  0  0  0  0  0  0
  -20.0422   17.3831  -18.2857 C   0  0  0  0  0  0  0  0  0  0  0  0
  -20.6146   18.3858  -17.4484 C   0  0  0  0  0  0  0  0  0  0  0  0
  -21.5112   19.1247  -18.0332 O   0  0  0  0  0  0  0  0  0  0  0  0
  -20.3626   18.6976  -16.0996 N   0  0  0  0  0  0  0  0  0  0  0  0
  -21.0832   19.7944  -15.4097 C   0  0  0  0  0  0  0  0  0  0  0  0
  -20.8927   19.5153  -13.9438 C   0  0  0  0  0  0  0  0  0  0  0  0
  -19.5242   18.8777  -13.8626 C   0  0  0  0  0  0  0  0  0  0  0  0
  -19.4491   18.1023  -15.1597 C   0  0  0  0  0  0  0  0  0  0  0  0
  -16.7581   10.6645  -20.8088 C   0  0  0  0  0  0  0  0  0  0  0  0
  -16.4061    9.5895  -20.5381 N   0  0  0  0  0  0  0  0  0  0  0  0
 12 13  1  0  0  0
 13 14  2  0  0  0
 14 10  1  0  0  0
 10  1  1  0  0  0
  1  2  2  0  0  0
  2  3  1  0  0  0
  3  4  2  0  0  0
  4  5  1  0  0  0
  5  6  1  0  0  0
  6  7  1  0  0  0
  7 23  1  0  0  0
 23 24  2  0  0  0
 24 25  1  0  0  0
 25 26  2  0  0  0
 25 27  1  0  0  0
 27 28  1  0  0  0
 28 29  1  0  0  0
 29 30  1  0  0  0
 30 31  1  0  0  0
  7  8  2  0  0  0
  8  9  1  0  0  0
  2 32  1  0  0  0
 32 33  3  0  0  0
 14 15  1  0  0  0
 15 16  2  0  0  0
 16 17  1  0  0  0
 17 18  1  0  0  0
 18 19  1  0  0  0
 19 20  2  0  0  0
 20 21  1  0  0  0
 21 13  1  0  0  0
  9  1  1  0  0  0
 21 17  2  0  0  0
  9  5  2  0  0  0
 31 27  1  0  0  0
 10 11  1  0  0  0
 18 22  1  0  0  0
M  END
> <minimizedAffinity>
-8.42317

> <CNNscore>
0.5636863708

> <CNNaffinity>
7.2057557106

> <CNN_VS>
4.0617861748

> <CNNaffinity_variance>
0.1276116967

$$$$
[H]/C(C(=O)N1C([H])([H])C([H])([H])C([H])([H])C1([H])[H])=C(/[H])c1sc2nc([H])c(C#N)c(N([H])c3c([H])c([H])c4c(c([H])c([H])n4[H])c3C([H])([H])[H])c2c1[H]


 33 37  0  0  0  0  0  0  0  0999 V2000
  -19.4227   11.8560  -18.1054 C   0  0  0  0  0  0  0  0  0  0  0  0
  -19.5514   11.0086  -17.0416 C   0  0  0  0  0  0  0  0  0  0  0  0
  -18.7921    9.8542  -16.9011 C   0  0  0  0  0  0  0  0  0  0  0  0
  -17.9060    9.6109  -17.8879 N   0  0  0  0  0  0  0  0  0  0  0  0
  -17.7722   10.4469  -18.9472 C   0  0  0  0  0  0  0  0  0  0  0  0
  -16.7581   10.4008  -20.3190 S   0  0  0  0  0  0  0  0  0  0  0  0
  -17.2765   11.8337  -21.0875 C   0  0  0  0  0  0  0  0  0  0  0  0
  -18.2327   12.3062  -20.2411 C   0  0  0  0  0  0  0  0  0  0  0  0
  -18.4942   11.5964  -19.1349 C   0  0  0  0  0  0  0  0  0  0  0  0
  -20.2585   13.0205  -18.1497 N   0  0  0  0  0  0  0  0  0  0  0  0
  -21.2902   12.9156  -18.1644 H   0  0  0  0  0  0  0  0  0  0  0  0
  -21.2279   14.8480  -20.0870 C   0  0  0  0  0  0  0  0  0  0  0  0
  -20.1600   15.2284  -19.1122 C   0  0  0  0  0  0  0  0  0  0  0  0
  -19.6957   14.3347  -18.1746 C   0  0  0  0  0  0  0  0  0  0  0  0
  -18.7078   14.7019  -17.2795 C   0  0  0  0  0  0  0  0  0  0  0  0
  -18.1976   15.9562  -17.3332 C   0  0  0  0  0  0  0  0  0  0  0  0
  -18.6364   16.8819  -18.2584 C   0  0  0  0  0  0  0  0  0  0  0  0
  -18.2976   18.1529  -18.5066 N   0  0  0  0  0  0  0  0  0  0  0  0
  -19.0516   18.6093  -19.5468 C   0  0  0  0  0  0  0  0  0  0  0  0
  -19.8881   17.5993  -19.9660 C   0  0  0  0  0  0  0  0  0  0  0  0
  -19.6370   16.5033  -19.1618 C   0  0  0  0  0  0  0  0  0  0  0  0
  -17.5721   18.6735  -17.9708 H   0  0  0  0  0  0  0  0  0  0  0  0
  -16.8114   12.4336  -22.3642 C   0  0  0  0  0  0  0  0  0  0  0  0
  -17.5168   13.3765  -22.9458 C   0  0  0  0  0  0  0  0  0  0  0  0
  -17.2533   14.0774  -24.1596 C   0  0  0  0  0  0  0  0  0  0  0  0
  -18.3163   14.3808  -24.8450 O   0  0  0  0  0  0  0  0  0  0  0  0
  -16.0327   14.4883  -24.7265 N   0  0  0  0  0  0  0  0  0  0  0  0
  -15.9836   15.2192  -26.0156 C   0  0  0  0  0  0  0  0  0  0  0  0
  -14.6234   15.8611  -26.0404 C   0  0  0  0  0  0  0  0  0  0  0  0
  -13.7398   14.8862  -25.2955 C   0  0  0  0  0  0  0  0  0  0  0  0
  -14.6827   14.3219  -24.2553 C   0  0  0  0  0  0  0  0  0  0  0  0
  -20.5367   11.3526  -16.0207 C   0  0  0  0  0  0  0  0  0  0  0  0
  -21.3167   11.6475  -15.2098 N   0  0  0  0  0  0  0  0  0  0  0  0
 12 13  1  0  0  0
 13 14  2  0  0  0
 14 10  1  0  0  0
 10  1  1  0  0  0
  1  2  2  0  0  0
  2  3  1  0  0  0
  3  4  2  0  0  0
  4  5  1  0  0  0
  5  6  1  0  0  0
  6  7  1  0  0  0
  7 23  1  0  0  0
 23 24  2  0  0  0
 24 25  1  0  0  0
 25 26  2  0  0  0
 25 27  1  0  0  0
 27 28  1  0  0  0
 28 29  1  0  0  0
 29 30  1  0  0  0
 30 31  1  0  0  0
  7  8  2  0  0  0
  8  9  1  0  0  0
  2 32  1  0  0  0
 32 33  3  0  0  0
 14 15  1  0  0  0
 15 16  2  0  0  0
 16 17  1  0  0  0
 17 18  1  0  0  0
 18 19  1  0  0  0
 19 20  2  0  0  0
 20 21  1  0  0  0
 21 13  1  0  0  0
  9  1  1  0  0  0
 21 17  2  0  0  0
  9  5  2  0  0  0
 31 27  1  0  0  0
 10 11  1  0  0  0
 18 22  1  0  0  0
M  END
> <minimizedAffinity>
-9.04794

> <CNNscore>
0.5284366012

> <CNNaffinity>
7.5572042465

> <CNN_VS>
3.9935033321

> <CNNaffinity_variance>
0.1155920625

$$$$
[H]/C(C(=O)N1C([H])([H])C([H])([H])C([H])([H])C1([H])[H])=C(/[H])c1sc2nc([H])c(C#N)c(N([H])c3c([H])c([H])c4c(c([H])c([H])n4[H])c3C([H])([H])[H])c2c1[H]


 33 37  0  0  0  0  0  0  0  0999 V2000
  -18.7954   12.4873  -19.5240 C   0  0  0  0  0  0  0  0  0  0  0  0
  -17.9179   12.3594  -20.5633 C   0  0  0  0  0  0  0  0  0  0  0  0
  -17.0665   11.2709  -20.7014 C   0  0  0  0  0  0  0  0  0  0  0  0
  -17.1540   10.3314  -19.7382 N   0  0  0  0  0  0  0  0  0  0  0  0
  -18.0222   10.4508  -18.7034 C   0  0  0  0  0  0  0  0  0  0  0  0
  -18.3502    9.4452  -17.3643 S   0  0  0  0  0  0  0  0  0  0  0  0
  -19.5631   10.3814  -16.6129 C   0  0  0  0  0  0  0  0  0  0  0  0
  -19.6742   11.4582  -17.4387 C   0  0  0  0  0  0  0  0  0  0  0  0
  -18.8827   11.5014  -18.5192 C   0  0  0  0  0  0  0  0  0  0  0  0
  -19.6287   13.6536  -19.4798 N   0  0  0  0  0  0  0  0  0  0  0  0
  -20.4588   13.7192  -20.0980 H   0  0  0  0  0  0  0  0  0  0  0  0
  -21.6140   14.4118  -17.6046 C   0  0  0  0  0  0  0  0  0  0  0  0
  -20.2957   15.1130  -17.6809 C   0  0  0  0  0  0  0  0  0  0  0  0
  -19.3374   14.7379  -18.5943 C   0  0  0  0  0  0  0  0  0  0  0  0
  -18.1229   15.3962  -18.6521 C   0  0  0  0  0  0  0  0  0  0  0  0
  -17.8823   16.4198  -17.7971 C   0  0  0  0  0  0  0  0  0  0  0  0
  -18.8173   16.8263  -16.8665 C   0  0  0  0  0  0  0  0  0  0  0  0
  -18.8169   17.7873  -15.9346 N   0  0  0  0  0  0  0  0  0  0  0  0
  -20.0115   17.7578  -15.2782 C   0  0  0  0  0  0  0  0  0  0  0  0
  -20.7861   16.7515  -15.8103 C   0  0  0  0  0  0  0  0  0  0  0  0
  -20.0451   16.1552  -16.8135 C   0  0  0  0  0  0  0  0  0  0  0  0
  -18.0160   18.4318  -15.7685 H   0  0  0  0  0  0  0  0  0  0  0  0
  -20.3219   10.1062  -15.3660 C   0  0  0  0  0  0  0  0  0  0  0  0
  -19.6874    9.9662  -14.2246 C   0  0  0  0  0  0  0  0  0  0  0  0
  -20.2178    9.7017  -12.9274 C   0  0  0  0  0  0  0  0  0  0  0  0
  -19.9676    8.5064  -12.4795 O   0  0  0  0  0  0  0  0  0  0  0  0
  -20.9634   10.5254  -12.0640 N   0  0  0  0  0  0  0  0  0  0  0  0
  -21.4197   10.0461  -10.7372 C   0  0  0  0  0  0  0  0  0  0  0  0
  -21.7477   11.2977   -9.9698 C   0  0  0  0  0  0  0  0  0  0  0  0
  -22.2506   12.2578  -11.0240 C   0  0  0  0  0  0  0  0  0  0  0  0
  -21.4191   11.8807  -12.2306 C   0  0  0  0  0  0  0  0  0  0  0  0
  -17.8925   13.4261  -21.5597 C   0  0  0  0  0  0  0  0  0  0  0  0
  -17.8866   14.2870  -22.3418 N   0  0  0  0  0  0  0  0  0  0  0  0
 12 13  1  0  0  0
 13 14  2  0  0  0
 14 10  1  0  0  0
 10  1  1  0  0  0
  1  2  2  0  0  0
  2  3  1  0  0  0
  3  4  2  0  0  0
  4  5  1  0  0  0
  5  6  1  0  0  0
  6  7  1  0  0  0
  7 23  1  0  0  0
 23 24  2  0  0  0
 24 25  1  0  0  0
 25 26  2  0  0  0
 25 27  1  0  0  0
 27 28  1  0  0  0
 28 29  1  0  0  0
 29 30  1  0  0  0
 30 31  1  0  0  0
  7  8  2  0  0  0
  8  9  1  0  0  0
  2 32  1  0  0  0
 32 33  3  0  0  0
 14 15  1  0  0  0
 15 16  2  0  0  0
 16 17  1  0  0  0
 17 18  1  0  0  0
 18 19  1  0  0  0
 19 20  2  0  0  0
 20 21  1  0  0  0
 21 13  1  0  0  0
  9  1  1  0  0  0
 21 17  2  0  0  0
  9  5  2  0  0  0
 31 27  1  0  0  0
 10 11  1  0  0  0
 18 22  1  0  0  0
M  END
> <minimizedAffinity>
-7.07489

> <CNNscore>
0.5171641111

> <CNNaffinity>
7.0279264450

> <CNN_VS>
3.6345913410

> <CNNaffinity_variance>
0.1487413198

$$$$
[H]/C(C(=O)N1C([H])([H])C([H])([H])C([H])([H])C1([H])[H])=C(/[H])c1sc2nc([H])c(C#N)c(N([H])c3c([H])c([H])c4c(c([H])c([H])n4[H])c3C([H])([H])[H])c2c1[H]


 33 37  0  0  0  0  0  0  0  0999 V2000
  -17.0874   13.0226  -22.2803 C   0  0  0  0  0  0  0  0  0  0  0  0
  -16.0576   12.7381  -23.1316 C   0  0  0  0  0  0  0  0  0  0  0  0
  -15.1716   11.6899  -22.9194 C   0  0  0  0  0  0  0  0  0  0  0  0
  -15.3863   10.9557  -21.8090 N   0  0  0  0  0  0  0  0  0  0  0  0
  -16.4061   11.2315  -20.9588 C   0  0  0  0  0  0  0  0  0  0  0  0
  -16.9148   10.4943  -19.5062 S   0  0  0  0  0  0  0  0  0  0  0  0
  -18.2491   11.4957  -19.1469 C   0  0  0  0  0  0  0  0  0  0  0  0
  -18.2548   12.3809  -20.1814 C   0  0  0  0  0  0  0  0  0  0  0  0
  -17.3072   12.2513  -21.1201 C   0  0  0  0  0  0  0  0  0  0  0  0
  -17.9427   14.1295  -22.5966 N   0  0  0  0  0  0  0  0  0  0  0  0
  -18.7152   14.0073  -23.2776 H   0  0  0  0  0  0  0  0  0  0  0  0
  -19.2013   16.3716  -23.7887 C   0  0  0  0  0  0  0  0  0  0  0  0
  -18.3588   16.5036  -22.5607 C   0  0  0  0  0  0  0  0  0  0  0  0
  -17.7518   15.4094  -21.9883 C   0  0  0  0  0  0  0  0  0  0  0  0
  -16.9760   15.5478  -20.8521 C   0  0  0  0  0  0  0  0  0  0  0  0
  -16.8173   16.7769  -20.3036 C   0  0  0  0  0  0  0  0  0  0  0  0
  -17.4093   17.8990  -20.8473 C   0  0  0  0  0  0  0  0  0  0  0  0
  -17.4036   19.1915  -20.4989 N   0  0  0  0  0  0  0  0  0  0  0  0
  -18.1631   19.8867  -21.3925 C   0  0  0  0  0  0  0  0  0  0  0  0
  -18.6612   19.0095  -22.3295 C   0  0  0  0  0  0  0  0  0  0  0  0
  -18.1937   17.7515  -21.9979 C   0  0  0  0  0  0  0  0  0  0  0  0
  -16.8908   19.5659  -19.6735 H   0  0  0  0  0  0  0  0  0  0  0  0
  -19.1850   11.4327  -17.9952 C   0  0  0  0  0  0  0  0  0  0  0  0
  -19.8050   12.5168  -17.5887 C   0  0  0  0  0  0  0  0  0  0  0  0
  -20.7326   12.6738  -16.5168 C   0  0  0  0  0  0  0  0  0  0  0  0
  -20.9518   13.9093  -16.1742 O   0  0  0  0  0  0  0  0  0  0  0  0
  -21.4415   11.7084  -15.7782 N   0  0  0  0  0  0  0  0  0  0  0  0
  -22.3726   12.0940  -14.6907 C   0  0  0  0  0  0  0  0  0  0  0  0
  -23.2406   10.8832  -14.4824 C   0  0  0  0  0  0  0  0  0  0  0  0
  -22.3283    9.7163  -14.7858 C   0  0  0  0  0  0  0  0  0  0  0  0
  -21.4415   10.2723  -15.8785 C   0  0  0  0  0  0  0  0  0  0  0  0
  -15.9019   13.5870  -24.3091 C   0  0  0  0  0  0  0  0  0  0  0  0
  -15.7847   14.2470  -25.2597 N   0  0  0  0  0  0  0  0  0  0  0  0
 12 13  1  0  0  0
 13 14  2  0  0  0
 14 10  1  0  0  0
 10  1  1  0  0  0
  1  2  2  0  0  0
  2  3  1  0  0  0
  3  4  2  0  0  0
  4  5  1  0  0  0
  5  6  1  0  0  0
  6  7  1  0  0  0
  7 23  1  0  0  0
 23 24  2  0  0  0
 24 25  1  0  0  0
 25 26  2  0  0  0
 25 27  1  0  0  0
 27 28  1  0  0  0
 28 29  1  0  0  0
 29 30  1  0  0  0
 30 31  1  0  0  0
  7  8  2  0  0  0
  8  9  1  0  0  0
  2 32  1  0  0  0
 32 33  3  0  0  0
 14 15  1  0  0  0
 15 16  2  0  0  0
 16 17  1  0  0  0
 17 18  1  0  0  0
 18 19  1  0  0  0
 19 20  2  0  0  0
 20 21  1  0  0  0
 21 13  1  0  0  0
  9  1  1  0  0  0
 21 17  2  0  0  0
  9  5  2  0  0  0
 31 27  1  0  0  0
 10 11  1  0  0  0
 18 22  1  0  0  0
M  END
> <minimizedAffinity>
-8.23602

> <CNNscore>
0.5160581470

> <CNNaffinity>
7.4147810936

> <CNN_VS>
3.8264582157

> <CNNaffinity_variance>
0.1373922229

$$$$
[H]/C(C(=O)N1C([H])([H])C([H])([H])C([H])([H])C1([H])[H])=C(/[H])c1sc2nc([H])c(C#N)c(N([H])c3c([H])c([H])c4c(c([H])c([H])n4[H])c3C([H])([H])[H])c2c1[H]


 33 37  0  0  0  0  0  0  0  0999 V2000
  -18.3404   13.5274  -21.3312 C   0  0  0  0  0  0  0  0  0  0  0  0
  -17.5509   13.6697  -22.4370 C   0  0  0  0  0  0  0  0  0  0  0  0
  -16.5096   12.8010  -22.7367 C   0  0  0  0  0  0  0  0  0  0  0  0
  -16.3165   11.7926  -21.8626 N   0  0  0  0  0  0  0  0  0  0  0  0
  -17.0956   11.6444  -20.7627 C   0  0  0  0  0  0  0  0  0  0  0  0
  -17.0900   10.4914  -19.5046 S   0  0  0  0  0  0  0  0  0  0  0  0
  -18.3980   11.0875  -18.5848 C   0  0  0  0  0  0  0  0  0  0  0  0
  -18.8007   12.1768  -19.2955 C   0  0  0  0  0  0  0  0  0  0  0  0
  -18.1338   12.4707  -20.4202 C   0  0  0  0  0  0  0  0  0  0  0  0
  -19.3883   14.4831  -21.1186 N   0  0  0  0  0  0  0  0  0  0  0  0
  -19.8660   14.9152  -21.9315 H   0  0  0  0  0  0  0  0  0  0  0  0
  -17.8076   16.3814  -19.7293 C   0  0  0  0  0  0  0  0  0  0  0  0
  -19.0305   15.7775  -19.1168 C   0  0  0  0  0  0  0  0  0  0  0  0
  -19.7923   14.8568  -19.7989 C   0  0  0  0  0  0  0  0  0  0  0  0
  -20.9210   14.3077  -19.2188 C   0  0  0  0  0  0  0  0  0  0  0  0
  -21.2730   14.6856  -17.9659 C   0  0  0  0  0  0  0  0  0  0  0  0
  -20.5355   15.6061  -17.2487 C   0  0  0  0  0  0  0  0  0  0  0  0
  -20.6740   16.1293  -16.0244 N   0  0  0  0  0  0  0  0  0  0  0  0
  -19.6529   17.0062  -15.8075 C   0  0  0  0  0  0  0  0  0  0  0  0
  -18.8487   17.0369  -16.9247 C   0  0  0  0  0  0  0  0  0  0  0  0
  -19.3937   16.1582  -17.8423 C   0  0  0  0  0  0  0  0  0  0  0  0
  -21.4486   15.8819  -15.3737 H   0  0  0  0  0  0  0  0  0  0  0  0
  -18.9706   10.5616  -17.3191 C   0  0  0  0  0  0  0  0  0  0  0  0
  -19.1566    9.2707  -17.1652 C   0  0  0  0  0  0  0  0  0  0  0  0
  -19.6863    8.5658  -16.0442 C   0  0  0  0  0  0  0  0  0  0  0  0
  -18.9720    7.5470  -15.6653 O   0  0  0  0  0  0  0  0  0  0  0  0
  -20.8517    8.7988  -15.2908 N   0  0  0  0  0  0  0  0  0  0  0  0
  -21.2201    7.9331  -14.1448 C   0  0  0  0  0  0  0  0  0  0  0  0
  -22.2099    8.7445  -13.3545 C   0  0  0  0  0  0  0  0  0  0  0  0
  -22.9425    9.5557  -14.3991 C   0  0  0  0  0  0  0  0  0  0  0  0
  -21.8621    9.8152  -15.4261 C   0  0  0  0  0  0  0  0  0  0  0  0
  -17.8335   14.7914  -23.3276 C   0  0  0  0  0  0  0  0  0  0  0  0
  -18.0414   15.6798  -24.0491 N   0  0  0  0  0  0  0  0  0  0  0  0
 12 13  1  0  0  0
 13 14  2  0  0  0
 14 10  1  0  0  0
 10  1  1  0  0  0
  1  2  2  0  0  0
  2  3  1  0  0  0
  3  4  2  0  0  0
  4  5  1  0  0  0
  5  6  1  0  0  0
  6  7  1  0  0  0
  7 23  1  0  0  0
 23 24  2  0  0  0
 24 25  1  0  0  0
 25 26  2  0  0  0
 25 27  1  0  0  0
 27 28  1  0  0  0
 28 29  1  0  0  0
 29 30  1  0  0  0
 30 31  1  0  0  0
  7  8  2  0  0  0
  8  9  1  0  0  0
  2 32  1  0  0  0
 32 33  3  0  0  0
 14 15  1  0  0  0
 15 16  2  0  0  0
 16 17  1  0  0  0
 17 18  1  0  0  0
 18 19  1  0  0  0
 19 20  2  0  0  0
 20 21  1  0  0  0
 21 13  1  0  0  0
  9  1  1  0  0  0
 21 17  2  0  0  0
  9  5  2  0  0  0
 31 27  1  0  0  0
 10 11  1  0  0  0
 18 22  1  0  0  0
M  END
> <minimizedAffinity>
-8.06419

> <CNNscore>
0.5065666437

> <CNNaffinity>
7.2543716431

> <CNN_VS>
3.6748228073

> <CNNaffinity_variance>
0.1441380680

$$$$
[H]c1nc(N([H])c2c([H])nc(N3C([H])([H])C([H])([H])OC([H])([H])C3([H])[H])c([H])c2[H])nc(-c2sc(C([H])(C([H])([H])[H])C([H])([H])[H])nc2-c2c([H])c([H])c(F)c(N([H])S(=O)(=O)c3c(F)c([H])c([H])c([H])c3F)c2[H])c1[H]


 48 53  0  0  0  0  0  0  0  0999 V2000
  -16.7159   14.7616  -25.3881 C   0  0  0  0  0  0  0  0  0  0  0  0
  -16.9968   15.5055  -24.3355 N   0  0  0  0  0  0  0  0  0  0  0  0
  -17.1738   14.9539  -23.1735 C   0  0  0  0  0  0  0  0  0  0  0  0
  -17.0551   13.5838  -23.1024 C   0  0  0  0  0  0  0  0  0  0  0  0
  -16.6932   13.1862  -24.7316 S   0  0  0  0  0  0  0  0  0  0  0  0
  -17.4910   15.7250  -21.9407 C   0  0  0  0  0  0  0  0  0  0  0  0
  -16.4716   16.2347  -21.1819 C   0  0  0  0  0  0  0  0  0  0  0  0
  -16.7514   16.9723  -20.0174 C   0  0  0  0  0  0  0  0  0  0  0  0
  -18.0448   17.1975  -19.6149 C   0  0  0  0  0  0  0  0  0  0  0  0
  -18.2974   17.9124  -18.4868 F   0  0  0  0  0  0  0  0  0  0  0  0
  -19.0741   16.6765  -20.3896 C   0  0  0  0  0  0  0  0  0  0  0  0
  -18.7868   15.9573  -21.5275 C   0  0  0  0  0  0  0  0  0  0  0  0
  -20.3874   16.9301  -19.9866 N   0  0  0  0  0  0  0  0  0  0  0  0
  -20.8320   16.1989  -19.3452 H   0  0  0  0  0  0  0  0  0  0  0  0
  -21.3801   18.2519  -20.3813 S   0  0  0  0  0  0  0  0  0  0  0  0
  -22.4021   18.5341  -19.3046 O   0  0  0  0  0  0  0  0  0  0  0  0
  -20.5610   19.5344  -20.4713 O   0  0  0  0  0  0  0  0  0  0  0  0
  -22.1264   18.0355  -21.9279 C   0  0  0  0  0  0  0  0  0  0  0  0
  -21.3683   18.2567  -23.0422 C   0  0  0  0  0  0  0  0  0  0  0  0
  -20.0429   18.6139  -22.9266 F   0  0  0  0  0  0  0  0  0  0  0  0
  -21.9031   18.1303  -24.3038 C   0  0  0  0  0  0  0  0  0  0  0  0
  -23.2352   17.7724  -24.4748 C   0  0  0  0  0  0  0  0  0  0  0  0
  -23.9758   17.5555  -23.3264 C   0  0  0  0  0  0  0  0  0  0  0  0
  -23.4690   17.6742  -22.0553 C   0  0  0  0  0  0  0  0  0  0  0  0
  -24.2178   17.4561  -20.9448 F   0  0  0  0  0  0  0  0  0  0  0  0
  -17.2023   12.6976  -21.9378 C   0  0  0  0  0  0  0  0  0  0  0  0
  -16.3438   11.6266  -21.8014 C   0  0  0  0  0  0  0  0  0  0  0  0
  -16.4416   10.7604  -20.7172 C   0  0  0  0  0  0  0  0  0  0  0  0
  -17.3978   11.0079  -19.8172 N   0  0  0  0  0  0  0  0  0  0  0  0
  -18.2697   12.0628  -19.9195 C   0  0  0  0  0  0  0  0  0  0  0  0
  -18.1168   12.8525  -20.9862 N   0  0  0  0  0  0  0  0  0  0  0  0
  -19.2154   12.2211  -18.9043 N   0  0  0  0  0  0  0  0  0  0  0  0
  -19.7566   11.3159  -18.6460 H   0  0  0  0  0  0  0  0  0  0  0  0
  -19.5591   13.3854  -18.1808 C   0  0  0  0  0  0  0  0  0  0  0  0
  -18.5664   14.0669  -17.4560 C   0  0  0  0  0  0  0  0  0  0  0  0
  -18.8970   15.1821  -16.7386 C   0  0  0  0  0  0  0  0  0  0  0  0
  -20.1756   15.6935  -16.6800 C   0  0  0  0  0  0  0  0  0  0  0  0
  -21.1070   15.0319  -17.3758 N   0  0  0  0  0  0  0  0  0  0  0  0
  -20.8131   13.9103  -18.1061 C   0  0  0  0  0  0  0  0  0  0  0  0
  -20.4816   16.8628  -15.9149 N   0  0  0  0  0  0  0  0  0  0  0  0
  -21.8637   17.0732  -15.5406 C   0  0  0  0  0  0  0  0  0  0  0  0
  -22.0132   18.0862  -14.4239 C   0  0  0  0  0  0  0  0  0  0  0  0
  -20.8155   18.1422  -13.6757 O   0  0  0  0  0  0  0  0  0  0  0  0
  -19.8913   18.7823  -14.5260 C   0  0  0  0  0  0  0  0  0  0  0  0
  -19.4236   17.7822  -15.5423 C   0  0  0  0  0  0  0  0  0  0  0  0
  -14.9944   15.5644  -26.9128 C   0  0  0  0  0  0  0  0  0  0  0  0
  -16.4801   15.2095  -26.8148 C   0  0  0  0  0  0  0  0  0  0  0  0
  -16.7214   14.0639  -27.7695 C   0  0  0  0  0  0  0  0  0  0  0  0
 46 47  1  0  0  0
 47 48  1  0  0  0
 47  1  1  0  0  0
  1  2  2  0  0  0
  2  3  1  0  0  0
  3  4  2  0  0  0
  4  5  1  0  0  0
  4 26  1  0  0  0
 26 27  2  0  0  0
 27 28  1  0  0  0
 28 29  2  0  0  0
 29 30  1  0  0  0
 30 32  1  0  0  0
 32 34  1  0  0  0
 34 35  2  0  0  0
 35 36  1  0  0  0
 36 37  2  0  0  0
 37 38  1  0  0  0
 38 39  2  0  0  0
 37 40  1  0  0  0
 40 41  1  0  0  0
 41 42  1  0  0  0
 42 43  1  0  0  0
 43 44  1  0  0  0
 44 45  1  0  0  0
 30 31  2  0  0  0
  3  6  1  0  0  0
  6  7  2  0  0  0
  7  8  1  0  0  0
  8  9  2  0  0  0
  9 10  1  0  0  0
  9 11  1  0  0  0
 11 13  1  0  0  0
 13 15  1  0  0  0
 15 16  2  0  0  0
 15 17  2  0  0  0
 15 18  1  0  0  0
 18 19  2  0  0  0
 19 20  1  0  0  0
 19 21  1  0  0  0
 21 22  2  0  0  0
 22 23  1  0  0  0
 23 24  2  0  0  0
 24 25  1  0  0  0
 11 12  2  0  0  0
  5  1  1  0  0  0
 31 26  1  0  0  0
 12  6  1  0  0  0
 39 34  1  0  0  0
 45 40  1  0  0  0
 24 18  1  0  0  0
 32 33  1  0  0  0
 13 14  1  0  0  0
M  END
> <minimizedAffinity>
-9.51289

> <CNNscore>
0.2065981627

> <CNNaffinity>
8.1312961578

> <CNN_VS>
1.6799108982

> <CNNaffinity_variance>
0.4580048621

$$$$
[H]c1nc(N([H])c2c([H])nc(N3C([H])([H])C([H])([H])OC([H])([H])C3([H])[H])c([H])c2[H])nc(-c2sc(C([H])(C([H])([H])[H])C([H])([H])[H])nc2-c2c([H])c([H])c(F)c(N([H])S(=O)(=O)c3c(F)c([H])c([H])c([H])c3F)c2[H])c1[H]


 48 53  0  0  0  0  0  0  0  0999 V2000
  -16.7290   14.8258  -25.2763 C   0  0  0  0  0  0  0  0  0  0  0  0
  -17.0262   15.5832  -24.2380 N   0  0  0  0  0  0  0  0  0  0  0  0
  -17.2421   15.0448  -23.0764 C   0  0  0  0  0  0  0  0  0  0  0  0
  -17.1463   13.6738  -22.9905 C   0  0  0  0  0  0  0  0  0  0  0  0
  -16.7478   13.2562  -24.6060 S   0  0  0  0  0  0  0  0  0  0  0  0
  -17.5798   15.8316  -21.8591 C   0  0  0  0  0  0  0  0  0  0  0  0
  -16.5812   16.2166  -21.0051 C   0  0  0  0  0  0  0  0  0  0  0  0
  -16.8795   16.9668  -19.8533 C   0  0  0  0  0  0  0  0  0  0  0  0
  -18.1709   17.3287  -19.5582 C   0  0  0  0  0  0  0  0  0  0  0  0
  -18.4415   18.0538  -18.4409 F   0  0  0  0  0  0  0  0  0  0  0  0
  -19.1792   16.9338  -20.4291 C   0  0  0  0  0  0  0  0  0  0  0  0
  -18.8737   16.2007  -21.5534 C   0  0  0  0  0  0  0  0  0  0  0  0
  -20.4871   17.3261  -20.1346 N   0  0  0  0  0  0  0  0  0  0  0  0
  -21.0243   16.6994  -19.4547 H   0  0  0  0  0  0  0  0  0  0  0  0
  -21.3452   18.6733  -20.7155 S   0  0  0  0  0  0  0  0  0  0  0  0
  -22.2620   19.2567  -19.6655 O   0  0  0  0  0  0  0  0  0  0  0  0
  -20.3927   19.8121  -21.0613 O   0  0  0  0  0  0  0  0  0  0  0  0
  -22.2029   18.2908  -22.1695 C   0  0  0  0  0  0  0  0  0  0  0  0
  -23.3464   17.5518  -22.0638 C   0  0  0  0  0  0  0  0  0  0  0  0
  -23.8090   17.1518  -20.8293 F   0  0  0  0  0  0  0  0  0  0  0  0
  -24.0645   17.1875  -23.1797 C   0  0  0  0  0  0  0  0  0  0  0  0
  -23.6403   17.5655  -24.4483 C   0  0  0  0  0  0  0  0  0  0  0  0
  -22.4786   18.3134  -24.5211 C   0  0  0  0  0  0  0  0  0  0  0  0
  -21.7418   18.6912  -23.4251 C   0  0  0  0  0  0  0  0  0  0  0  0
  -20.6048   19.4250  -23.5244 F   0  0  0  0  0  0  0  0  0  0  0  0
  -17.3377   12.8003  -21.8226 C   0  0  0  0  0  0  0  0  0  0  0  0
  -16.4849   11.7314  -21.6418 C   0  0  0  0  0  0  0  0  0  0  0  0
  -16.6239   10.8771  -20.5527 C   0  0  0  0  0  0  0  0  0  0  0  0
  -17.6137   11.1339  -19.6925 N   0  0  0  0  0  0  0  0  0  0  0  0
  -18.4812   12.1873  -19.8395 C   0  0  0  0  0  0  0  0  0  0  0  0
  -18.2878   12.9653  -20.9083 N   0  0  0  0  0  0  0  0  0  0  0  0
  -19.4648   12.3562  -18.8630 N   0  0  0  0  0  0  0  0  0  0  0  0
  -20.2879   13.0003  -19.1575 H   0  0  0  0  0  0  0  0  0  0  0  0
  -19.5300   11.8112  -17.5607 C   0  0  0  0  0  0  0  0  0  0  0  0
  -19.3993   10.4229  -17.3852 C   0  0  0  0  0  0  0  0  0  0  0  0
  -19.4812    9.8882  -16.1302 C   0  0  0  0  0  0  0  0  0  0  0  0
  -19.6891   10.6445  -14.9968 C   0  0  0  0  0  0  0  0  0  0  0  0
  -19.8112   11.9635  -15.1831 N   0  0  0  0  0  0  0  0  0  0  0  0
  -19.7350   12.5353  -16.4262 C   0  0  0  0  0  0  0  0  0  0  0  0
  -19.7714   10.0461  -13.7002 N   0  0  0  0  0  0  0  0  0  0  0  0
  -19.1724    8.7398  -13.5283 C   0  0  0  0  0  0  0  0  0  0  0  0
  -18.9615    8.3872  -12.0699 C   0  0  0  0  0  0  0  0  0  0  0  0
  -18.8697    9.5736  -11.3072 O   0  0  0  0  0  0  0  0  0  0  0  0
  -20.1800   10.0930  -11.2933 C   0  0  0  0  0  0  0  0  0  0  0  0
  -20.4350   10.7488  -12.6187 C   0  0  0  0  0  0  0  0  0  0  0  0
  -14.9431   15.5199  -26.7802 C   0  0  0  0  0  0  0  0  0  0  0  0
  -16.4489   15.2573  -26.7001 C   0  0  0  0  0  0  0  0  0  0  0  0
  -16.7489   14.1281  -27.6576 C   0  0  0  0  0  0  0  0  0  0  0  0
 46 47  1  0  0  0
 47 48  1  0  0  0
 47  1  1  0  0  0
  1  2  2  0  0  0
  2  3  1  0  0  0
  3  4  2  0  0  0
  4  5  1  0  0  0
  4 26  1  0  0  0
 26 27  2  0  0  0
 27 28  1  0  0  0
 28 29  2  0  0  0
 29 30  1  0  0  0
 30 32  1  0  0  0
 32 34  1  0  0  0
 34 35  2  0  0  0
 35 36  1  0  0  0
 36 37  2  0  0  0
 37 38  1  0  0  0
 38 39  2  0  0  0
 37 40  1  0  0  0
 40 41  1  0  0  0
 41 42  1  0  0  0
 42 43  1  0  0  0
 43 44  1  0  0  0
 44 45  1  0  0  0
 30 31  2  0  0  0
  3  6  1  0  0  0
  6  7  2  0  0  0
  7  8  1  0  0  0
  8  9  2  0  0  0
  9 10  1  0  0  0
  9 11  1  0  0  0
 11 13  1  0  0  0
 13 15  1  0  0  0
 15 16  2  0  0  0
 15 17  2  0  0  0
 15 18  1  0  0  0
 18 19  2  0  0  0
 19 20  1  0  0  0
 19 21  1  0  0  0
 21 22  2  0  0  0
 22 23  1  0  0  0
 23 24  2  0  0  0
 24 25  1  0  0  0
 11 12  2  0  0  0
  5  1  1  0  0  0
 31 26  1  0  0  0
 12  6  1  0  0  0
 39 34  1  0  0  0
 45 40  1  0  0  0
 24 18  1  0  0  0
 32 33  1  0  0  0
 13 14  1  0  0  0
M  END
> <minimizedAffinity>
-9.85870

> <CNNscore>
0.1427409202

> <CNNaffinity>
8.2410640717

> <CNN_VS>
1.1763371229

> <CNNaffinity_variance>
0.1209877506

$$$$
[H]c1nc(N([H])c2c([H])nc(N3C([H])([H])C([H])([H])OC([H])([H])C3([H])[H])c([H])c2[H])nc(-c2sc(C([H])(C([H])([H])[H])C([H])([H])[H])nc2-c2c([H])c([H])c(F)c(N([H])S(=O)(=O)c3c(F)c([H])c([H])c([H])c3F)c2[H])c1[H]


 48 53  0  0  0  0  0  0  0  0999 V2000
  -20.6292   10.5003  -15.8222 C   0  0  0  0  0  0  0  0  0  0  0  0
  -19.8634   10.4803  -16.8961 N   0  0  0  0  0  0  0  0  0  0  0  0
  -19.4986   11.5916  -17.4599 C   0  0  0  0  0  0  0  0  0  0  0  0
  -19.9443   12.7628  -16.8891 C   0  0  0  0  0  0  0  0  0  0  0  0
  -20.8655   12.1715  -15.5682 S   0  0  0  0  0  0  0  0  0  0  0  0
  -18.6353   11.6508  -18.6706 C   0  0  0  0  0  0  0  0  0  0  0  0
  -17.5854   10.7807  -18.7948 C   0  0  0  0  0  0  0  0  0  0  0  0
  -16.7626   10.8163  -19.9351 C   0  0  0  0  0  0  0  0  0  0  0  0
  -16.9896   11.7189  -20.9448 C   0  0  0  0  0  0  0  0  0  0  0  0
  -16.1846   11.7397  -22.0398 F   0  0  0  0  0  0  0  0  0  0  0  0
  -18.0565   12.5992  -20.8115 C   0  0  0  0  0  0  0  0  0  0  0  0
  -18.8548   12.5533  -19.6911 C   0  0  0  0  0  0  0  0  0  0  0  0
  -18.2954   13.4983  -21.8536 N   0  0  0  0  0  0  0  0  0  0  0  0
  -18.9203   13.1444  -22.6461 H   0  0  0  0  0  0  0  0  0  0  0  0
  -17.7225   15.0883  -22.0332 S   0  0  0  0  0  0  0  0  0  0  0  0
  -18.8349   16.1059  -21.9319 O   0  0  0  0  0  0  0  0  0  0  0  0
  -16.7726   15.4514  -20.8976 O   0  0  0  0  0  0  0  0  0  0  0  0
  -16.8248   15.2689  -23.5020 C   0  0  0  0  0  0  0  0  0  0  0  0
  -16.9195   14.2782  -24.4372 C   0  0  0  0  0  0  0  0  0  0  0  0
  -17.7298   13.1857  -24.2191 F   0  0  0  0  0  0  0  0  0  0  0  0
  -16.2126   14.3420  -25.6161 C   0  0  0  0  0  0  0  0  0  0  0  0
  -15.3807   15.4227  -25.8846 C   0  0  0  0  0  0  0  0  0  0  0  0
  -15.3070   16.4092  -24.9172 C   0  0  0  0  0  0  0  0  0  0  0  0
  -16.0006   16.3721  -23.7321 C   0  0  0  0  0  0  0  0  0  0  0  0
  -15.9099   17.3534  -22.7993 F   0  0  0  0  0  0  0  0  0  0  0  0
  -19.6969   14.1519  -17.3048 C   0  0  0  0  0  0  0  0  0  0  0  0
  -18.4087   14.6429  -17.2589 C   0  0  0  0  0  0  0  0  0  0  0  0
  -18.1232   15.9492  -17.6425 C   0  0  0  0  0  0  0  0  0  0  0  0
  -19.1444   16.7056  -18.0557 N   0  0  0  0  0  0  0  0  0  0  0  0
  -20.4384   16.2519  -18.1147 C   0  0  0  0  0  0  0  0  0  0  0  0
  -20.6378   14.9878  -17.7310 N   0  0  0  0  0  0  0  0  0  0  0  0
  -21.4136   17.1371  -18.5786 N   0  0  0  0  0  0  0  0  0  0  0  0
  -22.0284   17.5800  -17.8009 H   0  0  0  0  0  0  0  0  0  0  0  0
  -21.7048   17.5258  -19.9057 C   0  0  0  0  0  0  0  0  0  0  0  0
  -22.8347   16.9931  -20.5498 C   0  0  0  0  0  0  0  0  0  0  0  0
  -23.1101   17.3503  -21.8398 C   0  0  0  0  0  0  0  0  0  0  0  0
  -22.3294   18.2227  -22.5673 C   0  0  0  0  0  0  0  0  0  0  0  0
  -21.2584   18.7194  -21.9383 N   0  0  0  0  0  0  0  0  0  0  0  0
  -20.9503   18.3842  -20.6458 C   0  0  0  0  0  0  0  0  0  0  0  0
  -22.6505   18.5696  -23.9174 N   0  0  0  0  0  0  0  0  0  0  0  0
  -22.9318   17.4873  -24.8362 C   0  0  0  0  0  0  0  0  0  0  0  0
  -23.6365   17.9616  -26.0908 C   0  0  0  0  0  0  0  0  0  0  0  0
  -24.3200   19.1686  -25.8192 O   0  0  0  0  0  0  0  0  0  0  0  0
  -23.3017   20.1327  -25.6766 C   0  0  0  0  0  0  0  0  0  0  0  0
  -22.6866   19.9630  -24.3184 C   0  0  0  0  0  0  0  0  0  0  0  0
  -22.5729    9.0573  -15.5527 C   0  0  0  0  0  0  0  0  0  0  0  0
  -21.1598    9.3252  -15.0289 C   0  0  0  0  0  0  0  0  0  0  0  0
  -20.3430    8.0876  -15.3174 C   0  0  0  0  0  0  0  0  0  0  0  0
 46 47  1  0  0  0
 47 48  1  0  0  0
 47  1  1  0  0  0
  1  2  2  0  0  0
  2  3  1  0  0  0
  3  4  2  0  0  0
  4  5  1  0  0  0
  4 26  1  0  0  0
 26 27  2  0  0  0
 27 28  1  0  0  0
 28 29  2  0  0  0
 29 30  1  0  0  0
 30 32  1  0  0  0
 32 34  1  0  0  0
 34 35  2  0  0  0
 35 36  1  0  0  0
 36 37  2  0  0  0
 37 38  1  0  0  0
 38 39  2  0  0  0
 37 40  1  0  0  0
 40 41  1  0  0  0
 41 42  1  0  0  0
 42 43  1  0  0  0
 43 44  1  0  0  0
 44 45  1  0  0  0
 30 31  2  0  0  0
  3  6  1  0  0  0
  6  7  2  0  0  0
  7  8  1  0  0  0
  8  9  2  0  0  0
  9 10  1  0  0  0
  9 11  1  0  0  0
 11 13  1  0  0  0
 13 15  1  0  0  0
 15 16  2  0  0  0
 15 17  2  0  0  0
 15 18  1  0  0  0
 18 19  2  0  0  0
 19 20  1  0  0  0
 19 21  1  0  0  0
 21 22  2  0  0  0
 22 23  1  0  0  0
 23 24  2  0  0  0
 24 25  1  0  0  0
 11 12  2  0  0  0
  5  1  1  0  0  0
 31 26  1  0  0  0
 12  6  1  0  0  0
 39 34  1  0  0  0
 45 40  1  0  0  0
 24 18  1  0  0  0
 32 33  1  0  0  0
 13 14  1  0  0  0
M  END
> <minimizedAffinity>
-10.58175

> <CNNscore>
0.1012242734

> <CNNaffinity>
7.3343949318

> <CNN_VS>
0.7424188256

> <CNNaffinity_variance>
1.6020253897

$$$$
[H]c1nc(N([H])c2c([H])nc(N3C([H])([H])C([H])([H])OC([H])([H])C3([H])[H])c([H])c2[H])nc(-c2sc(C([H])(C([H])([H])[H])C([H])([H])[H])nc2-c2c([H])c([H])c(F)c(N([H])S(=O)(=O)c3c(F)c([H])c([H])c([H])c3F)c2[H])c1[H]


 48 53  0  0  0  0  0  0  0  0999 V2000
  -17.1515   14.3225  -24.4661 C   0  0  0  0  0  0  0  0  0  0  0  0
  -17.7395   15.4932  -24.3114 N   0  0  0  0  0  0  0  0  0  0  0  0
  -18.1445   15.8714  -23.1371 C   0  0  0  0  0  0  0  0  0  0  0  0
  -17.9316   15.0047  -22.0886 C   0  0  0  0  0  0  0  0  0  0  0  0
  -17.1554   13.6947  -22.8789 S   0  0  0  0  0  0  0  0  0  0  0  0
  -18.8132   17.1764  -22.8826 C   0  0  0  0  0  0  0  0  0  0  0  0
  -18.2369   18.3312  -23.3396 C   0  0  0  0  0  0  0  0  0  0  0  0
  -18.8573   19.5735  -23.1152 C   0  0  0  0  0  0  0  0  0  0  0  0
  -20.0479   19.6585  -22.4362 C   0  0  0  0  0  0  0  0  0  0  0  0
  -20.6338   20.8672  -22.2280 F   0  0  0  0  0  0  0  0  0  0  0  0
  -20.6264   18.4824  -21.9747 C   0  0  0  0  0  0  0  0  0  0  0  0
  -20.0095   17.2730  -22.2018 C   0  0  0  0  0  0  0  0  0  0  0  0
  -21.8493   18.5749  -21.3057 N   0  0  0  0  0  0  0  0  0  0  0  0
  -21.8100   18.4915  -20.2403 H   0  0  0  0  0  0  0  0  0  0  0  0
  -23.4007   18.8030  -21.9611 S   0  0  0  0  0  0  0  0  0  0  0  0
  -24.3954   17.7999  -21.4246 O   0  0  0  0  0  0  0  0  0  0  0  0
  -23.9677   20.1564  -21.5481 O   0  0  0  0  0  0  0  0  0  0  0  0
  -23.3575   18.7952  -23.6915 C   0  0  0  0  0  0  0  0  0  0  0  0
  -23.0996   19.9737  -24.3316 C   0  0  0  0  0  0  0  0  0  0  0  0
  -22.8553   21.1221  -23.6110 F   0  0  0  0  0  0  0  0  0  0  0  0
  -23.0770   20.0475  -25.7055 C   0  0  0  0  0  0  0  0  0  0  0  0
  -23.3174   18.9178  -26.4787 C   0  0  0  0  0  0  0  0  0  0  0  0
  -23.5752   17.7400  -25.7999 C   0  0  0  0  0  0  0  0  0  0  0  0
  -23.6043   17.6367  -24.4305 C   0  0  0  0  0  0  0  0  0  0  0  0
  -23.8604   16.4685  -23.7894 F   0  0  0  0  0  0  0  0  0  0  0  0
  -18.2803   15.1612  -20.6682 C   0  0  0  0  0  0  0  0  0  0  0  0
  -17.6326   16.1255  -19.9244 C   0  0  0  0  0  0  0  0  0  0  0  0
  -17.9276   16.3134  -18.5779 C   0  0  0  0  0  0  0  0  0  0  0  0
  -18.8606   15.5242  -18.0372 N   0  0  0  0  0  0  0  0  0  0  0  0
  -19.5256   14.5547  -18.7454 C   0  0  0  0  0  0  0  0  0  0  0  0
  -19.1907   14.4310  -20.0329 N   0  0  0  0  0  0  0  0  0  0  0  0
  -20.4898   13.8056  -18.0679 N   0  0  0  0  0  0  0  0  0  0  0  0
  -21.5066   14.1691  -18.1820 H   0  0  0  0  0  0  0  0  0  0  0  0
  -20.3213   12.6561  -17.2632 C   0  0  0  0  0  0  0  0  0  0  0  0
  -19.5750   11.5715  -17.7549 C   0  0  0  0  0  0  0  0  0  0  0  0
  -19.4253   10.4497  -16.9890 C   0  0  0  0  0  0  0  0  0  0  0  0
  -19.9744   10.3118  -15.7323 C   0  0  0  0  0  0  0  0  0  0  0  0
  -20.6814   11.3538  -15.2808 N   0  0  0  0  0  0  0  0  0  0  0  0
  -20.8532   12.4947  -16.0203 C   0  0  0  0  0  0  0  0  0  0  0  0
  -19.7967    9.1192  -14.9626 N   0  0  0  0  0  0  0  0  0  0  0  0
  -19.2128    9.2553  -13.6454 C   0  0  0  0  0  0  0  0  0  0  0  0
  -19.4386    8.0303  -12.7828 C   0  0  0  0  0  0  0  0  0  0  0  0
  -20.5830    7.3376  -13.2392 O   0  0  0  0  0  0  0  0  0  0  0  0
  -20.1885    6.7614  -14.4636 C   0  0  0  0  0  0  0  0  0  0  0  0
  -20.1988    7.8374  -15.5094 C   0  0  0  0  0  0  0  0  0  0  0  0
  -17.6008   12.5966  -26.1251 C   0  0  0  0  0  0  0  0  0  0  0  0
  -16.6172   13.7046  -25.7406 C   0  0  0  0  0  0  0  0  0  0  0  0
  -16.6372   14.7173  -26.8614 C   0  0  0  0  0  0  0  0  0  0  0  0
 46 47  1  0  0  0
 47 48  1  0  0  0
 47  1  1  0  0  0
  1  2  2  0  0  0
  2  3  1  0  0  0
  3  4  2  0  0  0
  4  5  1  0  0  0
  4 26  1  0  0  0
 26 27  2  0  0  0
 27 28  1  0  0  0
 28 29  2  0  0  0
 29 30  1  0  0  0
 30 32  1  0  0  0
 32 34  1  0  0  0
 34 35  2  0  0  0
 35 36  1  0  0  0
 36 37  2  0  0  0
 37 38  1  0  0  0
 38 39  2  0  0  0
 37 40  1  0  0  0
 40 41  1  0  0  0
 41 42  1  0  0  0
 42 43  1  0  0  0
 43 44  1  0  0  0
 44 45  1  0  0  0
 30 31  2  0  0  0
  3  6  1  0  0  0
  6  7  2  0  0  0
  7  8  1  0  0  0
  8  9  2  0  0  0
  9 10  1  0  0  0
  9 11  1  0  0  0
 11 13  1  0  0  0
 13 15  1  0  0  0
 15 16  2  0  0  0
 15 17  2  0  0  0
 15 18  1  0  0  0
 18 19  2  0  0  0
 19 20  1  0  0  0
 19 21  1  0  0  0
 21 22  2  0  0  0
 22 23  1  0  0  0
 23 24  2  0  0  0
 24 25  1  0  0  0
 11 12  2  0  0  0
  5  1  1  0  0  0
 31 26  1  0  0  0
 12  6  1  0  0  0
 39 34  1  0  0  0
 45 40  1  0  0  0
 24 18  1  0  0  0
 32 33  1  0  0  0
 13 14  1  0  0  0
M  END
> <minimizedAffinity>
-9.90085

> <CNNscore>
0.0817381740

> <CNNaffinity>
7.5088300705

> <CNN_VS>
0.6137580872

> <CNNaffinity_variance>
0.6987174153

$$$$
[H]c1nc(N([H])c2c([H])nc(N3C([H])([H])C([H])([H])OC([H])([H])C3([H])[H])c([H])c2[H])nc(-c2sc(C([H])(C([H])([H])[H])C([H])([H])[H])nc2-c2c([H])c([H])c(F)c(N([H])S(=O)(=O)c3c(F)c([H])c([H])c([H])c3F)c2[H])c1[H]


 48 53  0  0  0  0  0  0  0  0999 V2000
  -18.0685   11.8967  -19.2701 C   0  0  0  0  0  0  0  0  0  0  0  0
  -17.9134   13.1822  -19.5218 N   0  0  0  0  0  0  0  0  0  0  0  0
  -18.7272   14.0524  -19.0056 C   0  0  0  0  0  0  0  0  0  0  0  0
  -19.7358   13.5711  -18.2012 C   0  0  0  0  0  0  0  0  0  0  0  0
  -19.4350   11.8828  -18.2475 S   0  0  0  0  0  0  0  0  0  0  0  0
  -18.6160   15.5178  -19.2406 C   0  0  0  0  0  0  0  0  0  0  0  0
  -18.8450   16.3868  -18.2077 C   0  0  0  0  0  0  0  0  0  0  0  0
  -18.7377   17.7749  -18.4083 C   0  0  0  0  0  0  0  0  0  0  0  0
  -18.4038   18.2895  -19.6369 C   0  0  0  0  0  0  0  0  0  0  0  0
  -18.3045   19.6335  -19.8134 F   0  0  0  0  0  0  0  0  0  0  0  0
  -18.1735   17.4014  -20.6806 C   0  0  0  0  0  0  0  0  0  0  0  0
  -18.2808   16.0453  -20.4708 C   0  0  0  0  0  0  0  0  0  0  0  0
  -17.8110   17.9317  -21.9211 N   0  0  0  0  0  0  0  0  0  0  0  0
  -17.3017   18.8718  -21.9001 H   0  0  0  0  0  0  0  0  0  0  0  0
  -18.0725   17.2802  -23.4690 S   0  0  0  0  0  0  0  0  0  0  0  0
  -19.5433   17.1099  -23.7708 O   0  0  0  0  0  0  0  0  0  0  0  0
  -17.5726   18.2341  -24.5478 O   0  0  0  0  0  0  0  0  0  0  0  0
  -17.2025   15.7989  -23.6807 C   0  0  0  0  0  0  0  0  0  0  0  0
  -15.8944   15.7622  -23.2898 C   0  0  0  0  0  0  0  0  0  0  0  0
  -15.3036   16.8684  -22.7197 F   0  0  0  0  0  0  0  0  0  0  0  0
  -15.1341   14.6270  -23.4533 C   0  0  0  0  0  0  0  0  0  0  0  0
  -15.6826   13.4842  -24.0236 C   0  0  0  0  0  0  0  0  0  0  0  0
  -17.0097   13.5541  -24.4088 C   0  0  0  0  0  0  0  0  0  0  0  0
  -17.7923   14.6728  -24.2579 C   0  0  0  0  0  0  0  0  0  0  0  0
  -19.0922   14.7149  -24.6450 F   0  0  0  0  0  0  0  0  0  0  0  0
  -20.7920   14.3101  -17.4927 C   0  0  0  0  0  0  0  0  0  0  0  0
  -21.0718   13.9824  -16.1824 C   0  0  0  0  0  0  0  0  0  0  0  0
  -22.0604   14.6526  -15.4691 C   0  0  0  0  0  0  0  0  0  0  0  0
  -22.7250   15.6230  -16.1034 N   0  0  0  0  0  0  0  0  0  0  0  0
  -22.4745   15.9766  -17.4056 C   0  0  0  0  0  0  0  0  0  0  0  0
  -21.5119   15.2904  -18.0280 N   0  0  0  0  0  0  0  0  0  0  0  0
  -23.2289   17.0182  -17.9495 N   0  0  0  0  0  0  0  0  0  0  0  0
  -23.8447   17.5523  -17.2322 H   0  0  0  0  0  0  0  0  0  0  0  0
  -23.2991   17.4619  -19.2894 C   0  0  0  0  0  0  0  0  0  0  0  0
  -22.2336   17.1892  -20.1644 C   0  0  0  0  0  0  0  0  0  0  0  0
  -22.2873   17.6329  -21.4559 C   0  0  0  0  0  0  0  0  0  0  0  0
  -23.3481   18.3492  -21.9672 C   0  0  0  0  0  0  0  0  0  0  0  0
  -24.3527   18.5993  -21.1201 N   0  0  0  0  0  0  0  0  0  0  0  0
  -24.3339   18.1709  -19.8185 C   0  0  0  0  0  0  0  0  0  0  0  0
  -23.3652   18.7982  -23.3252 N   0  0  0  0  0  0  0  0  0  0  0  0
  -23.1678   17.8053  -24.3595 C   0  0  0  0  0  0  0  0  0  0  0  0
  -23.5977   18.2995  -25.7257 C   0  0  0  0  0  0  0  0  0  0  0  0
  -24.5592   19.3243  -25.5746 O   0  0  0  0  0  0  0  0  0  0  0  0
  -23.8328   20.4275  -25.0827 C   0  0  0  0  0  0  0  0  0  0  0  0
  -23.5768   20.2023  -23.6213 C   0  0  0  0  0  0  0  0  0  0  0  0
  -16.7143   11.1511  -21.1525 C   0  0  0  0  0  0  0  0  0  0  0  0
  -17.2360   10.7371  -19.7743 C   0  0  0  0  0  0  0  0  0  0  0  0
  -16.0279   10.5369  -18.8898 C   0  0  0  0  0  0  0  0  0  0  0  0
 46 47  1  0  0  0
 47 48  1  0  0  0
 47  1  1  0  0  0
  1  2  2  0  0  0
  2  3  1  0  0  0
  3  4  2  0  0  0
  4  5  1  0  0  0
  4 26  1  0  0  0
 26 27  2  0  0  0
 27 28  1  0  0  0
 28 29  2  0  0  0
 29 30  1  0  0  0
 30 32  1  0  0  0
 32 34  1  0  0  0
 34 35  2  0  0  0
 35 36  1  0  0  0
 36 37  2  0  0  0
 37 38  1  0  0  0
 38 39  2  0  0  0
 37 40  1  0  0  0
 40 41  1  0  0  0
 41 42  1  0  0  0
 42 43  1  0  0  0
 43 44  1  0  0  0
 44 45  1  0  0  0
 30 31  2  0  0  0
  3  6  1  0  0  0
  6  7  2  0  0  0
  7  8  1  0  0  0
  8  9  2  0  0  0
  9 10  1  0  0  0
  9 11  1  0  0  0
 11 13  1  0  0  0
 13 15  1  0  0  0
 15 16  2  0  0  0
 15 17  2  0  0  0
 15 18  1  0  0  0
 18 19  2  0  0  0
 19 20  1  0  0  0
 19 21  1  0  0  0
 21 22  2  0  0  0
 22 23  1  0  0  0
 23 24  2  0  0  0
 24 25  1  0  0  0
 11 12  2  0  0  0
  5  1  1  0  0  0
 31 26  1  0  0  0
 12  6  1  0  0  0
 39 34  1  0  0  0
 45 40  1  0  0  0
 24 18  1  0  0  0
 32 33  1  0  0  0
 13 14  1  0  0  0
M  END
> <minimizedAffinity>
-9.77301

> <CNNscore>
0.0804896951

> <CNNaffinity>
7.3447980881

> <CNN_VS>
0.5911805630

> <CNNaffinity_variance>
1.7146489620

$$$$
[H]c1nc(N([H])c2c([H])nc(N3C([H])([H])C([H])([H])OC([H])([H])C3([H])[H])c([H])c2[H])nc(-c2sc(C([H])(C([H])([H])[H])C([H])([H])[H])nc2-c2c([H])c([H])c(F)c(N([H])S(=O)(=O)c3c(F)c([H])c([H])c([H])c3F)c2[H])c1[H]


 48 53  0  0  0  0  0  0  0  0999 V2000
  -17.8527   12.6752  -20.7408 C   0  0  0  0  0  0  0  0  0  0  0  0
  -18.9056   13.2547  -20.1971 N   0  0  0  0  0  0  0  0  0  0  0  0
  -19.1434   14.5129  -20.4122 C   0  0  0  0  0  0  0  0  0  0  0  0
  -18.2578   15.1918  -21.2190 C   0  0  0  0  0  0  0  0  0  0  0  0
  -17.1358   13.9553  -21.6130 S   0  0  0  0  0  0  0  0  0  0  0  0
  -20.3099   15.2359  -19.8367 C   0  0  0  0  0  0  0  0  0  0  0  0
  -20.4464   15.3240  -18.4772 C   0  0  0  0  0  0  0  0  0  0  0  0
  -21.5382   16.0093  -17.9144 C   0  0  0  0  0  0  0  0  0  0  0  0
  -22.4883   16.6024  -18.7089 C   0  0  0  0  0  0  0  0  0  0  0  0
  -23.5371   17.2608  -18.1484 F   0  0  0  0  0  0  0  0  0  0  0  0
  -22.3435   16.5084  -20.0877 C   0  0  0  0  0  0  0  0  0  0  0  0
  -21.2700   15.8357  -20.6258 C   0  0  0  0  0  0  0  0  0  0  0  0
  -23.3012   17.1347  -20.8891 N   0  0  0  0  0  0  0  0  0  0  0  0
  -24.0834   16.5088  -21.2633 H   0  0  0  0  0  0  0  0  0  0  0  0
  -23.3907   18.7673  -21.3527 S   0  0  0  0  0  0  0  0  0  0  0  0
  -24.5909   19.4617  -20.7522 O   0  0  0  0  0  0  0  0  0  0  0  0
  -22.1951   19.5469  -20.8175 O   0  0  0  0  0  0  0  0  0  0  0  0
  -23.3542   18.9325  -23.0753 C   0  0  0  0  0  0  0  0  0  0  0  0
  -23.6953   17.8472  -23.8309 C   0  0  0  0  0  0  0  0  0  0  0  0
  -24.0818   16.6698  -23.2291 F   0  0  0  0  0  0  0  0  0  0  0  0
  -23.6624   17.8980  -25.2056 C   0  0  0  0  0  0  0  0  0  0  0  0
  -23.2792   19.0620  -25.8616 C   0  0  0  0  0  0  0  0  0  0  0  0
  -22.9400   20.1432  -25.0676 C   0  0  0  0  0  0  0  0  0  0  0  0
  -22.9634   20.1214  -23.6944 C   0  0  0  0  0  0  0  0  0  0  0  0
  -22.6251   21.1966  -22.9389 F   0  0  0  0  0  0  0  0  0  0  0  0
  -18.2707   16.6039  -21.6308 C   0  0  0  0  0  0  0  0  0  0  0  0
  -18.1795   16.9085  -22.9730 C   0  0  0  0  0  0  0  0  0  0  0  0
  -18.1886   18.2282  -23.4128 C   0  0  0  0  0  0  0  0  0  0  0  0
  -18.2890   19.1846  -22.4850 N   0  0  0  0  0  0  0  0  0  0  0  0
  -18.3815   18.9199  -21.1415 C   0  0  0  0  0  0  0  0  0  0  0  0
  -18.3665   17.6304  -20.7925 N   0  0  0  0  0  0  0  0  0  0  0  0
  -18.4965   20.0083  -20.2743 N   0  0  0  0  0  0  0  0  0  0  0  0
  -18.0091   20.9149  -20.6201 H   0  0  0  0  0  0  0  0  0  0  0  0
  -19.1504   20.0857  -19.0239 C   0  0  0  0  0  0  0  0  0  0  0  0
  -19.1460   18.9684  -18.1713 C   0  0  0  0  0  0  0  0  0  0  0  0
  -19.7935   19.0310  -16.9695 C   0  0  0  0  0  0  0  0  0  0  0  0
  -20.4678   20.1499  -16.5298 C   0  0  0  0  0  0  0  0  0  0  0  0
  -20.4614   21.2033  -17.3543 N   0  0  0  0  0  0  0  0  0  0  0  0
  -19.8233   21.1774  -18.5668 C   0  0  0  0  0  0  0  0  0  0  0  0
  -21.1358   20.1747  -15.2652 N   0  0  0  0  0  0  0  0  0  0  0  0
  -20.6162   19.3207  -14.2186 C   0  0  0  0  0  0  0  0  0  0  0  0
  -21.1239   19.7131  -12.8460 C   0  0  0  0  0  0  0  0  0  0  0  0
  -21.4923   21.0776  -12.8527 O   0  0  0  0  0  0  0  0  0  0  0  0
  -22.6717   21.1267  -13.6230 C   0  0  0  0  0  0  0  0  0  0  0  0
  -22.2866   21.0358  -15.0705 C   0  0  0  0  0  0  0  0  0  0  0  0
  -16.1974   11.0753  -21.5366 C   0  0  0  0  0  0  0  0  0  0  0  0
  -17.4049   11.2350  -20.6097 C   0  0  0  0  0  0  0  0  0  0  0  0
  -16.9187   10.9641  -19.2052 C   0  0  0  0  0  0  0  0  0  0  0  0
 46 47  1  0  0  0
 47 48  1  0  0  0
 47  1  1  0  0  0
  1  2  2  0  0  0
  2  3  1  0  0  0
  3  4  2  0  0  0
  4  5  1  0  0  0
  4 26  1  0  0  0
 26 27  2  0  0  0
 27 28  1  0  0  0
 28 29  2  0  0  0
 29 30  1  0  0  0
 30 32  1  0  0  0
 32 34  1  0  0  0
 34 35  2  0  0  0
 35 36  1  0  0  0
 36 37  2  0  0  0
 37 38  1  0  0  0
 38 39  2  0  0  0
 37 40  1  0  0  0
 40 41  1  0  0  0
 41 42  1  0  0  0
 42 43  1  0  0  0
 43 44  1  0  0  0
 44 45  1  0  0  0
 30 31  2  0  0  0
  3  6  1  0  0  0
  6  7  2  0  0  0
  7  8  1  0  0  0
  8  9  2  0  0  0
  9 10  1  0  0  0
  9 11  1  0  0  0
 11 13  1  0  0  0
 13 15  1  0  0  0
 15 16  2  0  0  0
 15 17  2  0  0  0
 15 18  1  0  0  0
 18 19  2  0  0  0
 19 20  1  0  0  0
 19 21  1  0  0  0
 21 22  2  0  0  0
 22 23  1  0  0  0
 23 24  2  0  0  0
 24 25  1  0  0  0
 11 12  2  0  0  0
  5  1  1  0  0  0
 31 26  1  0  0  0
 12  6  1  0  0  0
 39 34  1  0  0  0
 45 40  1  0  0  0
 24 18  1  0  0  0
 32 33  1  0  0  0
 13 14  1  0  0  0
M  END
> <minimizedAffinity>
-8.04009

> <CNNscore>
0.0756523907

> <CNNaffinity>
6.7242355347

> <CNN_VS>
0.5087044835

> <CNNaffinity_variance>
2.1495509148

$$$$
[H]c1nc(N([H])c2c([H])nc(N3C([H])([H])C([H])([H])OC([H])([H])C3([H])[H])c([H])c2[H])nc(-c2sc(C([H])(C([H])([H])[H])C([H])([H])[H])nc2-c2c([H])c([H])c(F)c(N([H])S(=O)(=O)c3c(F)c([H])c([H])c([H])c3F)c2[H])c1[H]


 48 53  0  0  0  0  0  0  0  0999 V2000
  -19.5005   10.1436  -16.5741 C   0  0  0  0  0  0  0  0  0  0  0  0
  -19.7673   11.3444  -17.0506 N   0  0  0  0  0  0  0  0  0  0  0  0
  -19.1553   11.7783  -18.1103 C   0  0  0  0  0  0  0  0  0  0  0  0
  -18.2353   10.9367  -18.6947 C   0  0  0  0  0  0  0  0  0  0  0  0
  -18.3202    9.5677  -17.6643 S   0  0  0  0  0  0  0  0  0  0  0  0
  -19.4032   13.1184  -18.7083 C   0  0  0  0  0  0  0  0  0  0  0  0
  -20.1930   13.2257  -19.8215 C   0  0  0  0  0  0  0  0  0  0  0  0
  -20.4449   14.4842  -20.3969 C   0  0  0  0  0  0  0  0  0  0  0  0
  -19.9080   15.6287  -19.8606 C   0  0  0  0  0  0  0  0  0  0  0  0
  -20.1616   16.8369  -20.4293 F   0  0  0  0  0  0  0  0  0  0  0  0
  -19.1069   15.5120  -18.7312 C   0  0  0  0  0  0  0  0  0  0  0  0
  -18.8690   14.2746  -18.1773 C   0  0  0  0  0  0  0  0  0  0  0  0
  -18.5840   16.6831  -18.1777 N   0  0  0  0  0  0  0  0  0  0  0  0
  -17.5399   16.8524  -18.3353 H   0  0  0  0  0  0  0  0  0  0  0  0
  -19.3885   17.8822  -17.2813 S   0  0  0  0  0  0  0  0  0  0  0  0
  -18.9101   17.9352  -15.8489 O   0  0  0  0  0  0  0  0  0  0  0  0
  -19.0798   19.2685  -17.8351 O   0  0  0  0  0  0  0  0  0  0  0  0
  -21.1058   17.6871  -17.3732 C   0  0  0  0  0  0  0  0  0  0  0  0
  -21.6746   16.6700  -16.6611 C   0  0  0  0  0  0  0  0  0  0  0  0
  -20.8982   15.8474  -15.8748 F   0  0  0  0  0  0  0  0  0  0  0  0
  -23.0303   16.4388  -16.7086 C   0  0  0  0  0  0  0  0  0  0  0  0
  -23.8577   17.2398  -17.4869 C   0  0  0  0  0  0  0  0  0  0  0  0
  -23.2507   18.2613  -18.1959 C   0  0  0  0  0  0  0  0  0  0  0  0
  -21.9010   18.5153  -18.1677 C   0  0  0  0  0  0  0  0  0  0  0  0
  -21.3307   19.5241  -18.8735 F   0  0  0  0  0  0  0  0  0  0  0  0
  -17.4002   11.1561  -19.8856 C   0  0  0  0  0  0  0  0  0  0  0  0
  -16.2867   10.3643  -20.0749 C   0  0  0  0  0  0  0  0  0  0  0  0
  -15.4660   10.5319  -21.1855 C   0  0  0  0  0  0  0  0  0  0  0  0
  -15.7996   11.4876  -22.0578 N   0  0  0  0  0  0  0  0  0  0  0  0
  -16.8992   12.2943  -21.9028 C   0  0  0  0  0  0  0  0  0  0  0  0
  -17.6410   12.0765  -20.8132 N   0  0  0  0  0  0  0  0  0  0  0  0
  -17.1473   13.2468  -22.8932 N   0  0  0  0  0  0  0  0  0  0  0  0
  -17.1066   12.8639  -23.9085 H   0  0  0  0  0  0  0  0  0  0  0  0
  -17.4374   14.6228  -22.7530 C   0  0  0  0  0  0  0  0  0  0  0  0
  -18.4246   15.2072  -23.5649 C   0  0  0  0  0  0  0  0  0  0  0  0
  -18.6955   16.5415  -23.4473 C   0  0  0  0  0  0  0  0  0  0  0  0
  -18.0447   17.3712  -22.5597 C   0  0  0  0  0  0  0  0  0  0  0  0
  -17.1084   16.7977  -21.7955 N   0  0  0  0  0  0  0  0  0  0  0  0
  -16.8094   15.4634  -21.8855 C   0  0  0  0  0  0  0  0  0  0  0  0
  -18.3558   18.7644  -22.4688 N   0  0  0  0  0  0  0  0  0  0  0  0
  -18.8537   19.4167  -23.6610 C   0  0  0  0  0  0  0  0  0  0  0  0
  -19.5170   20.7452  -23.3597 C   0  0  0  0  0  0  0  0  0  0  0  0
  -19.9736   20.7508  -22.0221 O   0  0  0  0  0  0  0  0  0  0  0  0
  -18.8012   20.8290  -21.2435 C   0  0  0  0  0  0  0  0  0  0  0  0
  -18.1702   19.4678  -21.2140 C   0  0  0  0  0  0  0  0  0  0  0  0
  -21.4868   10.0775  -15.1659 C   0  0  0  0  0  0  0  0  0  0  0  0
  -20.0979    9.4642  -15.3604 C   0  0  0  0  0  0  0  0  0  0  0  0
  -20.3025    7.9924  -15.6325 C   0  0  0  0  0  0  0  0  0  0  0  0
 46 47  1  0  0  0
 47 48  1  0  0  0
 47  1  1  0  0  0
  1  2  2  0  0  0
  2  3  1  0  0  0
  3  4  2  0  0  0
  4  5  1  0  0  0
  4 26  1  0  0  0
 26 27  2  0  0  0
 27 28  1  0  0  0
 28 29  2  0  0  0
 29 30  1  0  0  0
 30 32  1  0  0  0
 32 34  1  0  0  0
 34 35  2  0  0  0
 35 36  1  0  0  0
 36 37  2  0  0  0
 37 38  1  0  0  0
 38 39  2  0  0  0
 37 40  1  0  0  0
 40 41  1  0  0  0
 41 42  1  0  0  0
 42 43  1  0  0  0
 43 44  1  0  0  0
 44 45  1  0  0  0
 30 31  2  0  0  0
  3  6  1  0  0  0
  6  7  2  0  0  0
  7  8  1  0  0  0
  8  9  2  0  0  0
  9 10  1  0  0  0
  9 11  1  0  0  0
 11 13  1  0  0  0
 13 15  1  0  0  0
 15 16  2  0  0  0
 15 17  2  0  0  0
 15 18  1  0  0  0
 18 19  2  0  0  0
 19 20  1  0  0  0
 19 21  1  0  0  0
 21 22  2  0  0  0
 22 23  1  0  0  0
 23 24  2  0  0  0
 24 25  1  0  0  0
 11 12  2  0  0  0
  5  1  1  0  0  0
 31 26  1  0  0  0
 12  6  1  0  0  0
 39 34  1  0  0  0
 45 40  1  0  0  0
 24 18  1  0  0  0
 32 33  1  0  0  0
 13 14  1  0  0  0
M  END
> <minimizedAffinity>
-8.81434

> <CNNscore>
0.0591070056

> <CNNaffinity>
7.5366301537

> <CNN_VS>
0.4454676509

> <CNNaffinity_variance>
0.6836544275

$$$$
[H]c1nc(N([H])c2c([H])nc(N3C([H])([H])C([H])([H])OC([H])([H])C3([H])[H])c([H])c2[H])nc(-c2sc(C([H])(C([H])([H])[H])C([H])([H])[H])nc2-c2c([H])c([H])c(F)c(N([H])S(=O)(=O)c3c(F)c([H])c([H])c([H])c3F)c2[H])c1[H]


 48 53  0  0  0  0  0  0  0  0999 V2000
  -15.7181   16.1752  -24.8344 C   0  0  0  0  0  0  0  0  0  0  0  0
  -16.7114   17.0281  -24.6726 N   0  0  0  0  0  0  0  0  0  0  0  0
  -17.3743   17.0557  -23.5565 C   0  0  0  0  0  0  0  0  0  0  0  0
  -16.9927   16.1677  -22.5757 C   0  0  0  0  0  0  0  0  0  0  0  0
  -15.6934   15.3495  -23.3408 S   0  0  0  0  0  0  0  0  0  0  0  0
  -18.5042   17.9891  -23.2980 C   0  0  0  0  0  0  0  0  0  0  0  0
  -18.2420   19.2795  -22.9226 C   0  0  0  0  0  0  0  0  0  0  0  0
  -19.2964   20.1786  -22.6809 C   0  0  0  0  0  0  0  0  0  0  0  0
  -20.6059   19.7872  -22.8136 C   0  0  0  0  0  0  0  0  0  0  0  0
  -21.6126   20.6689  -22.5760 F   0  0  0  0  0  0  0  0  0  0  0  0
  -20.8643   18.4759  -23.1942 C   0  0  0  0  0  0  0  0  0  0  0  0
  -19.8234   17.6063  -23.4287 C   0  0  0  0  0  0  0  0  0  0  0  0
  -22.1984   18.0921  -23.3502 N   0  0  0  0  0  0  0  0  0  0  0  0
  -22.4677   17.7068  -24.3108 H   0  0  0  0  0  0  0  0  0  0  0  0
  -23.4591   18.1559  -22.2122 S   0  0  0  0  0  0  0  0  0  0  0  0
  -24.3578   19.3512  -22.4289 O   0  0  0  0  0  0  0  0  0  0  0  0
  -24.3844   16.9540  -22.3636 O   0  0  0  0  0  0  0  0  0  0  0  0
  -22.8462   18.1040  -20.5943 C   0  0  0  0  0  0  0  0  0  0  0  0
  -22.9030   19.2477  -19.8502 C   0  0  0  0  0  0  0  0  0  0  0  0
  -23.4587   20.3949  -20.3724 F   0  0  0  0  0  0  0  0  0  0  0  0
  -22.4096   19.2870  -18.5661 C   0  0  0  0  0  0  0  0  0  0  0  0
  -21.8386   18.1569  -17.9929 C   0  0  0  0  0  0  0  0  0  0  0  0
  -21.7965   17.0147  -18.7727 C   0  0  0  0  0  0  0  0  0  0  0  0
  -22.2807   16.9463  -20.0563 C   0  0  0  0  0  0  0  0  0  0  0  0
  -22.2265   15.8128  -20.8002 F   0  0  0  0  0  0  0  0  0  0  0  0
  -17.5535   15.9722  -21.2300 C   0  0  0  0  0  0  0  0  0  0  0  0
  -17.1232   16.7863  -20.2030 C   0  0  0  0  0  0  0  0  0  0  0  0
  -17.6240   16.6419  -18.9132 C   0  0  0  0  0  0  0  0  0  0  0  0
  -18.5355   15.6858  -18.7112 N   0  0  0  0  0  0  0  0  0  0  0  0
  -18.9873   14.8573  -19.7078 C   0  0  0  0  0  0  0  0  0  0  0  0
  -18.4624   15.0536  -20.9206 N   0  0  0  0  0  0  0  0  0  0  0  0
  -19.9531   13.9069  -19.3706 N   0  0  0  0  0  0  0  0  0  0  0  0
  -20.8628   13.9581  -19.9610 H   0  0  0  0  0  0  0  0  0  0  0  0
  -19.9065   12.9037  -18.3762 C   0  0  0  0  0  0  0  0  0  0  0  0
  -19.0352   11.8126  -18.5356 C   0  0  0  0  0  0  0  0  0  0  0  0
  -19.0002   10.8296  -17.5868 C   0  0  0  0  0  0  0  0  0  0  0  0
  -19.7858   10.8417  -16.4544 C   0  0  0  0  0  0  0  0  0  0  0  0
  -20.6088   11.8876  -16.3196 N   0  0  0  0  0  0  0  0  0  0  0  0
  -20.6716   12.8917  -17.2501 C   0  0  0  0  0  0  0  0  0  0  0  0
  -19.7215    9.7914  -15.4854 N   0  0  0  0  0  0  0  0  0  0  0  0
  -19.7678   10.1677  -14.0886 C   0  0  0  0  0  0  0  0  0  0  0  0
  -20.0956    8.9971  -13.1844 C   0  0  0  0  0  0  0  0  0  0  0  0
  -20.7997    8.0168  -13.9199 O   0  0  0  0  0  0  0  0  0  0  0  0
  -19.8366    7.4558  -14.7828 C   0  0  0  0  0  0  0  0  0  0  0  0
  -19.6163    8.4113  -15.9187 C   0  0  0  0  0  0  0  0  0  0  0  0
  -13.8087   14.9156  -25.6713 C   0  0  0  0  0  0  0  0  0  0  0  0
  -14.8348   15.9867  -26.0493 C   0  0  0  0  0  0  0  0  0  0  0  0
  -15.6409   15.4347  -27.2015 C   0  0  0  0  0  0  0  0  0  0  0  0
 46 47  1  0  0  0
 47 48  1  0  0  0
 47  1  1  0  0  0
  1  2  2  0  0  0
  2  3  1  0  0  0
  3  4  2  0  0  0
  4  5  1  0  0  0
  4 26  1  0  0  0
 26 27  2  0  0  0
 27 28  1  0  0  0
 28 29  2  0  0  0
 29 30  1  0  0  0
 30 32  1  0  0  0
 32 34  1  0  0  0
 34 35  2  0  0  0
 35 36  1  0  0  0
 36 37  2  0  0  0
 37 38  1  0  0  0
 38 39  2  0  0  0
 37 40  1  0  0  0
 40 41  1  0  0  0
 41 42  1  0  0  0
 42 43  1  0  0  0
 43 44  1  0  0  0
 44 45  1  0  0  0
 30 31  2  0  0  0
  3  6  1  0  0  0
  6  7  2  0  0  0
  7  8  1  0  0  0
  8  9  2  0  0  0
  9 10  1  0  0  0
  9 11  1  0  0  0
 11 13  1  0  0  0
 13 15  1  0  0  0
 15 16  2  0  0  0
 15 17  2  0  0  0
 15 18  1  0  0  0
 18 19  2  0  0  0
 19 20  1  0  0  0
 19 21  1  0  0  0
 21 22  2  0  0  0
 22 23  1  0  0  0
 23 24  2  0  0  0
 24 25  1  0  0  0
 11 12  2  0  0  0
  5  1  1  0  0  0
 31 26  1  0  0  0
 12  6  1  0  0  0
 39 34  1  0  0  0
 45 40  1  0  0  0
 24 18  1  0  0  0
 32 33  1  0  0  0
 13 14  1  0  0  0
M  END
> <minimizedAffinity>
-8.76665

> <CNNscore>
0.0557993650

> <CNNaffinity>
7.4573950768

> <CNN_VS>
0.4161179066

> <CNNaffinity_variance>
0.6172047257

$$$$
[H]c1nc(N([H])c2c([H])nc(N3C([H])([H])C([H])([H])OC([H])([H])C3([H])[H])c([H])c2[H])nc(-c2sc(C([H])(C([H])([H])[H])C([H])([H])[H])nc2-c2c([H])c([H])c(F)c(N([H])S(=O)(=O)c3c(F)c([H])c([H])c([H])c3F)c2[H])c1[H]


 48 53  0  0  0  0  0  0  0  0999 V2000
  -16.6272   15.4976  -25.4427 C   0  0  0  0  0  0  0  0  0  0  0  0
  -16.9485   16.3855  -24.5216 N   0  0  0  0  0  0  0  0  0  0  0  0
  -17.4218   15.9977  -23.3764 C   0  0  0  0  0  0  0  0  0  0  0  0
  -17.5662   14.6423  -23.1815 C   0  0  0  0  0  0  0  0  0  0  0  0
  -17.0036   14.0190  -24.6775 S   0  0  0  0  0  0  0  0  0  0  0  0
  -17.8047   16.9376  -22.2879 C   0  0  0  0  0  0  0  0  0  0  0  0
  -16.9826   17.0857  -21.2031 C   0  0  0  0  0  0  0  0  0  0  0  0
  -17.3237   17.9745  -20.1676 C   0  0  0  0  0  0  0  0  0  0  0  0
  -18.4821   18.7102  -20.2182 C   0  0  0  0  0  0  0  0  0  0  0  0
  -18.7964   19.5645  -19.2088 F   0  0  0  0  0  0  0  0  0  0  0  0
  -19.3118   18.5541  -21.3219 C   0  0  0  0  0  0  0  0  0  0  0  0
  -18.9660   17.6818  -22.3289 C   0  0  0  0  0  0  0  0  0  0  0  0
  -20.4764   19.3236  -21.3773 N   0  0  0  0  0  0  0  0  0  0  0  0
  -20.3497   20.3782  -21.2525 H   0  0  0  0  0  0  0  0  0  0  0  0
  -22.0775   18.8064  -21.6171 S   0  0  0  0  0  0  0  0  0  0  0  0
  -22.2967   17.3950  -21.1240 O   0  0  0  0  0  0  0  0  0  0  0  0
  -23.0460   19.6493  -20.7954 O   0  0  0  0  0  0  0  0  0  0  0  0
  -22.5525   18.9846  -23.2720 C   0  0  0  0  0  0  0  0  0  0  0  0
  -22.0723   20.0592  -23.9646 C   0  0  0  0  0  0  0  0  0  0  0  0
  -21.2142   20.9528  -23.3623 F   0  0  0  0  0  0  0  0  0  0  0  0
  -22.4297   20.2790  -25.2752 C   0  0  0  0  0  0  0  0  0  0  0  0
  -23.2929   19.4074  -25.9288 C   0  0  0  0  0  0  0  0  0  0  0  0
  -23.7615   18.3290  -25.1995 C   0  0  0  0  0  0  0  0  0  0  0  0
  -23.4221   18.0847  -23.8911 C   0  0  0  0  0  0  0  0  0  0  0  0
  -23.8966   17.0189  -23.1980 F   0  0  0  0  0  0  0  0  0  0  0  0
  -18.0715   13.9216  -22.0029 C   0  0  0  0  0  0  0  0  0  0  0  0
  -17.3768   12.8216  -21.5448 C   0  0  0  0  0  0  0  0  0  0  0  0
  -17.8132   12.1074  -20.4337 C   0  0  0  0  0  0  0  0  0  0  0  0
  -18.9287   12.5295  -19.8310 N   0  0  0  0  0  0  0  0  0  0  0  0
  -19.6460   13.6189  -20.2579 C   0  0  0  0  0  0  0  0  0  0  0  0
  -19.1678   14.2559  -21.3305 N   0  0  0  0  0  0  0  0  0  0  0  0
  -20.7873   13.9665  -19.5324 N   0  0  0  0  0  0  0  0  0  0  0  0
  -21.7167   13.5801  -19.9398 H   0  0  0  0  0  0  0  0  0  0  0  0
  -20.8933   14.7448  -18.3576 C   0  0  0  0  0  0  0  0  0  0  0  0
  -20.4671   16.0839  -18.3750 C   0  0  0  0  0  0  0  0  0  0  0  0
  -20.5489   16.8355  -17.2365 C   0  0  0  0  0  0  0  0  0  0  0  0
  -21.0357   16.3501  -16.0419 C   0  0  0  0  0  0  0  0  0  0  0  0
  -21.4364   15.0738  -16.0442 N   0  0  0  0  0  0  0  0  0  0  0  0
  -21.3692   14.2897  -17.1660 C   0  0  0  0  0  0  0  0  0  0  0  0
  -21.1026   17.1689  -14.8708 N   0  0  0  0  0  0  0  0  0  0  0  0
  -19.9446   17.9770  -14.5539 C   0  0  0  0  0  0  0  0  0  0  0  0
  -20.2605   19.0767  -13.5606 C   0  0  0  0  0  0  0  0  0  0  0  0
  -21.6377   19.3881  -13.6252 O   0  0  0  0  0  0  0  0  0  0  0  0
  -22.2837   18.2782  -13.0442 C   0  0  0  0  0  0  0  0  0  0  0  0
  -22.3012   17.1683  -14.0540 C   0  0  0  0  0  0  0  0  0  0  0  0
  -14.5490   15.6171  -26.7076 C   0  0  0  0  0  0  0  0  0  0  0  0
  -16.0695   15.7458  -26.8280 C   0  0  0  0  0  0  0  0  0  0  0  0
  -16.5275   14.6641  -27.7779 C   0  0  0  0  0  0  0  0  0  0  0  0
 46 47  1  0  0  0
 47 48  1  0  0  0
 47  1  1  0  0  0
  1  2  2  0  0  0
  2  3  1  0  0  0
  3  4  2  0  0  0
  4  5  1  0  0  0
  4 26  1  0  0  0
 26 27  2  0  0  0
 27 28  1  0  0  0
 28 29  2  0  0  0
 29 30  1  0  0  0
 30 32  1  0  0  0
 32 34  1  0  0  0
 34 35  2  0  0  0
 35 36  1  0  0  0
 36 37  2  0  0  0
 37 38  1  0  0  0
 38 39  2  0  0  0
 37 40  1  0  0  0
 40 41  1  0  0  0
 41 42  1  0  0  0
 42 43  1  0  0  0
 43 44  1  0  0  0
 44 45  1  0  0  0
 30 31  2  0  0  0
  3  6  1  0  0  0
  6  7  2  0  0  0
  7  8  1  0  0  0
  8  9  2  0  0  0
  9 10  1  0  0  0
  9 11  1  0  0  0
 11 13  1  0  0  0
 13 15  1  0  0  0
 15 16  2  0  0  0
 15 17  2  0  0  0
 15 18  1  0  0  0
 18 19  2  0  0  0
 19 20  1  0  0  0
 19 21  1  0  0  0
 21 22  2  0  0  0
 22 23  1  0  0  0
 23 24  2  0  0  0
 24 25  1  0  0  0
 11 12  2  0  0  0
  5  1  1  0  0  0
 31 26  1  0  0  0
 12  6  1  0  0  0
 39 34  1  0  0  0
 45 40  1  0  0  0
 24 18  1  0  0  0
 32 33  1  0  0  0
 13 14  1  0  0  0
M  END
> <minimizedAffinity>
-9.06317

> <CNNscore>
0.0467943363

> <CNNaffinity>
7.4319624901

> <CNN_VS>
0.3477737606

> <CNNaffinity_variance>
0.7277190089

$$$$
[H]c1c([H])c([H])c(-c2c([H])c([H])c(C(=O)N([H])[H])c3c2c2c([H])c([H])c(C(=O)N4C([H])([H])C([H])([H])N(C([H])([H])[H])C([H])([H])C4([H])[H])c([H])c2n3[H])c(F)c1[H]


 35 39  0  0  0  0  0  0  0  0999 V2000
  -19.3818    9.0841  -16.1120 C   0  0  0  0  0  0  0  0  0  0  0  0
  -20.0443   10.3301  -16.1190 C   0  0  0  0  0  0  0  0  0  0  0  0
  -19.7723   11.3141  -17.0362 C   0  0  0  0  0  0  0  0  0  0  0  0
  -18.8165   11.1086  -18.0022 C   0  0  0  0  0  0  0  0  0  0  0  0
  -18.1563    9.9074  -18.0243 C   0  0  0  0  0  0  0  0  0  0  0  0
  -18.4498    8.9058  -17.0728 C   0  0  0  0  0  0  0  0  0  0  0  0
  -17.3147    9.9570  -19.0691 N   0  0  0  0  0  0  0  0  0  0  0  0
  -17.3808   11.1057  -19.7251 C   0  0  0  0  0  0  0  0  0  0  0  0
  -16.7346   11.5631  -20.8449 C   0  0  0  0  0  0  0  0  0  0  0  0
  -17.0534   12.8318  -21.3168 C   0  0  0  0  0  0  0  0  0  0  0  0
  -17.9868   13.6121  -20.6821 C   0  0  0  0  0  0  0  0  0  0  0  0
  -18.6360   13.1206  -19.5310 C   0  0  0  0  0  0  0  0  0  0  0  0
  -18.3465   11.8728  -19.0489 C   0  0  0  0  0  0  0  0  0  0  0  0
  -16.6853    9.1347  -19.3012 H   0  0  0  0  0  0  0  0  0  0  0  0
  -17.8339    7.0106  -10.8072 C   0  0  0  0  0  0  0  0  0  0  0  0
  -19.1465    7.5424  -10.9569 N   0  0  0  0  0  0  0  0  0  0  0  0
  -20.0467    6.6889  -11.6876 C   0  0  0  0  0  0  0  0  0  0  0  0
  -20.1025    6.8255  -13.1251 C   0  0  0  0  0  0  0  0  0  0  0  0
  -19.5931    8.0655  -13.7329 N   0  0  0  0  0  0  0  0  0  0  0  0
  -19.0416    9.0588  -12.8819 C   0  0  0  0  0  0  0  0  0  0  0  0
  -19.2129    8.8980  -11.4113 C   0  0  0  0  0  0  0  0  0  0  0  0
  -19.7490    8.1069  -15.1307 C   0  0  0  0  0  0  0  0  0  0  0  0
  -20.3554    7.0198  -15.5885 O   0  0  0  0  0  0  0  0  0  0  0  0
  -19.4822   14.0293  -18.7888 C   0  0  0  0  0  0  0  0  0  0  0  0
  -18.9377   14.7483  -17.7320 C   0  0  0  0  0  0  0  0  0  0  0  0
  -19.6968   15.7094  -17.0946 C   0  0  0  0  0  0  0  0  0  0  0  0
  -20.9907   15.9752  -17.4836 C   0  0  0  0  0  0  0  0  0  0  0  0
  -21.5101   15.2528  -18.5313 C   0  0  0  0  0  0  0  0  0  0  0  0
  -20.7646   14.2814  -19.1865 C   0  0  0  0  0  0  0  0  0  0  0  0
  -21.3368   13.5886  -20.2292 F   0  0  0  0  0  0  0  0  0  0  0  0
  -15.7335   10.8217  -21.5832 C   0  0  0  0  0  0  0  0  0  0  0  0
  -15.1240   11.3532  -22.7641 N   0  0  0  0  0  0  0  0  0  0  0  0
  -15.3780    9.6832  -21.1954 O   0  0  0  0  0  0  0  0  0  0  0  0
  -14.1058   11.3000  -22.8820 H   0  0  0  0  0  0  0  0  0  0  0  0
  -15.7045   11.7888  -23.4970 H   0  0  0  0  0  0  0  0  0  0  0  0
 15 16  1  0  0  0
 16 17  1  0  0  0
 17 18  1  0  0  0
 18 19  1  0  0  0
 19 20  1  0  0  0
 20 21  1  0  0  0
 19 22  1  0  0  0
 22 23  2  0  0  0
 22  1  1  0  0  0
  1  2  2  0  0  0
  2  3  1  0  0  0
  3  4  2  0  0  0
  4  5  1  0  0  0
  5  6  2  0  0  0
  5  7  1  0  0  0
  7  8  1  0  0  0
  8  9  2  0  0  0
  9 10  1  0  0  0
 10 11  2  0  0  0
 11 12  1  0  0  0
 12 24  1  0  0  0
 24 25  2  0  0  0
 25 26  1  0  0  0
 26 27  2  0  0  0
 27 28  1  0  0  0
 28 29  2  0  0  0
 29 30  1  0  0  0
 12 13  2  0  0  0
  9 31  1  0  0  0
 31 32  1  0  0  0
 31 33  2  0  0  0
 21 16  1  0  0  0
  6  1  1  0  0  0
 13  8  1  0  0  0
 13  4  1  0  0  0
 29 24  1  0  0  0
  7 14  1  0  0  0
 32 34  1  0  0  0
 32 35  1  0  0  0
M  END
> <minimizedAffinity>
-10.41207

> <CNNscore>
0.9901245236

> <CNNaffinity>
7.2993974686

> <CNN_VS>
7.2273125648

> <CNNaffinity_variance>
0.1036808714

$$$$
[H]c1c([H])c([H])c(-c2c([H])c([H])c(C(=O)N([H])[H])c3c2c2c([H])c([H])c(C(=O)N4C([H])([H])C([H])([H])N(C([H])([H])[H])C([H])([H])C4([H])[H])c([H])c2n3[H])c(F)c1[H]


 35 39  0  0  0  0  0  0  0  0999 V2000
  -19.3801    9.0820  -16.1133 C   0  0  0  0  0  0  0  0  0  0  0  0
  -20.0559   10.3208  -16.1311 C   0  0  0  0  0  0  0  0  0  0  0  0
  -19.7918   11.3010  -17.0547 C   0  0  0  0  0  0  0  0  0  0  0  0
  -18.8311   11.0989  -18.0166 C   0  0  0  0  0  0  0  0  0  0  0  0
  -18.1581    9.9047  -18.0283 C   0  0  0  0  0  0  0  0  0  0  0  0
  -18.4435    8.9069  -17.0703 C   0  0  0  0  0  0  0  0  0  0  0  0
  -17.3142    9.9557  -19.0710 N   0  0  0  0  0  0  0  0  0  0  0  0
  -17.3907   11.0989  -19.7355 C   0  0  0  0  0  0  0  0  0  0  0  0
  -16.7462   11.5552  -20.8568 C   0  0  0  0  0  0  0  0  0  0  0  0
  -17.0773   12.8170  -21.3387 C   0  0  0  0  0  0  0  0  0  0  0  0
  -18.0207   13.5918  -20.7123 C   0  0  0  0  0  0  0  0  0  0  0  0
  -18.6679   13.1016  -19.5594 C   0  0  0  0  0  0  0  0  0  0  0  0
  -18.3664   11.8605  -19.0675 C   0  0  0  0  0  0  0  0  0  0  0  0
  -16.6753    9.1386  -19.2955 H   0  0  0  0  0  0  0  0  0  0  0  0
  -17.8312    7.0701  -10.7852 C   0  0  0  0  0  0  0  0  0  0  0  0
  -19.1496    7.5841  -10.9451 N   0  0  0  0  0  0  0  0  0  0  0  0
  -20.0355    6.7136  -11.6732 C   0  0  0  0  0  0  0  0  0  0  0  0
  -20.0863    6.8381  -13.1120 C   0  0  0  0  0  0  0  0  0  0  0  0
  -19.5897    8.0797  -13.7272 N   0  0  0  0  0  0  0  0  0  0  0  0
  -19.0547    9.0865  -12.8816 C   0  0  0  0  0  0  0  0  0  0  0  0
  -19.2310    8.9352  -11.4106 C   0  0  0  0  0  0  0  0  0  0  0  0
  -19.7396    8.1080  -15.1260 C   0  0  0  0  0  0  0  0  0  0  0  0
  -20.3301    7.0098  -15.5780 O   0  0  0  0  0  0  0  0  0  0  0  0
  -19.5259   14.0066  -18.8260 C   0  0  0  0  0  0  0  0  0  0  0  0
  -20.8572   14.1299  -19.2036 C   0  0  0  0  0  0  0  0  0  0  0  0
  -21.7178   14.8922  -18.4392 C   0  0  0  0  0  0  0  0  0  0  0  0
  -21.2859   15.5385  -17.3026 C   0  0  0  0  0  0  0  0  0  0  0  0
  -19.9651   15.4033  -16.9467 C   0  0  0  0  0  0  0  0  0  0  0  0
  -19.0820   14.6417  -17.7009 C   0  0  0  0  0  0  0  0  0  0  0  0
  -17.7700   14.5422  -17.2968 F   0  0  0  0  0  0  0  0  0  0  0  0
  -15.7353   10.8193  -21.5870 C   0  0  0  0  0  0  0  0  0  0  0  0
  -15.0897   11.3710  -22.7392 N   0  0  0  0  0  0  0  0  0  0  0  0
  -15.4029    9.6678  -21.2176 O   0  0  0  0  0  0  0  0  0  0  0  0
  -14.0695   11.3082  -22.8325 H   0  0  0  0  0  0  0  0  0  0  0  0
  -15.6462   11.8307  -23.4759 H   0  0  0  0  0  0  0  0  0  0  0  0
 15 16  1  0  0  0
 16 17  1  0  0  0
 17 18  1  0  0  0
 18 19  1  0  0  0
 19 20  1  0  0  0
 20 21  1  0  0  0
 19 22  1  0  0  0
 22 23  2  0  0  0
 22  1  1  0  0  0
  1  2  2  0  0  0
  2  3  1  0  0  0
  3  4  2  0  0  0
  4  5  1  0  0  0
  5  6  2  0  0  0
  5  7  1  0  0  0
  7  8  1  0  0  0
  8  9  2  0  0  0
  9 10  1  0  0  0
 10 11  2  0  0  0
 11 12  1  0  0  0
 12 24  1  0  0  0
 24 25  2  0  0  0
 25 26  1  0  0  0
 26 27  2  0  0  0
 27 28  1  0  0  0
 28 29  2  0  0  0
 29 30  1  0  0  0
 12 13  2  0  0  0
  9 31  1  0  0  0
 31 32  1  0  0  0
 31 33  2  0  0  0
 21 16  1  0  0  0
  6  1  1  0  0  0
 13  8  1  0  0  0
 13  4  1  0  0  0
 29 24  1  0  0  0
  7 14  1  0  0  0
 32 34  1  0  0  0
 32 35  1  0  0  0
M  END
> <minimizedAffinity>
-10.36944

> <CNNscore>
0.9894382358

> <CNNaffinity>
7.3491148949

> <CNN_VS>
7.2714953423

> <CNNaffinity_variance>
0.1203456372

$$$$
[H]c1c([H])c([H])c(-c2c([H])c([H])c(C(=O)N([H])[H])c3c2c2c([H])c([H])c(C(=O)N4C([H])([H])C([H])([H])N(C([H])([H])[H])C([H])([H])C4([H])[H])c([H])c2n3[H])c(F)c1[H]


 35 39  0  0  0  0  0  0  0  0999 V2000
  -19.4127   10.0550  -16.4106 C   0  0  0  0  0  0  0  0  0  0  0  0
  -20.0876   11.2715  -16.6473 C   0  0  0  0  0  0  0  0  0  0  0  0
  -19.7845   12.1002  -17.6985 C   0  0  0  0  0  0  0  0  0  0  0  0
  -18.7831   11.7596  -18.5761 C   0  0  0  0  0  0  0  0  0  0  0  0
  -18.1097   10.5826  -18.3755 C   0  0  0  0  0  0  0  0  0  0  0  0
  -18.4357    9.7416  -17.2887 C   0  0  0  0  0  0  0  0  0  0  0  0
  -17.2216   10.4789  -19.3769 N   0  0  0  0  0  0  0  0  0  0  0  0
  -17.2699   11.5060  -20.2118 C   0  0  0  0  0  0  0  0  0  0  0  0
  -16.5780   11.7893  -21.3615 C   0  0  0  0  0  0  0  0  0  0  0  0
  -16.8886   12.9599  -22.0452 C   0  0  0  0  0  0  0  0  0  0  0  0
  -17.8585   13.8149  -21.5859 C   0  0  0  0  0  0  0  0  0  0  0  0
  -18.5545   13.5029  -20.3999 C   0  0  0  0  0  0  0  0  0  0  0  0
  -18.2739   12.3542  -19.7108 C   0  0  0  0  0  0  0  0  0  0  0  0
  -16.5733    9.6416  -19.4458 H   0  0  0  0  0  0  0  0  0  0  0  0
  -24.0053    8.9566  -12.8700 C   0  0  0  0  0  0  0  0  0  0  0  0
  -23.4854    7.8772  -13.6399 N   0  0  0  0  0  0  0  0  0  0  0  0
  -22.2295    7.3635  -13.1587 C   0  0  0  0  0  0  0  0  0  0  0  0
  -21.0113    7.9660  -13.6497 C   0  0  0  0  0  0  0  0  0  0  0  0
  -21.0679    8.7504  -14.8940 N   0  0  0  0  0  0  0  0  0  0  0  0
  -22.3228    8.9055  -15.5391 C   0  0  0  0  0  0  0  0  0  0  0  0
  -23.4674    8.0843  -15.0560 C   0  0  0  0  0  0  0  0  0  0  0  0
  -19.8139    9.2415  -15.3016 C   0  0  0  0  0  0  0  0  0  0  0  0
  -18.8463    8.8565  -14.4803 O   0  0  0  0  0  0  0  0  0  0  0  0
  -19.4437   14.5036  -19.8515 C   0  0  0  0  0  0  0  0  0  0  0  0
  -20.8065   14.4073  -20.1038 C   0  0  0  0  0  0  0  0  0  0  0  0
  -21.6804   15.2800  -19.4868 C   0  0  0  0  0  0  0  0  0  0  0  0
  -21.2312   16.2514  -18.6204 C   0  0  0  0  0  0  0  0  0  0  0  0
  -19.8793   16.3295  -18.3845 C   0  0  0  0  0  0  0  0  0  0  0  0
  -18.9823   15.4621  -18.9943 C   0  0  0  0  0  0  0  0  0  0  0  0
  -17.6391   15.5871  -18.7210 F   0  0  0  0  0  0  0  0  0  0  0  0
  -15.5362   10.9573  -21.9263 C   0  0  0  0  0  0  0  0  0  0  0  0
  -14.7590   11.3851  -23.0495 N   0  0  0  0  0  0  0  0  0  0  0  0
  -15.2932    9.8295  -21.4343 O   0  0  0  0  0  0  0  0  0  0  0  0
  -13.7384   11.2769  -23.0359 H   0  0  0  0  0  0  0  0  0  0  0  0
  -15.2211   11.8013  -23.8723 H   0  0  0  0  0  0  0  0  0  0  0  0
 15 16  1  0  0  0
 16 17  1  0  0  0
 17 18  1  0  0  0
 18 19  1  0  0  0
 19 20  1  0  0  0
 20 21  1  0  0  0
 19 22  1  0  0  0
 22 23  2  0  0  0
 22  1  1  0  0  0
  1  2  2  0  0  0
  2  3  1  0  0  0
  3  4  2  0  0  0
  4  5  1  0  0  0
  5  6  2  0  0  0
  5  7  1  0  0  0
  7  8  1  0  0  0
  8  9  2  0  0  0
  9 10  1  0  0  0
 10 11  2  0  0  0
 11 12  1  0  0  0
 12 24  1  0  0  0
 24 25  2  0  0  0
 25 26  1  0  0  0
 26 27  2  0  0  0
 27 28  1  0  0  0
 28 29  2  0  0  0
 29 30  1  0  0  0
 12 13  2  0  0  0
  9 31  1  0  0  0
 31 32  1  0  0  0
 31 33  2  0  0  0
 21 16  1  0  0  0
  6  1  1  0  0  0
 13  8  1  0  0  0
 13  4  1  0  0  0
 29 24  1  0  0  0
  7 14  1  0  0  0
 32 34  1  0  0  0
 32 35  1  0  0  0
M  END
> <minimizedAffinity>
-9.65176

> <CNNscore>
0.9258545041

> <CNNaffinity>
7.2395296097

> <CNN_VS>
6.7027511597

> <CNNaffinity_variance>
0.1235570461

$$$$
[H]c1c([H])c([H])c(-c2c([H])c([H])c(C(=O)N([H])[H])c3c2c2c([H])c([H])c(C(=O)N4C([H])([H])C([H])([H])N(C([H])([H])[H])C([H])([H])C4([H])[H])c([H])c2n3[H])c(F)c1[H]


 35 39  0  0  0  0  0  0  0  0999 V2000
  -20.4416   10.7932  -15.8803 C   0  0  0  0  0  0  0  0  0  0  0  0
  -20.8883   12.0619  -16.3072 C   0  0  0  0  0  0  0  0  0  0  0  0
  -20.3594   12.7119  -17.3942 C   0  0  0  0  0  0  0  0  0  0  0  0
  -19.3475   12.1288  -18.1187 C   0  0  0  0  0  0  0  0  0  0  0  0
  -18.8925   10.8950  -17.7316 C   0  0  0  0  0  0  0  0  0  0  0  0
  -19.4492   10.2405  -16.6106 C   0  0  0  0  0  0  0  0  0  0  0  0
  -17.9425   10.5476  -18.6141 N   0  0  0  0  0  0  0  0  0  0  0  0
  -17.7475   11.4692  -19.5451 C   0  0  0  0  0  0  0  0  0  0  0  0
  -16.9145   11.5142  -20.6336 C   0  0  0  0  0  0  0  0  0  0  0  0
  -16.9685   12.6330  -21.4580 C   0  0  0  0  0  0  0  0  0  0  0  0
  -17.8281   13.6693  -21.1939 C   0  0  0  0  0  0  0  0  0  0  0  0
  -18.6732   13.6008  -20.0672 C   0  0  0  0  0  0  0  0  0  0  0  0
  -18.6456   12.5086  -19.2428 C   0  0  0  0  0  0  0  0  0  0  0  0
  -17.4327    9.6207  -18.5293 H   0  0  0  0  0  0  0  0  0  0  0  0
  -19.2155    8.0808  -10.7838 C   0  0  0  0  0  0  0  0  0  0  0  0
  -19.9943    9.2719  -10.7332 N   0  0  0  0  0  0  0  0  0  0  0  0
  -21.3522    9.1058  -11.1817 C   0  0  0  0  0  0  0  0  0  0  0  0
  -21.6344    9.2841  -12.5876 C   0  0  0  0  0  0  0  0  0  0  0  0
  -20.6630   10.0228  -13.4106 N   0  0  0  0  0  0  0  0  0  0  0  0
  -19.4777   10.5003  -12.7924 C   0  0  0  0  0  0  0  0  0  0  0  0
  -19.3829   10.4316  -11.3078 C   0  0  0  0  0  0  0  0  0  0  0  0
  -21.0699   10.1794  -14.7484 C   0  0  0  0  0  0  0  0  0  0  0  0
  -22.2657    9.6471  -14.9625 O   0  0  0  0  0  0  0  0  0  0  0  0
  -19.4386   14.7783  -19.7201 C   0  0  0  0  0  0  0  0  0  0  0  0
  -18.7694   15.9122  -19.2767 C   0  0  0  0  0  0  0  0  0  0  0  0
  -19.4717   17.0812  -19.0611 C   0  0  0  0  0  0  0  0  0  0  0  0
  -20.8299   17.1516  -19.2764 C   0  0  0  0  0  0  0  0  0  0  0  0
  -21.4726   16.0186  -19.7151 C   0  0  0  0  0  0  0  0  0  0  0  0
  -20.7861   14.8322  -19.9383 C   0  0  0  0  0  0  0  0  0  0  0  0
  -21.4818   13.7286  -20.3773 F   0  0  0  0  0  0  0  0  0  0  0  0
  -15.9706   10.4778  -20.9965 C   0  0  0  0  0  0  0  0  0  0  0  0
  -15.0200   10.6627  -22.0504 N   0  0  0  0  0  0  0  0  0  0  0  0
  -15.9698    9.3829  -20.3848 O   0  0  0  0  0  0  0  0  0  0  0  0
  -14.0384   10.4004  -21.9052 H   0  0  0  0  0  0  0  0  0  0  0  0
  -15.3182   11.0580  -22.9552 H   0  0  0  0  0  0  0  0  0  0  0  0
 15 16  1  0  0  0
 16 17  1  0  0  0
 17 18  1  0  0  0
 18 19  1  0  0  0
 19 20  1  0  0  0
 20 21  1  0  0  0
 19 22  1  0  0  0
 22 23  2  0  0  0
 22  1  1  0  0  0
  1  2  2  0  0  0
  2  3  1  0  0  0
  3  4  2  0  0  0
  4  5  1  0  0  0
  5  6  2  0  0  0
  5  7  1  0  0  0
  7  8  1  0  0  0
  8  9  2  0  0  0
  9 10  1  0  0  0
 10 11  2  0  0  0
 11 12  1  0  0  0
 12 24  1  0  0  0
 24 25  2  0  0  0
 25 26  1  0  0  0
 26 27  2  0  0  0
 27 28  1  0  0  0
 28 29  2  0  0  0
 29 30  1  0  0  0
 12 13  2  0  0  0
  9 31  1  0  0  0
 31 32  1  0  0  0
 31 33  2  0  0  0
 21 16  1  0  0  0
  6  1  1  0  0  0
 13  8  1  0  0  0
 13  4  1  0  0  0
 29 24  1  0  0  0
  7 14  1  0  0  0
 32 34  1  0  0  0
 32 35  1  0  0  0
M  END
> <minimizedAffinity>
-9.55265

> <CNNscore>
0.8929858804

> <CNNaffinity>
6.9155778885

> <CNN_VS>
6.1755132675

> <CNNaffinity_variance>
0.0829339027

$$$$
[H]c1c([H])c([H])c(-c2c([H])c([H])c(C(=O)N([H])[H])c3c2c2c([H])c([H])c(C(=O)N4C([H])([H])C([H])([H])N(C([H])([H])[H])C([H])([H])C4([H])[H])c([H])c2n3[H])c(F)c1[H]


 35 39  0  0  0  0  0  0  0  0999 V2000
  -21.1199   14.8394  -18.0955 C   0  0  0  0  0  0  0  0  0  0  0  0
  -20.7879   15.6919  -19.1701 C   0  0  0  0  0  0  0  0  0  0  0  0
  -19.8339   15.3764  -20.1049 C   0  0  0  0  0  0  0  0  0  0  0  0
  -19.1524   14.1861  -20.0174 C   0  0  0  0  0  0  0  0  0  0  0  0
  -19.4533   13.3341  -18.9865 C   0  0  0  0  0  0  0  0  0  0  0  0
  -20.4388   13.6750  -18.0338 C   0  0  0  0  0  0  0  0  0  0  0  0
  -18.6795   12.2499  -19.1530 N   0  0  0  0  0  0  0  0  0  0  0  0
  -17.8968   12.3387  -20.2177 C   0  0  0  0  0  0  0  0  0  0  0  0
  -16.9902   11.4686  -20.7672 C   0  0  0  0  0  0  0  0  0  0  0  0
  -16.3363   11.8493  -21.9341 C   0  0  0  0  0  0  0  0  0  0  0  0
  -16.5845   13.0631  -22.5239 C   0  0  0  0  0  0  0  0  0  0  0  0
  -17.5193   13.9416  -21.9386 C   0  0  0  0  0  0  0  0  0  0  0  0
  -18.1822   13.5895  -20.7941 C   0  0  0  0  0  0  0  0  0  0  0  0
  -18.7296   11.4353  -18.4746 H   0  0  0  0  0  0  0  0  0  0  0  0
  -24.6833   12.7347  -13.8875 C   0  0  0  0  0  0  0  0  0  0  0  0
  -23.7818   13.7793  -13.5351 N   0  0  0  0  0  0  0  0  0  0  0  0
  -24.1582   15.0749  -14.0376 C   0  0  0  0  0  0  0  0  0  0  0  0
  -23.6922   15.4609  -15.3498 C   0  0  0  0  0  0  0  0  0  0  0  0
  -22.5440   14.7429  -15.9265 N   0  0  0  0  0  0  0  0  0  0  0  0
  -21.9654   13.6827  -15.1806 C   0  0  0  0  0  0  0  0  0  0  0  0
  -22.3971   13.5011  -13.7669 C   0  0  0  0  0  0  0  0  0  0  0  0
  -22.1473   15.2410  -17.1812 C   0  0  0  0  0  0  0  0  0  0  0  0
  -22.8860   16.2779  -17.5527 O   0  0  0  0  0  0  0  0  0  0  0  0
  -17.6298   15.2769  -22.4841 C   0  0  0  0  0  0  0  0  0  0  0  0
  -18.5337   15.5137  -23.5122 C   0  0  0  0  0  0  0  0  0  0  0  0
  -18.7409   16.8039  -23.9580 C   0  0  0  0  0  0  0  0  0  0  0  0
  -18.0685   17.8704  -23.4044 C   0  0  0  0  0  0  0  0  0  0  0  0
  -17.1788   17.6142  -22.3883 C   0  0  0  0  0  0  0  0  0  0  0  0
  -16.9548   16.3246  -21.9244 C   0  0  0  0  0  0  0  0  0  0  0  0
  -16.0518   16.1274  -20.9044 F   0  0  0  0  0  0  0  0  0  0  0  0
  -16.6546   10.1699  -20.2218 C   0  0  0  0  0  0  0  0  0  0  0  0
  -17.1203    9.7525  -18.9344 N   0  0  0  0  0  0  0  0  0  0  0  0
  -15.9384    9.3761  -20.8775 O   0  0  0  0  0  0  0  0  0  0  0  0
  -17.5233    8.8160  -18.8156 H   0  0  0  0  0  0  0  0  0  0  0  0
  -17.0518   10.3892  -18.1259 H   0  0  0  0  0  0  0  0  0  0  0  0
 15 16  1  0  0  0
 16 17  1  0  0  0
 17 18  1  0  0  0
 18 19  1  0  0  0
 19 20  1  0  0  0
 20 21  1  0  0  0
 19 22  1  0  0  0
 22 23  2  0  0  0
 22  1  1  0  0  0
  1  2  2  0  0  0
  2  3  1  0  0  0
  3  4  2  0  0  0
  4  5  1  0  0  0
  5  6  2  0  0  0
  5  7  1  0  0  0
  7  8  1  0  0  0
  8  9  2  0  0  0
  9 10  1  0  0  0
 10 11  2  0  0  0
 11 12  1  0  0  0
 12 24  1  0  0  0
 24 25  2  0  0  0
 25 26  1  0  0  0
 26 27  2  0  0  0
 27 28  1  0  0  0
 28 29  2  0  0  0
 29 30  1  0  0  0
 12 13  2  0  0  0
  9 31  1  0  0  0
 31 32  1  0  0  0
 31 33  2  0  0  0
 21 16  1  0  0  0
  6  1  1  0  0  0
 13  8  1  0  0  0
 13  4  1  0  0  0
 29 24  1  0  0  0
  7 14  1  0  0  0
 32 34  1  0  0  0
 32 35  1  0  0  0
M  END
> <minimizedAffinity>
-9.20889

> <CNNscore>
0.6855049133

> <CNNaffinity>
6.8331961632

> <CNN_VS>
4.6841893196

> <CNNaffinity_variance>
0.2170266211

$$$$
[H]c1c([H])c([H])c(-c2c([H])c([H])c(C(=O)N([H])[H])c3c2c2c([H])c([H])c(C(=O)N4C([H])([H])C([H])([H])N(C([H])([H])[H])C([H])([H])C4([H])[H])c([H])c2n3[H])c(F)c1[H]


 35 39  0  0  0  0  0  0  0  0999 V2000
  -18.7813   10.3110  -17.5387 C   0  0  0  0  0  0  0  0  0  0  0  0
  -19.4600   11.5273  -17.3114 C   0  0  0  0  0  0  0  0  0  0  0  0
  -19.3771   12.5984  -18.1655 C   0  0  0  0  0  0  0  0  0  0  0  0
  -18.6057   12.5152  -19.2999 C   0  0  0  0  0  0  0  0  0  0  0  0
  -17.9355   11.3461  -19.5512 C   0  0  0  0  0  0  0  0  0  0  0  0
  -18.0330   10.2536  -18.6614 C   0  0  0  0  0  0  0  0  0  0  0  0
  -17.2959   11.5195  -20.7187 N   0  0  0  0  0  0  0  0  0  0  0  0
  -17.5021   12.7188  -21.2416 C   0  0  0  0  0  0  0  0  0  0  0  0
  -17.0765   13.2976  -22.4099 C   0  0  0  0  0  0  0  0  0  0  0  0
  -17.5009   14.5906  -22.6965 C   0  0  0  0  0  0  0  0  0  0  0  0
  -18.3214   15.2762  -21.8366 C   0  0  0  0  0  0  0  0  0  0  0  0
  -18.7436   14.6605  -20.6403 C   0  0  0  0  0  0  0  0  0  0  0  0
  -18.3467   13.3864  -20.3365 C   0  0  0  0  0  0  0  0  0  0  0  0
  -16.7014   10.7451  -21.1346 H   0  0  0  0  0  0  0  0  0  0  0  0
  -21.5953    8.8766  -12.5528 C   0  0  0  0  0  0  0  0  0  0  0  0
  -21.8406    8.0808  -13.7081 N   0  0  0  0  0  0  0  0  0  0  0  0
  -20.7581    7.1967  -14.0534 C   0  0  0  0  0  0  0  0  0  0  0  0
  -19.7218    7.6945  -14.9289 C   0  0  0  0  0  0  0  0  0  0  0  0
  -20.0090    8.8787  -15.7545 N   0  0  0  0  0  0  0  0  0  0  0  0
  -21.2807    9.4971  -15.6307 C   0  0  0  0  0  0  0  0  0  0  0  0
  -22.3331    8.7894  -14.8500 C   0  0  0  0  0  0  0  0  0  0  0  0
  -18.9465    9.2375  -16.6044 C   0  0  0  0  0  0  0  0  0  0  0  0
  -17.9246    8.3995  -16.4921 O   0  0  0  0  0  0  0  0  0  0  0  0
  -19.4618   15.4676  -19.6783 C   0  0  0  0  0  0  0  0  0  0  0  0
  -18.7560   16.3724  -18.8950 C   0  0  0  0  0  0  0  0  0  0  0  0
  -19.4394   17.2364  -18.0629 C   0  0  0  0  0  0  0  0  0  0  0  0
  -20.8144   17.2236  -17.9894 C   0  0  0  0  0  0  0  0  0  0  0  0
  -21.4934   16.3208  -18.7726 C   0  0  0  0  0  0  0  0  0  0  0  0
  -20.8263   15.4425  -19.6166 C   0  0  0  0  0  0  0  0  0  0  0  0
  -21.5582   14.5596  -20.3778 F   0  0  0  0  0  0  0  0  0  0  0  0
  -16.2088   12.6625  -23.3797 C   0  0  0  0  0  0  0  0  0  0  0  0
  -16.3399   12.9129  -24.7827 N   0  0  0  0  0  0  0  0  0  0  0  0
  -15.3140   11.8692  -23.0016 O   0  0  0  0  0  0  0  0  0  0  0  0
  -15.5054   13.1104  -25.3468 H   0  0  0  0  0  0  0  0  0  0  0  0
  -17.2697   12.8951  -25.2288 H   0  0  0  0  0  0  0  0  0  0  0  0
 15 16  1  0  0  0
 16 17  1  0  0  0
 17 18  1  0  0  0
 18 19  1  0  0  0
 19 20  1  0  0  0
 20 21  1  0  0  0
 19 22  1  0  0  0
 22 23  2  0  0  0
 22  1  1  0  0  0
  1  2  2  0  0  0
  2  3  1  0  0  0
  3  4  2  0  0  0
  4  5  1  0  0  0
  5  6  2  0  0  0
  5  7  1  0  0  0
  7  8  1  0  0  0
  8  9  2  0  0  0
  9 10  1  0  0  0
 10 11  2  0  0  0
 11 12  1  0  0  0
 12 24  1  0  0  0
 24 25  2  0  0  0
 25 26  1  0  0  0
 26 27  2  0  0  0
 27 28  1  0  0  0
 28 29  2  0  0  0
 29 30  1  0  0  0
 12 13  2  0  0  0
  9 31  1  0  0  0
 31 32  1  0  0  0
 31 33  2  0  0  0
 21 16  1  0  0  0
  6  1  1  0  0  0
 13  8  1  0  0  0
 13  4  1  0  0  0
 29 24  1  0  0  0
  7 14  1  0  0  0
 32 34  1  0  0  0
 32 35  1  0  0  0
M  END
> <minimizedAffinity>
-9.95860

> <CNNscore>
0.4606170654

> <CNNaffinity>
6.7842073441

> <CNN_VS>
3.1249215603

> <CNNaffinity_variance>
0.2752112448

$$$$
[H]c1c([H])c([H])c(-c2c([H])c([H])c(C(=O)N([H])[H])c3c2c2c([H])c([H])c(C(=O)N4C([H])([H])C([H])([H])N(C([H])([H])[H])C([H])([H])C4([H])[H])c([H])c2n3[H])c(F)c1[H]


 35 39  0  0  0  0  0  0  0  0999 V2000
  -19.1612   16.2595  -17.0656 C   0  0  0  0  0  0  0  0  0  0  0  0
  -19.1283   16.8584  -18.3430 C   0  0  0  0  0  0  0  0  0  0  0  0
  -18.7161   16.1908  -19.4691 C   0  0  0  0  0  0  0  0  0  0  0  0
  -18.3094   14.8809  -19.3819 C   0  0  0  0  0  0  0  0  0  0  0  0
  -18.3320   14.2691  -18.1553 C   0  0  0  0  0  0  0  0  0  0  0  0
  -18.7600   14.9714  -17.0072 C   0  0  0  0  0  0  0  0  0  0  0  0
  -17.9241   13.0058  -18.3547 N   0  0  0  0  0  0  0  0  0  0  0  0
  -17.6367   12.7551  -19.6231 C   0  0  0  0  0  0  0  0  0  0  0  0
  -17.2221   11.6156  -20.2638 C   0  0  0  0  0  0  0  0  0  0  0  0
  -17.0328   11.6664  -21.6406 C   0  0  0  0  0  0  0  0  0  0  0  0
  -17.2506   12.8233  -22.3455 C   0  0  0  0  0  0  0  0  0  0  0  0
  -17.6744   13.9826  -21.6639 C   0  0  0  0  0  0  0  0  0  0  0  0
  -17.8750   13.9590  -20.3102 C   0  0  0  0  0  0  0  0  0  0  0  0
  -17.8574   12.3208  -17.5469 H   0  0  0  0  0  0  0  0  0  0  0  0
  -24.1166   18.0367  -14.3971 C   0  0  0  0  0  0  0  0  0  0  0  0
  -23.1955   17.2580  -13.6400 N   0  0  0  0  0  0  0  0  0  0  0  0
  -22.0141   17.9743  -13.2350 C   0  0  0  0  0  0  0  0  0  0  0  0
  -20.8795   17.9829  -14.1297 C   0  0  0  0  0  0  0  0  0  0  0  0
  -20.8029   16.9508  -15.1764 N   0  0  0  0  0  0  0  0  0  0  0  0
  -21.8627   16.0121  -15.2793 C   0  0  0  0  0  0  0  0  0  0  0  0
  -22.8770   15.9753  -14.1895 C   0  0  0  0  0  0  0  0  0  0  0  0
  -19.6300   17.0266  -15.9500 C   0  0  0  0  0  0  0  0  0  0  0  0
  -18.8329   18.0030  -15.5373 O   0  0  0  0  0  0  0  0  0  0  0  0
  -17.7271   15.2243  -22.4044 C   0  0  0  0  0  0  0  0  0  0  0  0
  -18.8927   15.5568  -23.0832 C   0  0  0  0  0  0  0  0  0  0  0  0
  -19.0032   16.7921  -23.6898 C   0  0  0  0  0  0  0  0  0  0  0  0
  -17.9783   17.7103  -23.6381 C   0  0  0  0  0  0  0  0  0  0  0  0
  -16.8338   17.3615  -22.9614 C   0  0  0  0  0  0  0  0  0  0  0  0
  -16.7012   16.1245  -22.3442 C   0  0  0  0  0  0  0  0  0  0  0  0
  -15.5318   15.8293  -21.6808 F   0  0  0  0  0  0  0  0  0  0  0  0
  -16.9610   10.3489  -19.6127 C   0  0  0  0  0  0  0  0  0  0  0  0
  -17.6865    9.9386  -18.4491 N   0  0  0  0  0  0  0  0  0  0  0  0
  -16.0808    9.5774  -20.0632 O   0  0  0  0  0  0  0  0  0  0  0  0
  -18.0640    8.9858  -18.3917 H   0  0  0  0  0  0  0  0  0  0  0  0
  -17.8307   10.5967  -17.6682 H   0  0  0  0  0  0  0  0  0  0  0  0
 15 16  1  0  0  0
 16 17  1  0  0  0
 17 18  1  0  0  0
 18 19  1  0  0  0
 19 20  1  0  0  0
 20 21  1  0  0  0
 19 22  1  0  0  0
 22 23  2  0  0  0
 22  1  1  0  0  0
  1  2  2  0  0  0
  2  3  1  0  0  0
  3  4  2  0  0  0
  4  5  1  0  0  0
  5  6  2  0  0  0
  5  7  1  0  0  0
  7  8  1  0  0  0
  8  9  2  0  0  0
  9 10  1  0  0  0
 10 11  2  0  0  0
 11 12  1  0  0  0
 12 24  1  0  0  0
 24 25  2  0  0  0
 25 26  1  0  0  0
 26 27  2  0  0  0
 27 28  1  0  0  0
 28 29  2  0  0  0
 29 30  1  0  0  0
 12 13  2  0  0  0
  9 31  1  0  0  0
 31 32  1  0  0  0
 31 33  2  0  0  0
 21 16  1  0  0  0
  6  1  1  0  0  0
 13  8  1  0  0  0
 13  4  1  0  0  0
 29 24  1  0  0  0
  7 14  1  0  0  0
 32 34  1  0  0  0
 32 35  1  0  0  0
M  END
> <minimizedAffinity>
-9.54561

> <CNNscore>
0.4539793432

> <CNNaffinity>
6.5443673134

> <CNN_VS>
2.9710075855

> <CNNaffinity_variance>
0.2814801335

$$$$
[H]c1c([H])c([H])c(-c2c([H])c([H])c(C(=O)N([H])[H])c3c2c2c([H])c([H])c(C(=O)N4C([H])([H])C([H])([H])N(C([H])([H])[H])C([H])([H])C4([H])[H])c([H])c2n3[H])c(F)c1[H]


 35 39  0  0  0  0  0  0  0  0999 V2000
  -19.7226   16.8335  -21.3838 C   0  0  0  0  0  0  0  0  0  0  0  0
  -19.1242   16.6794  -22.6525 C   0  0  0  0  0  0  0  0  0  0  0  0
  -18.3120   15.6196  -22.9701 C   0  0  0  0  0  0  0  0  0  0  0  0
  -18.0486   14.6498  -22.0325 C   0  0  0  0  0  0  0  0  0  0  0  0
  -18.6169   14.7689  -20.7907 C   0  0  0  0  0  0  0  0  0  0  0  0
  -19.4509   15.8660  -20.4817 C   0  0  0  0  0  0  0  0  0  0  0  0
  -18.2294   13.6901  -20.0919 N   0  0  0  0  0  0  0  0  0  0  0  0
  -17.4487   12.8807  -20.7916 C   0  0  0  0  0  0  0  0  0  0  0  0
  -16.8630   11.6786  -20.4872 C   0  0  0  0  0  0  0  0  0  0  0  0
  -16.1099   11.0457  -21.4703 C   0  0  0  0  0  0  0  0  0  0  0  0
  -15.9502   11.6049  -22.7131 C   0  0  0  0  0  0  0  0  0  0  0  0
  -16.5604   12.8430  -23.0012 C   0  0  0  0  0  0  0  0  0  0  0  0
  -17.3127   13.4843  -22.0546 C   0  0  0  0  0  0  0  0  0  0  0  0
  -18.5445   13.5489  -19.0884 H   0  0  0  0  0  0  0  0  0  0  0  0
  -21.2951   20.6884  -17.2002 C   0  0  0  0  0  0  0  0  0  0  0  0
  -20.7281   21.2035  -18.4007 N   0  0  0  0  0  0  0  0  0  0  0  0
  -21.6151   21.1637  -19.5340 C   0  0  0  0  0  0  0  0  0  0  0  0
  -21.6266   19.9721  -20.3514 C   0  0  0  0  0  0  0  0  0  0  0  0
  -20.4785   19.0544  -20.2711 N   0  0  0  0  0  0  0  0  0  0  0  0
  -19.4257   19.3656  -19.3712 C   0  0  0  0  0  0  0  0  0  0  0  0
  -19.4255   20.7086  -18.7276 C   0  0  0  0  0  0  0  0  0  0  0  0
  -20.5765   17.9600  -21.1500 C   0  0  0  0  0  0  0  0  0  0  0  0
  -21.6793   18.0183  -21.8844 O   0  0  0  0  0  0  0  0  0  0  0  0
  -16.2319   13.4862  -24.2547 C   0  0  0  0  0  0  0  0  0  0  0  0
  -17.1236   13.3923  -25.3159 C   0  0  0  0  0  0  0  0  0  0  0  0
  -16.8850   14.1024  -26.4757 C   0  0  0  0  0  0  0  0  0  0  0  0
  -15.7760   14.9079  -26.6077 C   0  0  0  0  0  0  0  0  0  0  0  0
  -14.9065   14.9868  -25.5459 C   0  0  0  0  0  0  0  0  0  0  0  0
  -15.1269   14.2812  -24.3702 C   0  0  0  0  0  0  0  0  0  0  0  0
  -14.2220   14.3982  -23.3397 F   0  0  0  0  0  0  0  0  0  0  0  0
  -16.9665   11.0083  -19.2079 C   0  0  0  0  0  0  0  0  0  0  0  0
  -15.8051   10.6194  -18.4673 N   0  0  0  0  0  0  0  0  0  0  0  0
  -18.0927   10.7521  -18.7190 O   0  0  0  0  0  0  0  0  0  0  0  0
  -15.7491   10.8198  -17.4622 H   0  0  0  0  0  0  0  0  0  0  0  0
  -15.0249   10.1381  -18.9399 H   0  0  0  0  0  0  0  0  0  0  0  0
 15 16  1  0  0  0
 16 17  1  0  0  0
 17 18  1  0  0  0
 18 19  1  0  0  0
 19 20  1  0  0  0
 20 21  1  0  0  0
 19 22  1  0  0  0
 22 23  2  0  0  0
 22  1  1  0  0  0
  1  2  2  0  0  0
  2  3  1  0  0  0
  3  4  2  0  0  0
  4  5  1  0  0  0
  5  6  2  0  0  0
  5  7  1  0  0  0
  7  8  1  0  0  0
  8  9  2  0  0  0
  9 10  1  0  0  0
 10 11  2  0  0  0
 11 12  1  0  0  0
 12 24  1  0  0  0
 24 25  2  0  0  0
 25 26  1  0  0  0
 26 27  2  0  0  0
 27 28  1  0  0  0
 28 29  2  0  0  0
 29 30  1  0  0  0
 12 13  2  0  0  0
  9 31  1  0  0  0
 31 32  1  0  0  0
 31 33  2  0  0  0
 21 16  1  0  0  0
  6  1  1  0  0  0
 13  8  1  0  0  0
 13  4  1  0  0  0
 29 24  1  0  0  0
  7 14  1  0  0  0
 32 34  1  0  0  0
 32 35  1  0  0  0
M  END
> <minimizedAffinity>
-9.78735

> <CNNscore>
0.4209967256

> <CNNaffinity>
6.8601775169

> <CNN_VS>
2.8881123066

> <CNNaffinity_variance>
0.2213734090

$$$$
[H]c1c([H])c([H])c(-c2c([H])c([H])c(C(=O)N([H])[H])c3c2c2c([H])c([H])c(C(=O)N4C([H])([H])C([H])([H])N(C([H])([H])[H])C([H])([H])C4([H])[H])c([H])c2n3[H])c(F)c1[H]


 35 39  0  0  0  0  0  0  0  0999 V2000
  -18.7649   10.3636  -17.5915 C   0  0  0  0  0  0  0  0  0  0  0  0
  -19.4882   11.5640  -17.4261 C   0  0  0  0  0  0  0  0  0  0  0  0
  -19.4002   12.6147  -18.3047 C   0  0  0  0  0  0  0  0  0  0  0  0
  -18.5786   12.5259  -19.4029 C   0  0  0  0  0  0  0  0  0  0  0  0
  -17.8641   11.3716  -19.5938 C   0  0  0  0  0  0  0  0  0  0  0  0
  -17.9676   10.3001  -18.6795 C   0  0  0  0  0  0  0  0  0  0  0  0
  -17.1802   11.5343  -20.7374 N   0  0  0  0  0  0  0  0  0  0  0  0
  -17.3989   12.7128  -21.3010 C   0  0  0  0  0  0  0  0  0  0  0  0
  -16.9407   13.2740  -22.4655 C   0  0  0  0  0  0  0  0  0  0  0  0
  -17.3902   14.5455  -22.8047 C   0  0  0  0  0  0  0  0  0  0  0  0
  -18.2668   15.2277  -21.9992 C   0  0  0  0  0  0  0  0  0  0  0  0
  -18.7218   14.6305  -20.8056 C   0  0  0  0  0  0  0  0  0  0  0  0
  -18.3010   13.3774  -20.4508 C   0  0  0  0  0  0  0  0  0  0  0  0
  -16.5458   10.7679  -21.1067 H   0  0  0  0  0  0  0  0  0  0  0  0
  -21.5826    9.0532  -12.5736 C   0  0  0  0  0  0  0  0  0  0  0  0
  -21.8378    8.2375  -13.7127 N   0  0  0  0  0  0  0  0  0  0  0  0
  -20.7645    7.3365  -14.0428 C   0  0  0  0  0  0  0  0  0  0  0  0
  -19.7252    7.8073  -14.9296 C   0  0  0  0  0  0  0  0  0  0  0  0
  -20.0027    8.9780  -15.7776 N   0  0  0  0  0  0  0  0  0  0  0  0
  -21.2682    9.6108  -15.6635 C   0  0  0  0  0  0  0  0  0  0  0  0
  -22.3257    8.9285  -14.8673 C   0  0  0  0  0  0  0  0  0  0  0  0
  -18.9386    9.3100  -16.6362 C   0  0  0  0  0  0  0  0  0  0  0  0
  -17.9245    8.4646  -16.5094 O   0  0  0  0  0  0  0  0  0  0  0  0
  -19.5041   15.4399  -19.8969 C   0  0  0  0  0  0  0  0  0  0  0  0
  -20.8904   15.4015  -19.9811 C   0  0  0  0  0  0  0  0  0  0  0  0
  -21.6520   16.0694  -19.0430 C   0  0  0  0  0  0  0  0  0  0  0  0
  -21.0670   16.7784  -18.0178 C   0  0  0  0  0  0  0  0  0  0  0  0
  -19.6942   16.8035  -17.9527 C   0  0  0  0  0  0  0  0  0  0  0  0
  -18.9087   16.1391  -18.8856 C   0  0  0  0  0  0  0  0  0  0  0  0
  -17.5383   16.1993  -18.7711 F   0  0  0  0  0  0  0  0  0  0  0  0
  -16.0137   12.6408  -23.3801 C   0  0  0  0  0  0  0  0  0  0  0  0
  -15.9999   12.9587  -24.7756 N   0  0  0  0  0  0  0  0  0  0  0  0
  -15.1947   11.7893  -22.9595 O   0  0  0  0  0  0  0  0  0  0  0  0
  -15.1077   13.1401  -25.2496 H   0  0  0  0  0  0  0  0  0  0  0  0
  -16.8830   13.0056  -25.3063 H   0  0  0  0  0  0  0  0  0  0  0  0
 15 16  1  0  0  0
 16 17  1  0  0  0
 17 18  1  0  0  0
 18 19  1  0  0  0
 19 20  1  0  0  0
 20 21  1  0  0  0
 19 22  1  0  0  0
 22 23  2  0  0  0
 22  1  1  0  0  0
  1  2  2  0  0  0
  2  3  1  0  0  0
  3  4  2  0  0  0
  4  5  1  0  0  0
  5  6  2  0  0  0
  5  7  1  0  0  0
  7  8  1  0  0  0
  8  9  2  0  0  0
  9 10  1  0  0  0
 10 11  2  0  0  0
 11 12  1  0  0  0
 12 24  1  0  0  0
 24 25  2  0  0  0
 25 26  1  0  0  0
 26 27  2  0  0  0
 27 28  1  0  0  0
 28 29  2  0  0  0
 29 30  1  0  0  0
 12 13  2  0  0  0
  9 31  1  0  0  0
 31 32  1  0  0  0
 31 33  2  0  0  0
 21 16  1  0  0  0
  6  1  1  0  0  0
 13  8  1  0  0  0
 13  4  1  0  0  0
 29 24  1  0  0  0
  7 14  1  0  0  0
 32 34  1  0  0  0
 32 35  1  0  0  0
M  END
> <minimizedAffinity>
-10.04986

> <CNNscore>
0.3864589632

> <CNNaffinity>
6.7320008278

> <CNN_VS>
2.6016421318

> <CNNaffinity_variance>
0.3107579947

$$$$
[H]c1nc(N([H])[H])c([H])c(-n2c(N([H])c3c([H])c(N([H])C(=O)c4c([H])c(N5C([H])([H])C([H])([H])N(C([H])([H])[H])C([H])([H])C5([H])[H])c([H])c(C(F)(F)F)c4[H])c([H])c([H])c3C([H])([H])[H])nc3c([H])c([H])c([H])c([H])c32)n1


 48 53  0  0  0  0  0  0  0  0999 V2000
  -17.9856   11.8914  -18.8849 C   0  0  0  0  0  0  0  0  0  0  0  0
  -16.9758   10.8942  -18.8951 C   0  0  0  0  0  0  0  0  0  0  0  0
  -16.2181   10.6855  -20.0127 C   0  0  0  0  0  0  0  0  0  0  0  0
  -16.3994   11.4205  -21.1507 C   0  0  0  0  0  0  0  0  0  0  0  0
  -15.5451   11.1507  -22.3332 C   0  0  0  0  0  0  0  0  0  0  0  0
  -17.3858   12.4163  -21.1865 C   0  0  0  0  0  0  0  0  0  0  0  0
  -18.1505   12.6172  -20.0368 C   0  0  0  0  0  0  0  0  0  0  0  0
  -19.5050   11.1508  -16.9957 C   0  0  0  0  0  0  0  0  0  0  0  0
  -19.5930    9.9542  -17.3484 O   0  0  0  0  0  0  0  0  0  0  0  0
  -18.7581   12.0750  -17.7097 N   0  0  0  0  0  0  0  0  0  0  0  0
  -18.7729   13.0732  -17.3039 H   0  0  0  0  0  0  0  0  0  0  0  0
  -21.8496   12.9554  -14.6838 C   0  0  0  0  0  0  0  0  0  0  0  0
  -21.1164   12.5937  -15.8042 C   0  0  0  0  0  0  0  0  0  0  0  0
  -20.2501   11.5292  -15.7604 C   0  0  0  0  0  0  0  0  0  0  0  0
  -20.1269   10.8341  -14.5858 C   0  0  0  0  0  0  0  0  0  0  0  0
  -20.8295   11.1479  -13.4408 C   0  0  0  0  0  0  0  0  0  0  0  0
  -21.6938   12.2183  -13.5054 C   0  0  0  0  0  0  0  0  0  0  0  0
  -22.3054   17.8254  -13.2888 C   0  0  0  0  0  0  0  0  0  0  0  0
  -22.9664   16.7179  -13.9761 N   0  0  0  0  0  0  0  0  0  0  0  0
  -22.2937   16.3264  -15.1539 C   0  0  0  0  0  0  0  0  0  0  0  0
  -22.6792   15.0176  -15.7646 C   0  0  0  0  0  0  0  0  0  0  0  0
  -22.7161   14.0578  -14.6533 N   0  0  0  0  0  0  0  0  0  0  0  0
  -23.6529   14.3550  -13.6149 C   0  0  0  0  0  0  0  0  0  0  0  0
  -23.4660   15.7492  -13.0800 C   0  0  0  0  0  0  0  0  0  0  0  0
  -20.6838   10.3912  -12.1671 C   0  0  0  0  0  0  0  0  0  0  0  0
  -19.7019   10.9900  -11.3735 F   0  0  0  0  0  0  0  0  0  0  0  0
  -20.1588    9.1404  -12.5086 F   0  0  0  0  0  0  0  0  0  0  0  0
  -21.8637   10.2396  -11.4845 F   0  0  0  0  0  0  0  0  0  0  0  0
  -17.4959   13.1732  -22.3712 N   0  0  0  0  0  0  0  0  0  0  0  0
  -17.2045   12.7174  -23.2629 H   0  0  0  0  0  0  0  0  0  0  0  0
  -17.9624   14.5134  -22.3782 C   0  0  0  0  0  0  0  0  0  0  0  0
  -18.9519   15.1250  -21.7291 N   0  0  0  0  0  0  0  0  0  0  0  0
  -19.0644   16.4154  -22.0442 C   0  0  0  0  0  0  0  0  0  0  0  0
  -19.9012   17.4251  -21.6560 C   0  0  0  0  0  0  0  0  0  0  0  0
  -19.7745   18.7184  -22.1786 C   0  0  0  0  0  0  0  0  0  0  0  0
  -18.7909   18.9776  -23.1005 C   0  0  0  0  0  0  0  0  0  0  0  0
  -17.9410   17.9593  -23.4980 C   0  0  0  0  0  0  0  0  0  0  0  0
  -18.0755   16.6740  -22.9697 C   0  0  0  0  0  0  0  0  0  0  0  0
  -17.4225   15.5122  -23.1545 N   0  0  0  0  0  0  0  0  0  0  0  0
  -16.3182   15.3356  -24.0007 C   0  0  0  0  0  0  0  0  0  0  0  0
  -16.4253   15.6329  -25.3603 C   0  0  0  0  0  0  0  0  0  0  0  0
  -15.3023   15.4726  -26.1723 C   0  0  0  0  0  0  0  0  0  0  0  0
  -15.3619   15.7667  -27.5625 N   0  0  0  0  0  0  0  0  0  0  0  0
  -14.1224   15.0409  -25.6775 N   0  0  0  0  0  0  0  0  0  0  0  0
  -14.0534   14.7638  -24.3672 C   0  0  0  0  0  0  0  0  0  0  0  0
  -15.1242   14.9201  -23.6141 N   0  0  0  0  0  0  0  0  0  0  0  0
  -16.2620   15.8992  -28.0689 H   0  0  0  0  0  0  0  0  0  0  0  0
  -14.4805   15.8597  -28.1029 H   0  0  0  0  0  0  0  0  0  0  0  0
 18 19  1  0  0  0
 19 20  1  0  0  0
 20 21  1  0  0  0
 21 22  1  0  0  0
 22 23  1  0  0  0
 23 24  1  0  0  0
 22 12  1  0  0  0
 12 13  2  0  0  0
 13 14  1  0  0  0
 14 15  2  0  0  0
 15 16  1  0  0  0
 16 17  2  0  0  0
 16 25  1  0  0  0
 25 26  1  0  0  0
 25 27  1  0  0  0
 25 28  1  0  0  0
 14  8  1  0  0  0
  8  9  2  0  0  0
  8 10  1  0  0  0
 10  1  1  0  0  0
  1  2  2  0  0  0
  2  3  1  0  0  0
  3  4  2  0  0  0
  4  5  1  0  0  0
  4  6  1  0  0  0
  6 29  1  0  0  0
 29 31  1  0  0  0
 31 32  2  0  0  0
 32 33  1  0  0  0
 33 34  2  0  0  0
 34 35  1  0  0  0
 35 36  2  0  0  0
 36 37  1  0  0  0
 37 38  2  0  0  0
 38 39  1  0  0  0
 39 40  1  0  0  0
 40 41  2  0  0  0
 41 42  1  0  0  0
 42 43  1  0  0  0
 42 44  2  0  0  0
 44 45  1  0  0  0
 45 46  2  0  0  0
  6  7  2  0  0  0
 24 19  1  0  0  0
 17 12  1  0  0  0
  7  1  1  0  0  0
 39 31  1  0  0  0
 46 40  1  0  0  0
 38 33  1  0  0  0
 10 11  1  0  0  0
 29 30  1  0  0  0
 43 47  1  0  0  0
 43 48  1  0  0  0
M  END
> <minimizedAffinity>
-9.90971

> <CNNscore>
0.1306353658

> <CNNaffinity>
6.9902558327

> <CNN_VS>
0.9131746292

> <CNNaffinity_variance>
0.2614423633

$$$$
[H]c1nc(N([H])[H])c([H])c(-n2c(N([H])c3c([H])c(N([H])C(=O)c4c([H])c(N5C([H])([H])C([H])([H])N(C([H])([H])[H])C([H])([H])C5([H])[H])c([H])c(C(F)(F)F)c4[H])c([H])c([H])c3C([H])([H])[H])nc3c([H])c([H])c([H])c([H])c32)n1


 48 53  0  0  0  0  0  0  0  0999 V2000
  -17.9154   11.3399  -19.3949 C   0  0  0  0  0  0  0  0  0  0  0  0
  -16.7248   10.5679  -19.4213 C   0  0  0  0  0  0  0  0  0  0  0  0
  -15.8733   10.6421  -20.4873 C   0  0  0  0  0  0  0  0  0  0  0  0
  -16.1306   11.4537  -21.5566 C   0  0  0  0  0  0  0  0  0  0  0  0
  -15.1683   11.4949  -22.6850 C   0  0  0  0  0  0  0  0  0  0  0  0
  -17.2951   12.2342  -21.5739 C   0  0  0  0  0  0  0  0  0  0  0  0
  -18.1539   12.1472  -20.4775 C   0  0  0  0  0  0  0  0  0  0  0  0
  -19.1608   12.2027  -17.3624 C   0  0  0  0  0  0  0  0  0  0  0  0
  -18.7384   13.3778  -17.4285 O   0  0  0  0  0  0  0  0  0  0  0  0
  -18.7796   11.2317  -18.2755 N   0  0  0  0  0  0  0  0  0  0  0  0
  -19.2083   10.2586  -18.1006 H   0  0  0  0  0  0  0  0  0  0  0  0
  -20.9680   10.3273  -14.6577 C   0  0  0  0  0  0  0  0  0  0  0  0
  -20.1293   10.6346  -15.7189 C   0  0  0  0  0  0  0  0  0  0  0  0
  -20.1007   11.9031  -16.2438 C   0  0  0  0  0  0  0  0  0  0  0  0
  -20.9188   12.8563  -15.6961 C   0  0  0  0  0  0  0  0  0  0  0  0
  -21.7728   12.6086  -14.6414 C   0  0  0  0  0  0  0  0  0  0  0  0
  -21.7862   11.3304  -14.1284 C   0  0  0  0  0  0  0  0  0  0  0  0
  -21.9848    5.4523  -15.6930 C   0  0  0  0  0  0  0  0  0  0  0  0
  -21.5472    6.3814  -14.6533 N   0  0  0  0  0  0  0  0  0  0  0  0
  -20.2975    6.9727  -14.9394 C   0  0  0  0  0  0  0  0  0  0  0  0
  -19.8971    8.1632  -14.1292 C   0  0  0  0  0  0  0  0  0  0  0  0
  -21.0742    9.0415  -14.1075 N   0  0  0  0  0  0  0  0  0  0  0  0
  -22.2497    8.4800  -13.5184 C   0  0  0  0  0  0  0  0  0  0  0  0
  -22.6088    7.1595  -14.1447 C   0  0  0  0  0  0  0  0  0  0  0  0
  -22.6632   13.6489  -14.0574 C   0  0  0  0  0  0  0  0  0  0  0  0
  -22.6108   13.5844  -12.6625 F   0  0  0  0  0  0  0  0  0  0  0  0
  -23.9715   13.2793  -14.3870 F   0  0  0  0  0  0  0  0  0  0  0  0
  -22.3984   14.9139  -14.5162 F   0  0  0  0  0  0  0  0  0  0  0  0
  -17.4844   13.0864  -22.6813 N   0  0  0  0  0  0  0  0  0  0  0  0
  -17.2889   12.6961  -23.6285 H   0  0  0  0  0  0  0  0  0  0  0  0
  -17.9043   14.4348  -22.5419 C   0  0  0  0  0  0  0  0  0  0  0  0
  -18.8474   15.0110  -21.7982 N   0  0  0  0  0  0  0  0  0  0  0  0
  -18.9269   16.3287  -21.9842 C   0  0  0  0  0  0  0  0  0  0  0  0
  -19.7134   17.3214  -21.4682 C   0  0  0  0  0  0  0  0  0  0  0  0
  -19.5615   18.6546  -21.8699 C   0  0  0  0  0  0  0  0  0  0  0  0
  -18.6043   18.9712  -22.8016 C   0  0  0  0  0  0  0  0  0  0  0  0
  -17.8053   17.9704  -23.3281 C   0  0  0  0  0  0  0  0  0  0  0  0
  -17.9646   16.6448  -22.9198 C   0  0  0  0  0  0  0  0  0  0  0  0
  -17.3593   15.4867  -23.2405 N   0  0  0  0  0  0  0  0  0  0  0  0
  -16.2939   15.3587  -24.1433 C   0  0  0  0  0  0  0  0  0  0  0  0
  -16.4933   15.6169  -25.5005 C   0  0  0  0  0  0  0  0  0  0  0  0
  -15.4083   15.5071  -26.3705 C   0  0  0  0  0  0  0  0  0  0  0  0
  -15.5619   15.7644  -27.7609 N   0  0  0  0  0  0  0  0  0  0  0  0
  -14.1785   15.1606  -25.9338 N   0  0  0  0  0  0  0  0  0  0  0  0
  -14.0209   14.9190  -24.6242 C   0  0  0  0  0  0  0  0  0  0  0  0
  -15.0568   15.0267  -23.8157 N   0  0  0  0  0  0  0  0  0  0  0  0
  -16.4947   15.8293  -28.2187 H   0  0  0  0  0  0  0  0  0  0  0  0
  -14.7188   15.8988  -28.3514 H   0  0  0  0  0  0  0  0  0  0  0  0
 18 19  1  0  0  0
 19 20  1  0  0  0
 20 21  1  0  0  0
 21 22  1  0  0  0
 22 23  1  0  0  0
 23 24  1  0  0  0
 22 12  1  0  0  0
 12 13  2  0  0  0
 13 14  1  0  0  0
 14 15  2  0  0  0
 15 16  1  0  0  0
 16 17  2  0  0  0
 16 25  1  0  0  0
 25 26  1  0  0  0
 25 27  1  0  0  0
 25 28  1  0  0  0
 14  8  1  0  0  0
  8  9  2  0  0  0
  8 10  1  0  0  0
 10  1  1  0  0  0
  1  2  2  0  0  0
  2  3  1  0  0  0
  3  4  2  0  0  0
  4  5  1  0  0  0
  4  6  1  0  0  0
  6 29  1  0  0  0
 29 31  1  0  0  0
 31 32  2  0  0  0
 32 33  1  0  0  0
 33 34  2  0  0  0
 34 35  1  0  0  0
 35 36  2  0  0  0
 36 37  1  0  0  0
 37 38  2  0  0  0
 38 39  1  0  0  0
 39 40  1  0  0  0
 40 41  2  0  0  0
 41 42  1  0  0  0
 42 43  1  0  0  0
 42 44  2  0  0  0
 44 45  1  0  0  0
 45 46  2  0  0  0
  6  7  2  0  0  0
 24 19  1  0  0  0
 17 12  1  0  0  0
  7  1  1  0  0  0
 39 31  1  0  0  0
 46 40  1  0  0  0
 38 33  1  0  0  0
 10 11  1  0  0  0
 29 30  1  0  0  0
 43 47  1  0  0  0
 43 48  1  0  0  0
M  END
> <minimizedAffinity>
-9.91173

> <CNNscore>
0.1293053031

> <CNNaffinity>
6.8084626198

> <CNN_VS>
0.8803703189

> <CNNaffinity_variance>
0.5729991794

$$$$
[H]c1nc(N([H])[H])c([H])c(-n2c(N([H])c3c([H])c(N([H])C(=O)c4c([H])c(N5C([H])([H])C([H])([H])N(C([H])([H])[H])C([H])([H])C5([H])[H])c([H])c(C(F)(F)F)c4[H])c([H])c([H])c3C([H])([H])[H])nc3c([H])c([H])c([H])c([H])c32)n1


 48 53  0  0  0  0  0  0  0  0999 V2000
  -17.9073   11.6636  -18.9173 C   0  0  0  0  0  0  0  0  0  0  0  0
  -16.8389   10.7314  -18.9790 C   0  0  0  0  0  0  0  0  0  0  0  0
  -16.0962   10.6018  -20.1184 C   0  0  0  0  0  0  0  0  0  0  0  0
  -16.3488   11.3562  -21.2299 C   0  0  0  0  0  0  0  0  0  0  0  0
  -15.5075   11.1734  -22.4381 C   0  0  0  0  0  0  0  0  0  0  0  0
  -17.3948   12.2896  -21.2147 C   0  0  0  0  0  0  0  0  0  0  0  0
  -18.1433   12.4101  -20.0432 C   0  0  0  0  0  0  0  0  0  0  0  0
  -19.3191   10.7741  -17.0089 C   0  0  0  0  0  0  0  0  0  0  0  0
  -19.3255    9.5812  -17.3844 O   0  0  0  0  0  0  0  0  0  0  0  0
  -18.6618   11.7656  -17.7207 N   0  0  0  0  0  0  0  0  0  0  0  0
  -18.7415   12.7519  -17.2939 H   0  0  0  0  0  0  0  0  0  0  0  0
  -20.4133   10.6185  -13.4205 C   0  0  0  0  0  0  0  0  0  0  0  0
  -19.7674   10.3491  -14.6180 C   0  0  0  0  0  0  0  0  0  0  0  0
  -20.0595   11.0712  -15.7488 C   0  0  0  0  0  0  0  0  0  0  0  0
  -21.0026   12.0620  -15.6667 C   0  0  0  0  0  0  0  0  0  0  0  0
  -21.6768   12.3739  -14.5043 C   0  0  0  0  0  0  0  0  0  0  0  0
  -21.3689   11.6388  -13.3809 C   0  0  0  0  0  0  0  0  0  0  0  0
  -17.2925   10.0168   -9.4494 C   0  0  0  0  0  0  0  0  0  0  0  0
  -18.5580    9.5906  -10.0431 N   0  0  0  0  0  0  0  0  0  0  0  0
  -19.5088   10.6321  -10.1093 C   0  0  0  0  0  0  0  0  0  0  0  0
  -20.7081   10.4159  -10.9748 C   0  0  0  0  0  0  0  0  0  0  0  0
  -20.1905    9.8880  -12.2440 N   0  0  0  0  0  0  0  0  0  0  0  0
  -19.4820    8.6496  -12.1517 C   0  0  0  0  0  0  0  0  0  0  0  0
  -18.3732    8.7180  -11.1365 C   0  0  0  0  0  0  0  0  0  0  0  0
  -22.7051   13.4475  -14.4263 C   0  0  0  0  0  0  0  0  0  0  0  0
  -22.6263   14.0857  -13.1857 F   0  0  0  0  0  0  0  0  0  0  0  0
  -23.9476   12.8048  -14.4235 F   0  0  0  0  0  0  0  0  0  0  0  0
  -22.6376   14.3439  -15.4621 F   0  0  0  0  0  0  0  0  0  0  0  0
  -17.5788   13.0716  -22.3737 N   0  0  0  0  0  0  0  0  0  0  0  0
  -17.3774   12.6238  -23.2938 H   0  0  0  0  0  0  0  0  0  0  0  0
  -18.0009   14.4253  -22.3201 C   0  0  0  0  0  0  0  0  0  0  0  0
  -18.9784   15.0372  -21.6532 N   0  0  0  0  0  0  0  0  0  0  0  0
  -19.0444   16.3445  -21.9057 C   0  0  0  0  0  0  0  0  0  0  0  0
  -19.8527   17.3613  -21.4779 C   0  0  0  0  0  0  0  0  0  0  0  0
  -19.6767   18.6737  -21.9347 C   0  0  0  0  0  0  0  0  0  0  0  0
  -18.6730   18.9446  -22.8311 C   0  0  0  0  0  0  0  0  0  0  0  0
  -17.8517   17.9192  -23.2684 C   0  0  0  0  0  0  0  0  0  0  0  0
  -18.0353   16.6148  -22.8057 C   0  0  0  0  0  0  0  0  0  0  0  0
  -17.4183   15.4422  -23.0398 N   0  0  0  0  0  0  0  0  0  0  0  0
  -16.3094   15.2704  -23.8808 C   0  0  0  0  0  0  0  0  0  0  0  0
  -16.3972   15.6115  -25.2315 C   0  0  0  0  0  0  0  0  0  0  0  0
  -15.2695   15.4545  -26.0376 C   0  0  0  0  0  0  0  0  0  0  0  0
  -15.3098   15.7925  -27.4185 N   0  0  0  0  0  0  0  0  0  0  0  0
  -14.1031   14.9851  -25.5454 N   0  0  0  0  0  0  0  0  0  0  0  0
  -14.0523   14.6664  -24.2438 C   0  0  0  0  0  0  0  0  0  0  0  0
  -15.1273   14.8202  -23.4962 N   0  0  0  0  0  0  0  0  0  0  0  0
  -16.2020   15.9578  -27.9289 H   0  0  0  0  0  0  0  0  0  0  0  0
  -14.4214   15.8849  -27.9475 H   0  0  0  0  0  0  0  0  0  0  0  0
 18 19  1  0  0  0
 19 20  1  0  0  0
 20 21  1  0  0  0
 21 22  1  0  0  0
 22 23  1  0  0  0
 23 24  1  0  0  0
 22 12  1  0  0  0
 12 13  2  0  0  0
 13 14  1  0  0  0
 14 15  2  0  0  0
 15 16  1  0  0  0
 16 17  2  0  0  0
 16 25  1  0  0  0
 25 26  1  0  0  0
 25 27  1  0  0  0
 25 28  1  0  0  0
 14  8  1  0  0  0
  8  9  2  0  0  0
  8 10  1  0  0  0
 10  1  1  0  0  0
  1  2  2  0  0  0
  2  3  1  0  0  0
  3  4  2  0  0  0
  4  5  1  0  0  0
  4  6  1  0  0  0
  6 29  1  0  0  0
 29 31  1  0  0  0
 31 32  2  0  0  0
 32 33  1  0  0  0
 33 34  2  0  0  0
 34 35  1  0  0  0
 35 36  2  0  0  0
 36 37  1  0  0  0
 37 38  2  0  0  0
 38 39  1  0  0  0
 39 40  1  0  0  0
 40 41  2  0  0  0
 41 42  1  0  0  0
 42 43  1  0  0  0
 42 44  2  0  0  0
 44 45  1  0  0  0
 45 46  2  0  0  0
  6  7  2  0  0  0
 24 19  1  0  0  0
 17 12  1  0  0  0
  7  1  1  0  0  0
 39 31  1  0  0  0
 46 40  1  0  0  0
 38 33  1  0  0  0
 10 11  1  0  0  0
 29 30  1  0  0  0
 43 47  1  0  0  0
 43 48  1  0  0  0
M  END
> <minimizedAffinity>
-10.40187

> <CNNscore>
0.1175017133

> <CNNaffinity>
6.8184080124

> <CNN_VS>
0.8011746407

> <CNNaffinity_variance>
0.3172027767

$$$$
[H]c1nc(N([H])[H])c([H])c(-n2c(N([H])c3c([H])c(N([H])C(=O)c4c([H])c(N5C([H])([H])C([H])([H])N(C([H])([H])[H])C([H])([H])C5([H])[H])c([H])c(C(F)(F)F)c4[H])c([H])c([H])c3C([H])([H])[H])nc3c([H])c([H])c([H])c([H])c32)n1


 48 53  0  0  0  0  0  0  0  0999 V2000
  -19.0488   11.7257  -18.0147 C   0  0  0  0  0  0  0  0  0  0  0  0
  -17.9559   10.8422  -18.2127 C   0  0  0  0  0  0  0  0  0  0  0  0
  -17.2523   10.8605  -19.3837 C   0  0  0  0  0  0  0  0  0  0  0  0
  -17.5683   11.7206  -20.3979 C   0  0  0  0  0  0  0  0  0  0  0  0
  -16.7671   11.6969  -21.6463 C   0  0  0  0  0  0  0  0  0  0  0  0
  -18.6406   12.6111  -20.2468 C   0  0  0  0  0  0  0  0  0  0  0  0
  -19.3486   12.5801  -19.0447 C   0  0  0  0  0  0  0  0  0  0  0  0
  -20.4576   12.6773  -16.1343 C   0  0  0  0  0  0  0  0  0  0  0  0
  -20.5296   13.8401  -16.5887 O   0  0  0  0  0  0  0  0  0  0  0  0
  -19.7613   11.6734  -16.7894 N   0  0  0  0  0  0  0  0  0  0  0  0
  -19.7699   10.7202  -16.2870 H   0  0  0  0  0  0  0  0  0  0  0  0
  -21.2504   11.2906  -12.7361 C   0  0  0  0  0  0  0  0  0  0  0  0
  -20.6371   11.5238  -13.9581 C   0  0  0  0  0  0  0  0  0  0  0  0
  -21.1651   12.4297  -14.8449 C   0  0  0  0  0  0  0  0  0  0  0  0
  -22.3102   13.0961  -14.4951 C   0  0  0  0  0  0  0  0  0  0  0  0
  -22.9633   12.9051  -13.2950 C   0  0  0  0  0  0  0  0  0  0  0  0
  -22.4174   11.9931  -12.4190 C   0  0  0  0  0  0  0  0  0  0  0  0
  -17.4961   10.1835   -9.4879 C   0  0  0  0  0  0  0  0  0  0  0  0
  -18.8024    9.7578   -9.9861 N   0  0  0  0  0  0  0  0  0  0  0  0
  -19.8314   10.6721   -9.6725 C   0  0  0  0  0  0  0  0  0  0  0  0
  -21.1328   10.5176  -10.3914 C   0  0  0  0  0  0  0  0  0  0  0  0
  -20.7847   10.3476  -11.8083 N   0  0  0  0  0  0  0  0  0  0  0  0
  -19.9742    9.2091  -12.1101 C   0  0  0  0  0  0  0  0  0  0  0  0
  -18.7261    9.1768  -11.2698 C   0  0  0  0  0  0  0  0  0  0  0  0
  -24.2109   13.6287  -12.9265 C   0  0  0  0  0  0  0  0  0  0  0  0
  -25.0286   12.7960  -12.1581 F   0  0  0  0  0  0  0  0  0  0  0  0
  -24.9173   13.8295  -14.1171 F   0  0  0  0  0  0  0  0  0  0  0  0
  -23.9819   14.8287  -12.3033 F   0  0  0  0  0  0  0  0  0  0  0  0
  -18.8907   13.5061  -21.3074 N   0  0  0  0  0  0  0  0  0  0  0  0
  -19.1098   13.0968  -22.2414 H   0  0  0  0  0  0  0  0  0  0  0  0
  -18.8333   14.9146  -21.1452 C   0  0  0  0  0  0  0  0  0  0  0  0
  -19.3287   15.7346  -20.2196 N   0  0  0  0  0  0  0  0  0  0  0  0
  -19.0542   17.0173  -20.4570 C   0  0  0  0  0  0  0  0  0  0  0  0
  -19.3406   18.1910  -19.8161 C   0  0  0  0  0  0  0  0  0  0  0  0
  -18.9061   19.4227  -20.3221 C   0  0  0  0  0  0  0  0  0  0  0  0
  -18.1788   19.4525  -21.4859 C   0  0  0  0  0  0  0  0  0  0  0  0
  -17.8860   18.2676  -22.1397 C   0  0  0  0  0  0  0  0  0  0  0  0
  -18.3232   17.0452  -21.6259 C   0  0  0  0  0  0  0  0  0  0  0  0
  -18.2012   15.7651  -22.0220 N   0  0  0  0  0  0  0  0  0  0  0  0
  -17.5008   15.3381  -23.1593 C   0  0  0  0  0  0  0  0  0  0  0  0
  -16.1095   15.4414  -23.2028 C   0  0  0  0  0  0  0  0  0  0  0  0
  -15.4380   14.9838  -24.3368 C   0  0  0  0  0  0  0  0  0  0  0  0
  -14.0208   15.0644  -24.4250 N   0  0  0  0  0  0  0  0  0  0  0  0
  -16.0973   14.4461  -25.3853 N   0  0  0  0  0  0  0  0  0  0  0  0
  -17.4337   14.3617  -25.3118 C   0  0  0  0  0  0  0  0  0  0  0  0
  -18.0527   14.7994  -24.2331 N   0  0  0  0  0  0  0  0  0  0  0  0
  -13.4512   15.6441  -23.7742 H   0  0  0  0  0  0  0  0  0  0  0  0
  -13.5236   14.5256  -25.1599 H   0  0  0  0  0  0  0  0  0  0  0  0
 18 19  1  0  0  0
 19 20  1  0  0  0
 20 21  1  0  0  0
 21 22  1  0  0  0
 22 23  1  0  0  0
 23 24  1  0  0  0
 22 12  1  0  0  0
 12 13  2  0  0  0
 13 14  1  0  0  0
 14 15  2  0  0  0
 15 16  1  0  0  0
 16 17  2  0  0  0
 16 25  1  0  0  0
 25 26  1  0  0  0
 25 27  1  0  0  0
 25 28  1  0  0  0
 14  8  1  0  0  0
  8  9  2  0  0  0
  8 10  1  0  0  0
 10  1  1  0  0  0
  1  2  2  0  0  0
  2  3  1  0  0  0
  3  4  2  0  0  0
  4  5  1  0  0  0
  4  6  1  0  0  0
  6 29  1  0  0  0
 29 31  1  0  0  0
 31 32  2  0  0  0
 32 33  1  0  0  0
 33 34  2  0  0  0
 34 35  1  0  0  0
 35 36  2  0  0  0
 36 37  1  0  0  0
 37 38  2  0  0  0
 38 39  1  0  0  0
 39 40  1  0  0  0
 40 41  2  0  0  0
 41 42  1  0  0  0
 42 43  1  0  0  0
 42 44  2  0  0  0
 44 45  1  0  0  0
 45 46  2  0  0  0
  6  7  2  0  0  0
 24 19  1  0  0  0
 17 12  1  0  0  0
  7  1  1  0  0  0
 39 31  1  0  0  0
 46 40  1  0  0  0
 38 33  1  0  0  0
 10 11  1  0  0  0
 29 30  1  0  0  0
 43 47  1  0  0  0
 43 48  1  0  0  0
M  END
> <minimizedAffinity>
-9.07311

> <CNNscore>
0.0592814423

> <CNNaffinity>
6.5333962440

> <CNN_VS>
0.3873091638

> <CNNaffinity_variance>
0.2499854118

$$$$
[H]c1nc(N([H])[H])c([H])c(-n2c(N([H])c3c([H])c(N([H])C(=O)c4c([H])c(N5C([H])([H])C([H])([H])N(C([H])([H])[H])C([H])([H])C5([H])[H])c([H])c(C(F)(F)F)c4[H])c([H])c([H])c3C([H])([H])[H])nc3c([H])c([H])c([H])c([H])c32)n1


 48 53  0  0  0  0  0  0  0  0999 V2000
  -21.4388   15.7871  -19.5990 C   0  0  0  0  0  0  0  0  0  0  0  0
  -21.5698   15.9708  -18.1978 C   0  0  0  0  0  0  0  0  0  0  0  0
  -22.4741   16.8640  -17.6968 C   0  0  0  0  0  0  0  0  0  0  0  0
  -23.2794   17.6060  -18.5148 C   0  0  0  0  0  0  0  0  0  0  0  0
  -24.2445   18.5589  -17.9137 C   0  0  0  0  0  0  0  0  0  0  0  0
  -23.1844   17.4579  -19.9058 C   0  0  0  0  0  0  0  0  0  0  0  0
  -22.2563   16.5413  -20.4013 C   0  0  0  0  0  0  0  0  0  0  0  0
  -19.1126   14.9996  -20.2277 C   0  0  0  0  0  0  0  0  0  0  0  0
  -18.5208   16.0598  -19.9285 O   0  0  0  0  0  0  0  0  0  0  0  0
  -20.4841   14.8570  -20.0838 N   0  0  0  0  0  0  0  0  0  0  0  0
  -20.8693   13.8970  -20.3859 H   0  0  0  0  0  0  0  0  0  0  0  0
  -16.9219   12.9952  -22.5259 C   0  0  0  0  0  0  0  0  0  0  0  0
  -17.7456   13.9894  -22.0190 C   0  0  0  0  0  0  0  0  0  0  0  0
  -18.2584   13.8936  -20.7488 C   0  0  0  0  0  0  0  0  0  0  0  0
  -17.9383   12.7947  -19.9954 C   0  0  0  0  0  0  0  0  0  0  0  0
  -17.1252   11.7756  -20.4465 C   0  0  0  0  0  0  0  0  0  0  0  0
  -16.6202   11.8907  -21.7227 C   0  0  0  0  0  0  0  0  0  0  0  0
  -15.9184   15.9554  -26.5385 C   0  0  0  0  0  0  0  0  0  0  0  0
  -15.7801   14.6078  -25.9901 N   0  0  0  0  0  0  0  0  0  0  0  0
  -14.9451   14.5638  -24.8526 C   0  0  0  0  0  0  0  0  0  0  0  0
  -14.9803   13.3230  -24.0199 C   0  0  0  0  0  0  0  0  0  0  0  0
  -16.4037   13.0145  -23.8291 N   0  0  0  0  0  0  0  0  0  0  0  0
  -17.1449   12.7657  -25.0261 C   0  0  0  0  0  0  0  0  0  0  0  0
  -16.9936   13.8883  -26.0170 C   0  0  0  0  0  0  0  0  0  0  0  0
  -16.7887   10.5819  -19.6232 C   0  0  0  0  0  0  0  0  0  0  0  0
  -17.9133   10.1769  -18.8995 F   0  0  0  0  0  0  0  0  0  0  0  0
  -15.8738   11.0137  -18.6570 F   0  0  0  0  0  0  0  0  0  0  0  0
  -16.2563    9.5490  -20.3517 F   0  0  0  0  0  0  0  0  0  0  0  0
  -24.0721   18.2153  -20.6975 N   0  0  0  0  0  0  0  0  0  0  0  0
  -25.0036   18.4468  -20.2895 H   0  0  0  0  0  0  0  0  0  0  0  0
  -23.7461   18.6427  -22.0109 C   0  0  0  0  0  0  0  0  0  0  0  0
  -24.1216   18.2150  -23.2153 N   0  0  0  0  0  0  0  0  0  0  0  0
  -23.5556   18.8964  -24.2115 C   0  0  0  0  0  0  0  0  0  0  0  0
  -23.6239   18.8292  -25.5758 C   0  0  0  0  0  0  0  0  0  0  0  0
  -22.8896   19.7042  -26.3863 C   0  0  0  0  0  0  0  0  0  0  0  0
  -22.0837   20.6478  -25.7993 C   0  0  0  0  0  0  0  0  0  0  0  0
  -22.0098   20.7204  -24.4186 C   0  0  0  0  0  0  0  0  0  0  0  0
  -22.7471   19.8439  -23.6201 C   0  0  0  0  0  0  0  0  0  0  0  0
  -22.8793   19.6728  -22.2921 N   0  0  0  0  0  0  0  0  0  0  0  0
  -22.2463   20.4525  -21.3134 C   0  0  0  0  0  0  0  0  0  0  0  0
  -20.8981   20.2440  -21.0181 C   0  0  0  0  0  0  0  0  0  0  0  0
  -20.2887   21.0530  -20.0587 C   0  0  0  0  0  0  0  0  0  0  0  0
  -18.9164   20.8808  -19.7274 N   0  0  0  0  0  0  0  0  0  0  0  0
  -20.9671   22.0267  -19.4145 N   0  0  0  0  0  0  0  0  0  0  0  0
  -22.2609   22.2007  -19.7213 C   0  0  0  0  0  0  0  0  0  0  0  0
  -22.8216   21.4271  -20.6299 N   0  0  0  0  0  0  0  0  0  0  0  0
  -18.3742   20.0373  -20.0076 H   0  0  0  0  0  0  0  0  0  0  0  0
  -18.4244   21.6199  -19.1895 H   0  0  0  0  0  0  0  0  0  0  0  0
 18 19  1  0  0  0
 19 20  1  0  0  0
 20 21  1  0  0  0
 21 22  1  0  0  0
 22 23  1  0  0  0
 23 24  1  0  0  0
 22 12  1  0  0  0
 12 13  2  0  0  0
 13 14  1  0  0  0
 14 15  2  0  0  0
 15 16  1  0  0  0
 16 17  2  0  0  0
 16 25  1  0  0  0
 25 26  1  0  0  0
 25 27  1  0  0  0
 25 28  1  0  0  0
 14  8  1  0  0  0
  8  9  2  0  0  0
  8 10  1  0  0  0
 10  1  1  0  0  0
  1  2  2  0  0  0
  2  3  1  0  0  0
  3  4  2  0  0  0
  4  5  1  0  0  0
  4  6  1  0  0  0
  6 29  1  0  0  0
 29 31  1  0  0  0
 31 32  2  0  0  0
 32 33  1  0  0  0
 33 34  2  0  0  0
 34 35  1  0  0  0
 35 36  2  0  0  0
 36 37  1  0  0  0
 37 38  2  0  0  0
 38 39  1  0  0  0
 39 40  1  0  0  0
 40 41  2  0  0  0
 41 42  1  0  0  0
 42 43  1  0  0  0
 42 44  2  0  0  0
 44 45  1  0  0  0
 45 46  2  0  0  0
  6  7  2  0  0  0
 24 19  1  0  0  0
 17 12  1  0  0  0
  7  1  1  0  0  0
 39 31  1  0  0  0
 46 40  1  0  0  0
 38 33  1  0  0  0
 10 11  1  0  0  0
 29 30  1  0  0  0
 43 47  1  0  0  0
 43 48  1  0  0  0
M  END
> <minimizedAffinity>
-10.57300

> <CNNscore>
0.0529784411

> <CNNaffinity>
6.7103414536

> <CNN_VS>
0.3555034399

> <CNNaffinity_variance>
0.8235333562

$$$$
[H]c1nc(N([H])[H])c([H])c(-n2c(N([H])c3c([H])c(N([H])C(=O)c4c([H])c(N5C([H])([H])C([H])([H])N(C([H])([H])[H])C([H])([H])C5([H])[H])c([H])c(C(F)(F)F)c4[H])c([H])c([H])c3C([H])([H])[H])nc3c([H])c([H])c([H])c([H])c32)n1


 48 53  0  0  0  0  0  0  0  0999 V2000
  -18.4598   11.4409  -18.9066 C   0  0  0  0  0  0  0  0  0  0  0  0
  -17.8627   10.4306  -19.7046 C   0  0  0  0  0  0  0  0  0  0  0  0
  -17.1110   10.7625  -20.7961 C   0  0  0  0  0  0  0  0  0  0  0  0
  -16.9057   12.0645  -21.1577 C   0  0  0  0  0  0  0  0  0  0  0  0
  -16.0782   12.3648  -22.3518 C   0  0  0  0  0  0  0  0  0  0  0  0
  -17.4767   13.0960  -20.3988 C   0  0  0  0  0  0  0  0  0  0  0  0
  -18.2411   12.7402  -19.2870 C   0  0  0  0  0  0  0  0  0  0  0  0
  -19.6617   11.8222  -16.7074 C   0  0  0  0  0  0  0  0  0  0  0  0
  -19.3645   13.0316  -16.5940 O   0  0  0  0  0  0  0  0  0  0  0  0
  -19.2401   11.0592  -17.7854 N   0  0  0  0  0  0  0  0  0  0  0  0
  -19.5573   10.0298  -17.7576 H   0  0  0  0  0  0  0  0  0  0  0  0
  -20.8487   10.8847  -13.2707 C   0  0  0  0  0  0  0  0  0  0  0  0
  -20.0817   11.3815  -14.3142 C   0  0  0  0  0  0  0  0  0  0  0  0
  -20.4978   11.2448  -15.6156 C   0  0  0  0  0  0  0  0  0  0  0  0
  -21.6860   10.6069  -15.8589 C   0  0  0  0  0  0  0  0  0  0  0  0
  -22.4896   10.0929  -14.8623 C   0  0  0  0  0  0  0  0  0  0  0  0
  -22.0553   10.2410  -13.5637 C   0  0  0  0  0  0  0  0  0  0  0  0
  -20.7502    8.3682   -8.8516 C   0  0  0  0  0  0  0  0  0  0  0  0
  -20.3223    9.5860   -9.5369 N   0  0  0  0  0  0  0  0  0  0  0  0
  -19.3983    9.3334  -10.5741 C   0  0  0  0  0  0  0  0  0  0  0  0
  -19.1352   10.4379  -11.5463 C   0  0  0  0  0  0  0  0  0  0  0  0
  -20.4569   10.9545  -11.9258 N   0  0  0  0  0  0  0  0  0  0  0  0
  -21.2406   11.4851  -10.8543 C   0  0  0  0  0  0  0  0  0  0  0  0
  -21.3822   10.4978   -9.7273 C   0  0  0  0  0  0  0  0  0  0  0  0
  -23.7756    9.3952  -15.1367 C   0  0  0  0  0  0  0  0  0  0  0  0
  -23.7235    8.7894  -16.3948 F   0  0  0  0  0  0  0  0  0  0  0  0
  -24.7487   10.3931  -15.2565 F   0  0  0  0  0  0  0  0  0  0  0  0
  -24.1311    8.5018  -14.1588 F   0  0  0  0  0  0  0  0  0  0  0  0
  -17.1925   14.4200  -20.7923 N   0  0  0  0  0  0  0  0  0  0  0  0
  -16.1959   14.7263  -20.7679 H   0  0  0  0  0  0  0  0  0  0  0  0
  -18.2056   15.3301  -21.1914 C   0  0  0  0  0  0  0  0  0  0  0  0
  -19.2669   15.8287  -20.5593 N   0  0  0  0  0  0  0  0  0  0  0  0
  -19.9861   16.6557  -21.3182 C   0  0  0  0  0  0  0  0  0  0  0  0
  -21.1255   17.3861  -21.1220 C   0  0  0  0  0  0  0  0  0  0  0  0
  -21.6624   18.1864  -22.1385 C   0  0  0  0  0  0  0  0  0  0  0  0
  -21.0325   18.2378  -23.3571 C   0  0  0  0  0  0  0  0  0  0  0  0
  -19.8788   17.5000  -23.5621 C   0  0  0  0  0  0  0  0  0  0  0  0
  -19.3517   16.7064  -22.5415 C   0  0  0  0  0  0  0  0  0  0  0  0
  -18.2793   15.9000  -22.4409 N   0  0  0  0  0  0  0  0  0  0  0  0
  -17.3377   15.6830  -23.4572 C   0  0  0  0  0  0  0  0  0  0  0  0
  -17.6577   14.8672  -24.5437 C   0  0  0  0  0  0  0  0  0  0  0  0
  -16.7102   14.6914  -25.5524 C   0  0  0  0  0  0  0  0  0  0  0  0
  -16.9923   13.8729  -26.6807 N   0  0  0  0  0  0  0  0  0  0  0  0
  -15.5000   15.2884  -25.5035 N   0  0  0  0  0  0  0  0  0  0  0  0
  -15.2241   16.0655  -24.4459 C   0  0  0  0  0  0  0  0  0  0  0  0
  -16.1306   16.2204  -23.5011 N   0  0  0  0  0  0  0  0  0  0  0  0
  -17.7979   13.2139  -26.7072 H   0  0  0  0  0  0  0  0  0  0  0  0
  -16.3809   13.9291  -27.5178 H   0  0  0  0  0  0  0  0  0  0  0  0
 18 19  1  0  0  0
 19 20  1  0  0  0
 20 21  1  0  0  0
 21 22  1  0  0  0
 22 23  1  0  0  0
 23 24  1  0  0  0
 22 12  1  0  0  0
 12 13  2  0  0  0
 13 14  1  0  0  0
 14 15  2  0  0  0
 15 16  1  0  0  0
 16 17  2  0  0  0
 16 25  1  0  0  0
 25 26  1  0  0  0
 25 27  1  0  0  0
 25 28  1  0  0  0
 14  8  1  0  0  0
  8  9  2  0  0  0
  8 10  1  0  0  0
 10  1  1  0  0  0
  1  2  2  0  0  0
  2  3  1  0  0  0
  3  4  2  0  0  0
  4  5  1  0  0  0
  4  6  1  0  0  0
  6 29  1  0  0  0
 29 31  1  0  0  0
 31 32  2  0  0  0
 32 33  1  0  0  0
 33 34  2  0  0  0
 34 35  1  0  0  0
 35 36  2  0  0  0
 36 37  1  0  0  0
 37 38  2  0  0  0
 38 39  1  0  0  0
 39 40  1  0  0  0
 40 41  2  0  0  0
 41 42  1  0  0  0
 42 43  1  0  0  0
 42 44  2  0  0  0
 44 45  1  0  0  0
 45 46  2  0  0  0
  6  7  2  0  0  0
 24 19  1  0  0  0
 17 12  1  0  0  0
  7  1  1  0  0  0
 39 31  1  0  0  0
 46 40  1  0  0  0
 38 33  1  0  0  0
 10 11  1  0  0  0
 29 30  1  0  0  0
 43 47  1  0  0  0
 43 48  1  0  0  0
M  END
> <minimizedAffinity>
-9.19801

> <CNNscore>
0.0372271873

> <CNNaffinity>
6.5215063095

> <CNN_VS>
0.2427773327

> <CNNaffinity_variance>
0.2006370574

$$$$
[H]c1nc(N([H])[H])c([H])c(-n2c(N([H])c3c([H])c(N([H])C(=O)c4c([H])c(N5C([H])([H])C([H])([H])N(C([H])([H])[H])C([H])([H])C5([H])[H])c([H])c(C(F)(F)F)c4[H])c([H])c([H])c3C([H])([H])[H])nc3c([H])c([H])c([H])c([H])c32)n1


 48 53  0  0  0  0  0  0  0  0999 V2000
  -18.8659   11.2290  -18.1047 C   0  0  0  0  0  0  0  0  0  0  0  0
  -18.2679    9.9443  -18.1830 C   0  0  0  0  0  0  0  0  0  0  0  0
  -18.4827    9.0181  -17.2019 C   0  0  0  0  0  0  0  0  0  0  0  0
  -19.2733    9.2882  -16.1200 C   0  0  0  0  0  0  0  0  0  0  0  0
  -19.4721    8.2423  -15.0868 C   0  0  0  0  0  0  0  0  0  0  0  0
  -19.8842   10.5444  -16.0006 C   0  0  0  0  0  0  0  0  0  0  0  0
  -19.6552   11.4788  -17.0113 C   0  0  0  0  0  0  0  0  0  0  0  0
  -17.6448   12.1464  -20.1279 C   0  0  0  0  0  0  0  0  0  0  0  0
  -16.8090   11.2205  -20.2180 O   0  0  0  0  0  0  0  0  0  0  0  0
  -18.6145   12.1680  -19.1375 N   0  0  0  0  0  0  0  0  0  0  0  0
  -19.2661   13.0258  -19.1664 H   0  0  0  0  0  0  0  0  0  0  0  0
  -17.5292   15.5713  -21.6627 C   0  0  0  0  0  0  0  0  0  0  0  0
  -17.6521   14.5371  -20.7466 C   0  0  0  0  0  0  0  0  0  0  0  0
  -17.5403   13.2288  -21.1486 C   0  0  0  0  0  0  0  0  0  0  0  0
  -17.3055   12.9695  -22.4735 C   0  0  0  0  0  0  0  0  0  0  0  0
  -17.1747   13.9563  -23.4287 C   0  0  0  0  0  0  0  0  0  0  0  0
  -17.2891   15.2619  -23.0053 C   0  0  0  0  0  0  0  0  0  0  0  0
  -20.8369   19.1154  -20.1237 C   0  0  0  0  0  0  0  0  0  0  0  0
  -19.4303   18.8480  -20.4161 N   0  0  0  0  0  0  0  0  0  0  0  0
  -18.8565   17.9105  -19.5301 C   0  0  0  0  0  0  0  0  0  0  0  0
  -17.5392   17.3173  -19.9132 C   0  0  0  0  0  0  0  0  0  0  0  0
  -17.6768   16.9237  -21.3217 N   0  0  0  0  0  0  0  0  0  0  0  0
  -17.9650   17.9877  -22.2322 C   0  0  0  0  0  0  0  0  0  0  0  0
  -19.1724   18.7761  -21.8016 C   0  0  0  0  0  0  0  0  0  0  0  0
  -16.9265   13.6646  -24.8672 C   0  0  0  0  0  0  0  0  0  0  0  0
  -17.5656   14.6226  -25.6588 F   0  0  0  0  0  0  0  0  0  0  0  0
  -17.5891   12.4648  -25.1470 F   0  0  0  0  0  0  0  0  0  0  0  0
  -15.5957   13.5552  -25.1801 F   0  0  0  0  0  0  0  0  0  0  0  0
  -20.7253   10.7497  -14.8875 N   0  0  0  0  0  0  0  0  0  0  0  0
  -20.8352    9.9604  -14.2147 H   0  0  0  0  0  0  0  0  0  0  0  0
  -21.4250   11.9660  -14.6756 C   0  0  0  0  0  0  0  0  0  0  0  0
  -21.6476   13.0234  -15.4546 N   0  0  0  0  0  0  0  0  0  0  0  0
  -22.3509   13.9801  -14.8486 C   0  0  0  0  0  0  0  0  0  0  0  0
  -22.8108   15.2121  -15.2239 C   0  0  0  0  0  0  0  0  0  0  0  0
  -23.5430   16.0167  -14.3416 C   0  0  0  0  0  0  0  0  0  0  0  0
  -23.8032   15.5597  -13.0735 C   0  0  0  0  0  0  0  0  0  0  0  0
  -23.3397   14.3133  -12.6875 C   0  0  0  0  0  0  0  0  0  0  0  0
  -22.6118   13.5191  -13.5755 C   0  0  0  0  0  0  0  0  0  0  0  0
  -22.0448   12.3016  -13.4946 N   0  0  0  0  0  0  0  0  0  0  0  0
  -22.0961   11.4631  -12.3716 C   0  0  0  0  0  0  0  0  0  0  0  0
  -21.3095   11.7441  -11.2533 C   0  0  0  0  0  0  0  0  0  0  0  0
  -21.4017   10.9071  -10.1410 C   0  0  0  0  0  0  0  0  0  0  0  0
  -20.6231   11.1556   -8.9771 N   0  0  0  0  0  0  0  0  0  0  0  0
  -22.2288    9.8400  -10.1204 N   0  0  0  0  0  0  0  0  0  0  0  0
  -22.9706    9.5979  -11.2110 C   0  0  0  0  0  0  0  0  0  0  0  0
  -22.8709   10.3984  -12.2539 N   0  0  0  0  0  0  0  0  0  0  0  0
  -19.8166   11.8141   -8.9729 H   0  0  0  0  0  0  0  0  0  0  0  0
  -20.8611   10.6709   -8.0906 H   0  0  0  0  0  0  0  0  0  0  0  0
 18 19  1  0  0  0
 19 20  1  0  0  0
 20 21  1  0  0  0
 21 22  1  0  0  0
 22 23  1  0  0  0
 23 24  1  0  0  0
 22 12  1  0  0  0
 12 13  2  0  0  0
 13 14  1  0  0  0
 14 15  2  0  0  0
 15 16  1  0  0  0
 16 17  2  0  0  0
 16 25  1  0  0  0
 25 26  1  0  0  0
 25 27  1  0  0  0
 25 28  1  0  0  0
 14  8  1  0  0  0
  8  9  2  0  0  0
  8 10  1  0  0  0
 10  1  1  0  0  0
  1  2  2  0  0  0
  2  3  1  0  0  0
  3  4  2  0  0  0
  4  5  1  0  0  0
  4  6  1  0  0  0
  6 29  1  0  0  0
 29 31  1  0  0  0
 31 32  2  0  0  0
 32 33  1  0  0  0
 33 34  2  0  0  0
 34 35  1  0  0  0
 35 36  2  0  0  0
 36 37  1  0  0  0
 37 38  2  0  0  0
 38 39  1  0  0  0
 39 40  1  0  0  0
 40 41  2  0  0  0
 41 42  1  0  0  0
 42 43  1  0  0  0
 42 44  2  0  0  0
 44 45  1  0  0  0
 45 46  2  0  0  0
  6  7  2  0  0  0
 24 19  1  0  0  0
 17 12  1  0  0  0
  7  1  1  0  0  0
 39 31  1  0  0  0
 46 40  1  0  0  0
 38 33  1  0  0  0
 10 11  1  0  0  0
 29 30  1  0  0  0
 43 47  1  0  0  0
 43 48  1  0  0  0
M  END
> <minimizedAffinity>
-9.36353

> <CNNscore>
0.0328364670

> <CNNaffinity>
7.0150117874

> <CNN_VS>
0.2303481996

> <CNNaffinity_variance>
0.1546257585

$$$$
[H]c1nc(N([H])[H])c([H])c(-n2c(N([H])c3c([H])c(N([H])C(=O)c4c([H])c(N5C([H])([H])C([H])([H])N(C([H])([H])[H])C([H])([H])C5([H])[H])c([H])c(C(F)(F)F)c4[H])c([H])c([H])c3C([H])([H])[H])nc3c([H])c([H])c([H])c([H])c32)n1


 48 53  0  0  0  0  0  0  0  0999 V2000
  -20.7591   13.7733  -16.7666 C   0  0  0  0  0  0  0  0  0  0  0  0
  -21.1812   15.1226  -16.6430 C   0  0  0  0  0  0  0  0  0  0  0  0
  -22.0092   15.4999  -15.6238 C   0  0  0  0  0  0  0  0  0  0  0  0
  -22.4573   14.6042  -14.6936 C   0  0  0  0  0  0  0  0  0  0  0  0
  -23.3531   15.0721  -13.6076 C   0  0  0  0  0  0  0  0  0  0  0  0
  -22.0663   13.2603  -14.7764 C   0  0  0  0  0  0  0  0  0  0  0  0
  -21.2201   12.8915  -15.8229 C   0  0  0  0  0  0  0  0  0  0  0  0
  -19.8538   13.9266  -19.1295 C   0  0  0  0  0  0  0  0  0  0  0  0
  -20.6285   14.8285  -19.5173 O   0  0  0  0  0  0  0  0  0  0  0  0
  -19.9057   13.4161  -17.8417 N   0  0  0  0  0  0  0  0  0  0  0  0
  -19.1895   12.6369  -17.6389 H   0  0  0  0  0  0  0  0  0  0  0  0
  -17.7549   13.7230  -22.2362 C   0  0  0  0  0  0  0  0  0  0  0  0
  -18.6853   14.1375  -21.2947 C   0  0  0  0  0  0  0  0  0  0  0  0
  -18.8678   13.4298  -20.1322 C   0  0  0  0  0  0  0  0  0  0  0  0
  -18.1111   12.3064  -19.9247 C   0  0  0  0  0  0  0  0  0  0  0  0
  -17.1719   11.8468  -20.8246 C   0  0  0  0  0  0  0  0  0  0  0  0
  -17.0031   12.5709  -21.9840 C   0  0  0  0  0  0  0  0  0  0  0  0
  -14.2472   15.2379  -25.5936 C   0  0  0  0  0  0  0  0  0  0  0  0
  -15.6821   15.1439  -25.3329 N   0  0  0  0  0  0  0  0  0  0  0  0
  -16.1386   13.8098  -25.2631 C   0  0  0  0  0  0  0  0  0  0  0  0
  -17.4994   13.5764  -24.6903 C   0  0  0  0  0  0  0  0  0  0  0  0
  -17.5539   14.3775  -23.4603 N   0  0  0  0  0  0  0  0  0  0  0  0
  -17.3828   15.7861  -23.6357 C   0  0  0  0  0  0  0  0  0  0  0  0
  -16.1234   16.1026  -24.3963 C   0  0  0  0  0  0  0  0  0  0  0  0
  -16.3593   10.6211  -20.5936 C   0  0  0  0  0  0  0  0  0  0  0  0
  -15.3784   10.5132  -21.5830 F   0  0  0  0  0  0  0  0  0  0  0  0
  -17.2128    9.5344  -20.8114 F   0  0  0  0  0  0  0  0  0  0  0  0
  -15.8185   10.5542  -19.3350 F   0  0  0  0  0  0  0  0  0  0  0  0
  -22.5221   12.3920  -13.7631 N   0  0  0  0  0  0  0  0  0  0  0  0
  -23.5386   12.1590  -13.7497 H   0  0  0  0  0  0  0  0  0  0  0  0
  -21.6578   11.8565  -12.7732 C   0  0  0  0  0  0  0  0  0  0  0  0
  -20.5370   11.1405  -12.8494 N   0  0  0  0  0  0  0  0  0  0  0  0
  -20.0398   10.8196  -11.6549 C   0  0  0  0  0  0  0  0  0  0  0  0
  -18.9459   10.1160  -11.2322 C   0  0  0  0  0  0  0  0  0  0  0  0
  -18.6759    9.9378   -9.8694 C   0  0  0  0  0  0  0  0  0  0  0  0
  -19.5275   10.4793   -8.9389 C   0  0  0  0  0  0  0  0  0  0  0  0
  -20.6371   11.1922   -9.3607 C   0  0  0  0  0  0  0  0  0  0  0  0
  -20.8961   11.3647  -10.7217 C   0  0  0  0  0  0  0  0  0  0  0  0
  -21.8638   11.9868  -11.4197 N   0  0  0  0  0  0  0  0  0  0  0  0
  -22.9302   12.7014  -10.8553 C   0  0  0  0  0  0  0  0  0  0  0  0
  -22.6813   13.8542  -10.1086 C   0  0  0  0  0  0  0  0  0  0  0  0
  -23.7640   14.5589   -9.5820 C   0  0  0  0  0  0  0  0  0  0  0  0
  -23.5602   15.7412   -8.8182 N   0  0  0  0  0  0  0  0  0  0  0  0
  -25.0379   14.1558   -9.7771 N   0  0  0  0  0  0  0  0  0  0  0  0
  -25.2424   13.0442  -10.4988 C   0  0  0  0  0  0  0  0  0  0  0  0
  -24.2081   12.3897  -10.9887 N   0  0  0  0  0  0  0  0  0  0  0  0
  -22.6280   16.0103   -8.4405 H   0  0  0  0  0  0  0  0  0  0  0  0
  -24.3635   16.3703   -8.6269 H   0  0  0  0  0  0  0  0  0  0  0  0
 18 19  1  0  0  0
 19 20  1  0  0  0
 20 21  1  0  0  0
 21 22  1  0  0  0
 22 23  1  0  0  0
 23 24  1  0  0  0
 22 12  1  0  0  0
 12 13  2  0  0  0
 13 14  1  0  0  0
 14 15  2  0  0  0
 15 16  1  0  0  0
 16 17  2  0  0  0
 16 25  1  0  0  0
 25 26  1  0  0  0
 25 27  1  0  0  0
 25 28  1  0  0  0
 14  8  1  0  0  0
  8  9  2  0  0  0
  8 10  1  0  0  0
 10  1  1  0  0  0
  1  2  2  0  0  0
  2  3  1  0  0  0
  3  4  2  0  0  0
  4  5  1  0  0  0
  4  6  1  0  0  0
  6 29  1  0  0  0
 29 31  1  0  0  0
 31 32  2  0  0  0
 32 33  1  0  0  0
 33 34  2  0  0  0
 34 35  1  0  0  0
 35 36  2  0  0  0
 36 37  1  0  0  0
 37 38  2  0  0  0
 38 39  1  0  0  0
 39 40  1  0  0  0
 40 41  2  0  0  0
 41 42  1  0  0  0
 42 43  1  0  0  0
 42 44  2  0  0  0
 44 45  1  0  0  0
 45 46  2  0  0  0
  6  7  2  0  0  0
 24 19  1  0  0  0
 17 12  1  0  0  0
  7  1  1  0  0  0
 39 31  1  0  0  0
 46 40  1  0  0  0
 38 33  1  0  0  0
 10 11  1  0  0  0
 29 30  1  0  0  0
 43 47  1  0  0  0
 43 48  1  0  0  0
M  END
> <minimizedAffinity>
-9.21754

> <CNNscore>
0.0313732661

> <CNNaffinity>
6.2598867416

> <CNN_VS>
0.1963930875

> <CNNaffinity_variance>
0.1595738679

$$$$
[H]c1nc(N([H])[H])c([H])c(-n2c(N([H])c3c([H])c(N([H])C(=O)c4c([H])c(N5C([H])([H])C([H])([H])N(C([H])([H])[H])C([H])([H])C5([H])[H])c([H])c(C(F)(F)F)c4[H])c([H])c([H])c3C([H])([H])[H])nc3c([H])c([H])c([H])c([H])c32)n1


 48 53  0  0  0  0  0  0  0  0999 V2000
  -18.7892   16.9908  -18.2805 C   0  0  0  0  0  0  0  0  0  0  0  0
  -19.2092   17.6340  -17.0871 C   0  0  0  0  0  0  0  0  0  0  0  0
  -19.4381   18.9808  -17.0685 C   0  0  0  0  0  0  0  0  0  0  0  0
  -19.2749   19.7524  -18.1848 C   0  0  0  0  0  0  0  0  0  0  0  0
  -19.5405   21.2098  -18.1054 C   0  0  0  0  0  0  0  0  0  0  0  0
  -18.8609   19.1599  -19.3862 C   0  0  0  0  0  0  0  0  0  0  0  0
  -18.6319   17.7834  -19.3885 C   0  0  0  0  0  0  0  0  0  0  0  0
  -19.1811   14.5852  -18.9775 C   0  0  0  0  0  0  0  0  0  0  0  0
  -20.1101   14.8223  -19.7804 O   0  0  0  0  0  0  0  0  0  0  0  0
  -18.5534   15.5923  -18.2609 N   0  0  0  0  0  0  0  0  0  0  0  0
  -17.7755   15.2526  -17.5971 H   0  0  0  0  0  0  0  0  0  0  0  0
  -19.1121   11.0308  -17.7692 C   0  0  0  0  0  0  0  0  0  0  0  0
  -19.4325   12.3730  -17.9092 C   0  0  0  0  0  0  0  0  0  0  0  0
  -18.7846   13.1547  -18.8338 C   0  0  0  0  0  0  0  0  0  0  0  0
  -17.8155   12.5788  -19.6129 C   0  0  0  0  0  0  0  0  0  0  0  0
  -17.4549   11.2506  -19.5179 C   0  0  0  0  0  0  0  0  0  0  0  0
  -18.1170   10.4832  -18.5853 C   0  0  0  0  0  0  0  0  0  0  0  0
  -19.3423    9.9118  -12.8128 C   0  0  0  0  0  0  0  0  0  0  0  0
  -19.9079    9.6142  -14.1271 N   0  0  0  0  0  0  0  0  0  0  0  0
  -20.5929   10.7135  -14.6888 C   0  0  0  0  0  0  0  0  0  0  0  0
  -20.9326   10.6435  -16.1428 C   0  0  0  0  0  0  0  0  0  0  0  0
  -19.7065   10.1927  -16.8145 N   0  0  0  0  0  0  0  0  0  0  0  0
  -19.2203    8.9101  -16.4111 C   0  0  0  0  0  0  0  0  0  0  0  0
  -19.0457    8.8261  -14.9187 C   0  0  0  0  0  0  0  0  0  0  0  0
  -16.3959   10.6353  -20.3640 C   0  0  0  0  0  0  0  0  0  0  0  0
  -16.6854    9.2842  -20.5721 F   0  0  0  0  0  0  0  0  0  0  0  0
  -15.2257   10.6399  -19.5975 F   0  0  0  0  0  0  0  0  0  0  0  0
  -16.1898   11.2972  -21.5474 F   0  0  0  0  0  0  0  0  0  0  0  0
  -18.7544   19.9974  -20.5157 N   0  0  0  0  0  0  0  0  0  0  0  0
  -17.8601   20.5180  -20.6467 H   0  0  0  0  0  0  0  0  0  0  0  0
  -19.8143   20.1616  -21.4448 C   0  0  0  0  0  0  0  0  0  0  0  0
  -20.8578   20.9888  -21.4823 N   0  0  0  0  0  0  0  0  0  0  0  0
  -21.6398   20.7956  -22.5445 C   0  0  0  0  0  0  0  0  0  0  0  0
  -22.7904   21.3755  -23.0029 C   0  0  0  0  0  0  0  0  0  0  0  0
  -23.4024   20.9443  -24.1867 C   0  0  0  0  0  0  0  0  0  0  0  0
  -22.8364   19.9177  -24.9009 C   0  0  0  0  0  0  0  0  0  0  0  0
  -21.6718   19.3261  -24.4415 C   0  0  0  0  0  0  0  0  0  0  0  0
  -21.0694   19.7646  -23.2607 C   0  0  0  0  0  0  0  0  0  0  0  0
  -19.9685   19.3991  -22.5790 N   0  0  0  0  0  0  0  0  0  0  0  0
  -19.0726   18.3958  -22.9757 C   0  0  0  0  0  0  0  0  0  0  0  0
  -19.2514   17.0844  -22.5324 C   0  0  0  0  0  0  0  0  0  0  0  0
  -18.3596   16.1027  -22.9651 C   0  0  0  0  0  0  0  0  0  0  0  0
  -18.5038   14.7521  -22.5435 N   0  0  0  0  0  0  0  0  0  0  0  0
  -17.3357   16.3889  -23.7975 N   0  0  0  0  0  0  0  0  0  0  0  0
  -17.1918   17.6586  -24.2045 C   0  0  0  0  0  0  0  0  0  0  0  0
  -18.0430   18.5742  -23.7856 N   0  0  0  0  0  0  0  0  0  0  0  0
  -19.1199   14.4755  -21.7511 H   0  0  0  0  0  0  0  0  0  0  0  0
  -17.9831   14.0039  -23.0401 H   0  0  0  0  0  0  0  0  0  0  0  0
 18 19  1  0  0  0
 19 20  1  0  0  0
 20 21  1  0  0  0
 21 22  1  0  0  0
 22 23  1  0  0  0
 23 24  1  0  0  0
 22 12  1  0  0  0
 12 13  2  0  0  0
 13 14  1  0  0  0
 14 15  2  0  0  0
 15 16  1  0  0  0
 16 17  2  0  0  0
 16 25  1  0  0  0
 25 26  1  0  0  0
 25 27  1  0  0  0
 25 28  1  0  0  0
 14  8  1  0  0  0
  8  9  2  0  0  0
  8 10  1  0  0  0
 10  1  1  0  0  0
  1  2  2  0  0  0
  2  3  1  0  0  0
  3  4  2  0  0  0
  4  5  1  0  0  0
  4  6  1  0  0  0
  6 29  1  0  0  0
 29 31  1  0  0  0
 31 32  2  0  0  0
 32 33  1  0  0  0
 33 34  2  0  0  0
 34 35  1  0  0  0
 35 36  2  0  0  0
 36 37  1  0  0  0
 37 38  2  0  0  0
 38 39  1  0  0  0
 39 40  1  0  0  0
 40 41  2  0  0  0
 41 42  1  0  0  0
 42 43  1  0  0  0
 42 44  2  0  0  0
 44 45  1  0  0  0
 45 46  2  0  0  0
  6  7  2  0  0  0
 24 19  1  0  0  0
 17 12  1  0  0  0
  7  1  1  0  0  0
 39 31  1  0  0  0
 46 40  1  0  0  0
 38 33  1  0  0  0
 10 11  1  0  0  0
 29 30  1  0  0  0
 43 47  1  0  0  0
 43 48  1  0  0  0
M  END
> <minimizedAffinity>
-10.11197

> <CNNscore>
0.0303713456

> <CNNaffinity>
6.4798812866

> <CNN_VS>
0.1968027204

> <CNNaffinity_variance>
0.6791437864

$$$$
[H]/C(C(=O)N(c1c([H])c([H])c2nc(N([H])c3c(Cl)c([H])c([H])c([H])c3C([H])([H])[H])c3c([H])nc([H])n3c2c1[H])C([H])([H])[H])=C(/[H])C([H])([H])N(C([H])([H])[H])C([H])([H])[H]


 33 36  0  0  0  0  0  0  0  0999 V2000
  -19.7946   13.4752  -19.0833 C   0  0  0  0  0  0  0  0  0  0  0  0
  -19.9982   14.4786  -19.9949 C   0  0  0  0  0  0  0  0  0  0  0  0
  -19.2148   14.4874  -21.1416 C   0  0  0  0  0  0  0  0  0  0  0  0
  -18.2667   13.4933  -21.3212 C   0  0  0  0  0  0  0  0  0  0  0  0
  -17.4823   13.4705  -22.4209 N   0  0  0  0  0  0  0  0  0  0  0  0
  -16.5498   12.5329  -22.6363 C   0  0  0  0  0  0  0  0  0  0  0  0
  -16.3468   11.5167  -21.7102 C   0  0  0  0  0  0  0  0  0  0  0  0
  -15.4774   10.4504  -21.6853 C   0  0  0  0  0  0  0  0  0  0  0  0
  -15.7464    9.8016  -20.5250 N   0  0  0  0  0  0  0  0  0  0  0  0
  -16.7353   10.4570  -19.8875 C   0  0  0  0  0  0  0  0  0  0  0  0
  -17.1247   11.5345  -20.6142 N   0  0  0  0  0  0  0  0  0  0  0  0
  -18.0555   12.4788  -20.4086 C   0  0  0  0  0  0  0  0  0  0  0  0
  -18.8460   12.4904  -19.2756 C   0  0  0  0  0  0  0  0  0  0  0  0
  -20.4142   12.2876  -17.0676 C   0  0  0  0  0  0  0  0  0  0  0  0
  -19.6426   11.3413  -17.5575 O   0  0  0  0  0  0  0  0  0  0  0  0
  -20.5638   13.4084  -17.8628 N   0  0  0  0  0  0  0  0  0  0  0  0
  -21.4197   14.5124  -17.6031 C   0  0  0  0  0  0  0  0  0  0  0  0
  -21.9070   11.1204  -15.4704 C   0  0  0  0  0  0  0  0  0  0  0  0
  -20.9468   11.9365  -15.7714 C   0  0  0  0  0  0  0  0  0  0  0  0
  -22.3615   10.8437  -14.0932 C   0  0  0  0  0  0  0  0  0  0  0  0
  -22.2702    8.4673  -14.5761 C   0  0  0  0  0  0  0  0  0  0  0  0
  -22.2870    9.5196  -13.6262 N   0  0  0  0  0  0  0  0  0  0  0  0
  -21.5860    9.3051  -12.4076 C   0  0  0  0  0  0  0  0  0  0  0  0
  -15.7435   12.5658  -23.7894 N   0  0  0  0  0  0  0  0  0  0  0  0
  -15.0129   11.8434  -23.9694 H   0  0  0  0  0  0  0  0  0  0  0  0
  -15.8772   13.5847  -24.7777 C   0  0  0  0  0  0  0  0  0  0  0  0
  -14.9743   14.6236  -24.7208 C   0  0  0  0  0  0  0  0  0  0  0  0
  -13.9163   14.6670  -23.6470 C   0  0  0  0  0  0  0  0  0  0  0  0
  -15.0067   15.6514  -25.6289 C   0  0  0  0  0  0  0  0  0  0  0  0
  -15.9793   15.6364  -26.6293 C   0  0  0  0  0  0  0  0  0  0  0  0
  -16.8690   14.6000  -26.6745 C   0  0  0  0  0  0  0  0  0  0  0  0
  -16.8217   13.5767  -25.7545 C   0  0  0  0  0  0  0  0  0  0  0  0
  -17.9636   12.2340  -25.8045 Cl  0  0  0  0  0  0  0  0  0  0  0  0
 21 22  1  0  0  0
 22 23  1  0  0  0
 22 20  1  0  0  0
 20 18  1  0  0  0
 18 19  2  0  0  0
 19 14  1  0  0  0
 14 15  2  0  0  0
 14 16  1  0  0  0
 16 17  1  0  0  0
 16  1  1  0  0  0
  1  2  2  0  0  0
  2  3  1  0  0  0
  3  4  2  0  0  0
  4  5  1  0  0  0
  5  6  2  0  0  0
  6 24  1  0  0  0
 24 26  1  0  0  0
 26 27  2  0  0  0
 27 28  1  0  0  0
 27 29  1  0  0  0
 29 30  2  0  0  0
 30 31  1  0  0  0
 31 32  2  0  0  0
 32 33  1  0  0  0
  6  7  1  0  0  0
  7  8  2  0  0  0
  8  9  1  0  0  0
  9 10  2  0  0  0
 10 11  1  0  0  0
 11 12  1  0  0  0
 12 13  2  0  0  0
 13  1  1  0  0  0
 12  4  1  0  0  0
 32 26  1  0  0  0
 11  7  1  0  0  0
 24 25  1  0  0  0
M  END
> <minimizedAffinity>
-9.16421

> <CNNscore>
0.9432591796

> <CNNaffinity>
7.8491582870

> <CNN_VS>
7.4037904739

> <CNNaffinity_variance>
0.0627641156

$$$$
[H]/C(C(=O)N(c1c([H])c([H])c2nc(N([H])c3c(Cl)c([H])c([H])c([H])c3C([H])([H])[H])c3c([H])nc([H])n3c2c1[H])C([H])([H])[H])=C(/[H])C([H])([H])N(C([H])([H])[H])C([H])([H])[H]


 33 36  0  0  0  0  0  0  0  0999 V2000
  -19.0917   14.7235  -18.9478 C   0  0  0  0  0  0  0  0  0  0  0  0
  -19.2750   15.6290  -19.9606 C   0  0  0  0  0  0  0  0  0  0  0  0
  -18.6945   15.3567  -21.1924 C   0  0  0  0  0  0  0  0  0  0  0  0
  -17.9595   14.1932  -21.3519 C   0  0  0  0  0  0  0  0  0  0  0  0
  -17.3756   13.8956  -22.5332 N   0  0  0  0  0  0  0  0  0  0  0  0
  -16.6525   12.7856  -22.7339 C   0  0  0  0  0  0  0  0  0  0  0  0
  -16.4695   11.8695  -21.7049 C   0  0  0  0  0  0  0  0  0  0  0  0
  -15.7901   10.6745  -21.6427 C   0  0  0  0  0  0  0  0  0  0  0  0
  -15.9703   10.2308  -20.3737 N   0  0  0  0  0  0  0  0  0  0  0  0
  -16.7259   11.1267  -19.7103 C   0  0  0  0  0  0  0  0  0  0  0  0
  -17.0486   12.1606  -20.5275 N   0  0  0  0  0  0  0  0  0  0  0  0
  -17.7705   13.2755  -20.3375 C   0  0  0  0  0  0  0  0  0  0  0  0
  -18.3569   13.5675  -19.1211 C   0  0  0  0  0  0  0  0  0  0  0  0
  -20.8980   14.4007  -17.3696 C   0  0  0  0  0  0  0  0  0  0  0  0
  -21.4872   13.8031  -18.3827 O   0  0  0  0  0  0  0  0  0  0  0  0
  -19.6560   14.9456  -17.6370 N   0  0  0  0  0  0  0  0  0  0  0  0
  -18.8720   15.7241  -16.7436 C   0  0  0  0  0  0  0  0  0  0  0  0
  -21.8372   13.3919  -15.3100 C   0  0  0  0  0  0  0  0  0  0  0  0
  -21.7007   14.3518  -16.1694 C   0  0  0  0  0  0  0  0  0  0  0  0
  -22.6957   13.4657  -14.1111 C   0  0  0  0  0  0  0  0  0  0  0  0
  -21.2581   11.7788  -13.1229 C   0  0  0  0  0  0  0  0  0  0  0  0
  -22.4083   12.6034  -13.0384 N   0  0  0  0  0  0  0  0  0  0  0  0
  -22.8042   13.0341  -11.7422 C   0  0  0  0  0  0  0  0  0  0  0  0
  -16.0468   12.5319  -23.9788 N   0  0  0  0  0  0  0  0  0  0  0  0
  -15.6536   11.5956  -24.2175 H   0  0  0  0  0  0  0  0  0  0  0  0
  -15.9354   13.5358  -24.9849 C   0  0  0  0  0  0  0  0  0  0  0  0
  -16.8243   13.4607  -26.0347 C   0  0  0  0  0  0  0  0  0  0  0  0
  -17.8449   12.3525  -26.1022 C   0  0  0  0  0  0  0  0  0  0  0  0
  -16.8112   14.3812  -27.0518 C   0  0  0  0  0  0  0  0  0  0  0  0
  -15.8732   15.4135  -27.0145 C   0  0  0  0  0  0  0  0  0  0  0  0
  -14.9970   15.4766  -25.9676 C   0  0  0  0  0  0  0  0  0  0  0  0
  -15.0245   14.5437  -24.9552 C   0  0  0  0  0  0  0  0  0  0  0  0
  -13.8999   14.6166  -23.5990 Cl  0  0  0  0  0  0  0  0  0  0  0  0
 21 22  1  0  0  0
 22 23  1  0  0  0
 22 20  1  0  0  0
 20 18  1  0  0  0
 18 19  2  0  0  0
 19 14  1  0  0  0
 14 15  2  0  0  0
 14 16  1  0  0  0
 16 17  1  0  0  0
 16  1  1  0  0  0
  1  2  2  0  0  0
  2  3  1  0  0  0
  3  4  2  0  0  0
  4  5  1  0  0  0
  5  6  2  0  0  0
  6 24  1  0  0  0
 24 26  1  0  0  0
 26 27  2  0  0  0
 27 28  1  0  0  0
 27 29  1  0  0  0
 29 30  2  0  0  0
 30 31  1  0  0  0
 31 32  2  0  0  0
 32 33  1  0  0  0
  6  7  1  0  0  0
  7  8  2  0  0  0
  8  9  1  0  0  0
  9 10  2  0  0  0
 10 11  1  0  0  0
 11 12  1  0  0  0
 12 13  2  0  0  0
 13  1  1  0  0  0
 12  4  1  0  0  0
 32 26  1  0  0  0
 11  7  1  0  0  0
 24 25  1  0  0  0
M  END
> <minimizedAffinity>
-8.79702

> <CNNscore>
0.8852335215

> <CNNaffinity>
7.8628349304

> <CNN_VS>
6.9604449272

> <CNNaffinity_variance>
0.1205372810

$$$$
[H]/C(C(=O)N(c1c([H])c([H])c2nc(N([H])c3c(Cl)c([H])c([H])c([H])c3C([H])([H])[H])c3c([H])nc([H])n3c2c1[H])C([H])([H])[H])=C(/[H])C([H])([H])N(C([H])([H])[H])C([H])([H])[H]


 33 36  0  0  0  0  0  0  0  0999 V2000
  -19.2088   15.2412  -19.1783 C   0  0  0  0  0  0  0  0  0  0  0  0
  -19.1678   16.1795  -20.1768 C   0  0  0  0  0  0  0  0  0  0  0  0
  -18.4850   15.8615  -21.3436 C   0  0  0  0  0  0  0  0  0  0  0  0
  -17.8769   14.6217  -21.4554 C   0  0  0  0  0  0  0  0  0  0  0  0
  -17.1996   14.2772  -22.5723 N   0  0  0  0  0  0  0  0  0  0  0  0
  -16.5922   13.0927  -22.7247 C   0  0  0  0  0  0  0  0  0  0  0  0
  -16.6366   12.1436  -21.7104 C   0  0  0  0  0  0  0  0  0  0  0  0
  -16.1125   10.8753  -21.6093 C   0  0  0  0  0  0  0  0  0  0  0  0
  -16.4878   10.4343  -20.3827 N   0  0  0  0  0  0  0  0  0  0  0  0
  -17.2054   11.4022  -19.7810 C   0  0  0  0  0  0  0  0  0  0  0  0
  -17.3095   12.4811  -20.5970 N   0  0  0  0  0  0  0  0  0  0  0  0
  -17.9138   13.6706  -20.4550 C   0  0  0  0  0  0  0  0  0  0  0  0
  -18.5984   14.0091  -19.3036 C   0  0  0  0  0  0  0  0  0  0  0  0
  -21.1434   14.9504  -17.7534 C   0  0  0  0  0  0  0  0  0  0  0  0
  -21.6317   14.3019  -18.7886 O   0  0  0  0  0  0  0  0  0  0  0  0
  -19.8904   15.5062  -17.9329 N   0  0  0  0  0  0  0  0  0  0  0  0
  -19.2001   16.3341  -17.0072 C   0  0  0  0  0  0  0  0  0  0  0  0
  -22.0251   14.1982  -15.5629 C   0  0  0  0  0  0  0  0  0  0  0  0
  -22.0488   14.9359  -16.6278 C   0  0  0  0  0  0  0  0  0  0  0  0
  -23.0173   14.2806  -14.4726 C   0  0  0  0  0  0  0  0  0  0  0  0
  -23.4994   14.0017  -12.1107 C   0  0  0  0  0  0  0  0  0  0  0  0
  -22.6874   13.7029  -13.2339 N   0  0  0  0  0  0  0  0  0  0  0  0
  -22.0677   12.4233  -13.2648 C   0  0  0  0  0  0  0  0  0  0  0  0
  -15.8810   12.7904  -23.9011 N   0  0  0  0  0  0  0  0  0  0  0  0
  -15.2984   11.9290  -23.9845 H   0  0  0  0  0  0  0  0  0  0  0  0
  -15.9146   13.6400  -25.0454 C   0  0  0  0  0  0  0  0  0  0  0  0
  -14.9174   14.5855  -25.1432 C   0  0  0  0  0  0  0  0  0  0  0  0
  -13.8633   14.7071  -24.0716 C   0  0  0  0  0  0  0  0  0  0  0  0
  -14.8497   15.4476  -26.2081 C   0  0  0  0  0  0  0  0  0  0  0  0
  -15.8163   15.3581  -27.2104 C   0  0  0  0  0  0  0  0  0  0  0  0
  -16.8001   14.4158  -27.1013 C   0  0  0  0  0  0  0  0  0  0  0  0
  -16.8527   13.5586  -26.0250 C   0  0  0  0  0  0  0  0  0  0  0  0
  -18.1165   12.3381  -25.8751 Cl  0  0  0  0  0  0  0  0  0  0  0  0
 21 22  1  0  0  0
 22 23  1  0  0  0
 22 20  1  0  0  0
 20 18  1  0  0  0
 18 19  2  0  0  0
 19 14  1  0  0  0
 14 15  2  0  0  0
 14 16  1  0  0  0
 16 17  1  0  0  0
 16  1  1  0  0  0
  1  2  2  0  0  0
  2  3  1  0  0  0
  3  4  2  0  0  0
  4  5  1  0  0  0
  5  6  2  0  0  0
  6 24  1  0  0  0
 24 26  1  0  0  0
 26 27  2  0  0  0
 27 28  1  0  0  0
 27 29  1  0  0  0
 29 30  2  0  0  0
 30 31  1  0  0  0
 31 32  2  0  0  0
 32 33  1  0  0  0
  6  7  1  0  0  0
  7  8  2  0  0  0
  8  9  1  0  0  0
  9 10  2  0  0  0
 10 11  1  0  0  0
 11 12  1  0  0  0
 12 13  2  0  0  0
 13  1  1  0  0  0
 12  4  1  0  0  0
 32 26  1  0  0  0
 11  7  1  0  0  0
 24 25  1  0  0  0
M  END
> <minimizedAffinity>
-8.58544

> <CNNscore>
0.8504886031

> <CNNaffinity>
7.8785629272

> <CNN_VS>
6.7006278038

> <CNNaffinity_variance>
0.1854989380

$$$$
[H]/C(C(=O)N(c1c([H])c([H])c2nc(N([H])c3c(Cl)c([H])c([H])c([H])c3C([H])([H])[H])c3c([H])nc([H])n3c2c1[H])C([H])([H])[H])=C(/[H])C([H])([H])N(C([H])([H])[H])C([H])([H])[H]


 33 36  0  0  0  0  0  0  0  0999 V2000
  -18.3250   12.0696  -18.4938 C   0  0  0  0  0  0  0  0  0  0  0  0
  -17.4903   11.0022  -18.7011 C   0  0  0  0  0  0  0  0  0  0  0  0
  -16.8543   10.9005  -19.9315 C   0  0  0  0  0  0  0  0  0  0  0  0
  -17.0833   11.8703  -20.8940 C   0  0  0  0  0  0  0  0  0  0  0  0
  -16.4870   11.8036  -22.1044 N   0  0  0  0  0  0  0  0  0  0  0  0
  -16.6808   12.7146  -23.0676 C   0  0  0  0  0  0  0  0  0  0  0  0
  -17.5272   13.7959  -22.8535 C   0  0  0  0  0  0  0  0  0  0  0  0
  -17.8940   14.8538  -23.6532 C   0  0  0  0  0  0  0  0  0  0  0  0
  -18.7456   15.5904  -22.8970 N   0  0  0  0  0  0  0  0  0  0  0  0
  -18.8785   14.9931  -21.6972 C   0  0  0  0  0  0  0  0  0  0  0  0
  -18.1228   13.8672  -21.6507 N   0  0  0  0  0  0  0  0  0  0  0  0
  -17.9218   12.9489  -20.6933 C   0  0  0  0  0  0  0  0  0  0  0  0
  -18.5437   13.0292  -19.4622 C   0  0  0  0  0  0  0  0  0  0  0  0
  -19.6184   11.1163  -16.6839 C   0  0  0  0  0  0  0  0  0  0  0  0
  -19.5534   10.0178  -17.4048 O   0  0  0  0  0  0  0  0  0  0  0  0
  -19.0290   12.2345  -17.2436 N   0  0  0  0  0  0  0  0  0  0  0  0
  -19.0566   13.5517  -16.7116 C   0  0  0  0  0  0  0  0  0  0  0  0
  -19.8500   10.4554  -14.3066 C   0  0  0  0  0  0  0  0  0  0  0  0
  -20.3083   10.9038  -15.4325 C   0  0  0  0  0  0  0  0  0  0  0  0
  -20.6644   10.2835  -13.0872 C   0  0  0  0  0  0  0  0  0  0  0  0
  -19.0374    9.1852  -11.6606 C   0  0  0  0  0  0  0  0  0  0  0  0
  -20.3398    9.2261  -12.2192 N   0  0  0  0  0  0  0  0  0  0  0  0
  -21.3984    8.6862  -11.4380 C   0  0  0  0  0  0  0  0  0  0  0  0
  -16.0513   12.5882  -24.3202 N   0  0  0  0  0  0  0  0  0  0  0  0
  -15.7166   11.6664  -24.6759 H   0  0  0  0  0  0  0  0  0  0  0  0
  -15.8350   13.7083  -25.1751 C   0  0  0  0  0  0  0  0  0  0  0  0
  -16.5934   13.7652  -26.3237 C   0  0  0  0  0  0  0  0  0  0  0  0
  -17.5851   12.6760  -26.6469 C   0  0  0  0  0  0  0  0  0  0  0  0
  -16.4723   14.8042  -27.2114 C   0  0  0  0  0  0  0  0  0  0  0  0
  -15.5581   15.8220  -26.9370 C   0  0  0  0  0  0  0  0  0  0  0  0
  -14.8119   15.7535  -25.7942 C   0  0  0  0  0  0  0  0  0  0  0  0
  -14.9466   14.7028  -24.9144 C   0  0  0  0  0  0  0  0  0  0  0  0
  -13.9900   14.6053  -23.4363 Cl  0  0  0  0  0  0  0  0  0  0  0  0
 21 22  1  0  0  0
 22 23  1  0  0  0
 22 20  1  0  0  0
 20 18  1  0  0  0
 18 19  2  0  0  0
 19 14  1  0  0  0
 14 15  2  0  0  0
 14 16  1  0  0  0
 16 17  1  0  0  0
 16  1  1  0  0  0
  1  2  2  0  0  0
  2  3  1  0  0  0
  3  4  2  0  0  0
  4  5  1  0  0  0
  5  6  2  0  0  0
  6 24  1  0  0  0
 24 26  1  0  0  0
 26 27  2  0  0  0
 27 28  1  0  0  0
 27 29  1  0  0  0
 29 30  2  0  0  0
 30 31  1  0  0  0
 31 32  2  0  0  0
 32 33  1  0  0  0
  6  7  1  0  0  0
  7  8  2  0  0  0
  8  9  1  0  0  0
  9 10  2  0  0  0
 10 11  1  0  0  0
 11 12  1  0  0  0
 12 13  2  0  0  0
 13  1  1  0  0  0
 12  4  1  0  0  0
 32 26  1  0  0  0
 11  7  1  0  0  0
 24 25  1  0  0  0
M  END
> <minimizedAffinity>
-8.95737

> <CNNscore>
0.8430469632

> <CNNaffinity>
7.6867752075

> <CNN_VS>
6.4803123474

> <CNNaffinity_variance>
0.0889637768

$$$$
[H]/C(C(=O)N(c1c([H])c([H])c2nc(N([H])c3c(Cl)c([H])c([H])c([H])c3C([H])([H])[H])c3c([H])nc([H])n3c2c1[H])C([H])([H])[H])=C(/[H])C([H])([H])N(C([H])([H])[H])C([H])([H])[H]


 33 36  0  0  0  0  0  0  0  0999 V2000
  -19.5725   15.1383  -19.2333 C   0  0  0  0  0  0  0  0  0  0  0  0
  -19.6040   16.0180  -20.2841 C   0  0  0  0  0  0  0  0  0  0  0  0
  -18.8923   15.6906  -21.4308 C   0  0  0  0  0  0  0  0  0  0  0  0
  -18.1842   14.5005  -21.4713 C   0  0  0  0  0  0  0  0  0  0  0  0
  -17.4759   14.1492  -22.5667 N   0  0  0  0  0  0  0  0  0  0  0  0
  -16.7730   13.0117  -22.6509 C   0  0  0  0  0  0  0  0  0  0  0  0
  -16.7440   12.1219  -21.5837 C   0  0  0  0  0  0  0  0  0  0  0  0
  -16.1184   10.9088  -21.4099 C   0  0  0  0  0  0  0  0  0  0  0  0
  -16.4618   10.5095  -20.1600 N   0  0  0  0  0  0  0  0  0  0  0  0
  -17.2589   11.4482  -19.6147 C   0  0  0  0  0  0  0  0  0  0  0  0
  -17.4473   12.4664  -20.4914 N   0  0  0  0  0  0  0  0  0  0  0  0
  -18.1476   13.6085  -20.4178 C   0  0  0  0  0  0  0  0  0  0  0  0
  -18.8627   13.9552  -19.2877 C   0  0  0  0  0  0  0  0  0  0  0  0
  -19.6607   16.2354  -17.0778 C   0  0  0  0  0  0  0  0  0  0  0  0
  -18.4345   16.6077  -17.3757 O   0  0  0  0  0  0  0  0  0  0  0  0
  -20.2790   15.4175  -18.0050 N   0  0  0  0  0  0  0  0  0  0  0  0
  -21.5532   14.8047  -17.8646 C   0  0  0  0  0  0  0  0  0  0  0  0
  -19.7054   17.8481  -15.1966 C   0  0  0  0  0  0  0  0  0  0  0  0
  -20.1013   16.7804  -15.8145 C   0  0  0  0  0  0  0  0  0  0  0  0
  -20.2402   18.3032  -13.8979 C   0  0  0  0  0  0  0  0  0  0  0  0
  -20.6718   20.5904  -14.5844 C   0  0  0  0  0  0  0  0  0  0  0  0
  -21.0857   19.4266  -13.8885 N   0  0  0  0  0  0  0  0  0  0  0  0
  -22.4840   19.1794  -13.8112 C   0  0  0  0  0  0  0  0  0  0  0  0
  -16.0341   12.7018  -23.8081 N   0  0  0  0  0  0  0  0  0  0  0  0
  -15.4915   11.8148  -23.8919 H   0  0  0  0  0  0  0  0  0  0  0  0
  -15.9839   13.5782  -24.9314 C   0  0  0  0  0  0  0  0  0  0  0  0
  -14.9683   14.5089  -24.9447 C   0  0  0  0  0  0  0  0  0  0  0  0
  -13.9807   14.5879  -23.8078 C   0  0  0  0  0  0  0  0  0  0  0  0
  -14.8216   15.3943  -25.9823 C   0  0  0  0  0  0  0  0  0  0  0  0
  -15.7256   15.3443  -27.0440 C   0  0  0  0  0  0  0  0  0  0  0  0
  -16.7286   14.4163  -27.0185 C   0  0  0  0  0  0  0  0  0  0  0  0
  -16.8607   13.5353  -25.9685 C   0  0  0  0  0  0  0  0  0  0  0  0
  -18.1499   12.3330  -25.9263 Cl  0  0  0  0  0  0  0  0  0  0  0  0
 21 22  1  0  0  0
 22 23  1  0  0  0
 22 20  1  0  0  0
 20 18  1  0  0  0
 18 19  2  0  0  0
 19 14  1  0  0  0
 14 15  2  0  0  0
 14 16  1  0  0  0
 16 17  1  0  0  0
 16  1  1  0  0  0
  1  2  2  0  0  0
  2  3  1  0  0  0
  3  4  2  0  0  0
  4  5  1  0  0  0
  5  6  2  0  0  0
  6 24  1  0  0  0
 24 26  1  0  0  0
 26 27  2  0  0  0
 27 28  1  0  0  0
 27 29  1  0  0  0
 29 30  2  0  0  0
 30 31  1  0  0  0
 31 32  2  0  0  0
 32 33  1  0  0  0
  6  7  1  0  0  0
  7  8  2  0  0  0
  8  9  1  0  0  0
  9 10  2  0  0  0
 10 11  1  0  0  0
 11 12  1  0  0  0
 12 13  2  0  0  0
 13  1  1  0  0  0
 12  4  1  0  0  0
 32 26  1  0  0  0
 11  7  1  0  0  0
 24 25  1  0  0  0
M  END
> <minimizedAffinity>
-8.73495

> <CNNscore>
0.8050265908

> <CNNaffinity>
7.7645025253

> <CNN_VS>
6.2506308556

> <CNNaffinity_variance>
0.1794582158

$$$$
[H]/C(C(=O)N(c1c([H])c([H])c2nc(N([H])c3c(Cl)c([H])c([H])c([H])c3C([H])([H])[H])c3c([H])nc([H])n3c2c1[H])C([H])([H])[H])=C(/[H])C([H])([H])N(C([H])([H])[H])C([H])([H])[H]


 33 36  0  0  0  0  0  0  0  0999 V2000
  -19.6226   15.3856  -19.4318 C   0  0  0  0  0  0  0  0  0  0  0  0
  -19.6354   16.2385  -20.5049 C   0  0  0  0  0  0  0  0  0  0  0  0
  -18.9357   15.8640  -21.6445 C   0  0  0  0  0  0  0  0  0  0  0  0
  -18.2577   14.6559  -21.6561 C   0  0  0  0  0  0  0  0  0  0  0  0
  -17.5619   14.2589  -22.7438 N   0  0  0  0  0  0  0  0  0  0  0  0
  -16.8878   13.1024  -22.8004 C   0  0  0  0  0  0  0  0  0  0  0  0
  -16.8777   12.2399  -21.7107 C   0  0  0  0  0  0  0  0  0  0  0  0
  -16.2820   11.0163  -21.5072 C   0  0  0  0  0  0  0  0  0  0  0  0
  -16.6313   10.6581  -20.2465 N   0  0  0  0  0  0  0  0  0  0  0  0
  -17.4030   11.6301  -19.7236 C   0  0  0  0  0  0  0  0  0  0  0  0
  -17.5687   12.6298  -20.6258 N   0  0  0  0  0  0  0  0  0  0  0  0
  -18.2401   13.7907  -20.5800 C   0  0  0  0  0  0  0  0  0  0  0  0
  -18.9427   14.1841  -19.4574 C   0  0  0  0  0  0  0  0  0  0  0  0
  -19.6373   16.4522  -17.2593 C   0  0  0  0  0  0  0  0  0  0  0  0
  -18.3758   16.7062  -17.5328 O   0  0  0  0  0  0  0  0  0  0  0  0
  -20.3181   15.7139  -18.2094 N   0  0  0  0  0  0  0  0  0  0  0  0
  -21.6485   15.2278  -18.0981 C   0  0  0  0  0  0  0  0  0  0  0  0
  -19.4456   17.9034  -15.2596 C   0  0  0  0  0  0  0  0  0  0  0  0
  -20.0426   17.0182  -15.9934 C   0  0  0  0  0  0  0  0  0  0  0  0
  -19.9681   18.4058  -13.9734 C   0  0  0  0  0  0  0  0  0  0  0  0
  -22.1861   19.0980  -13.2730 C   0  0  0  0  0  0  0  0  0  0  0  0
  -21.0014   19.3589  -14.0068 N   0  0  0  0  0  0  0  0  0  0  0  0
  -20.6173   20.7199  -14.1570 C   0  0  0  0  0  0  0  0  0  0  0  0
  -16.1606   12.7444  -23.9510 N   0  0  0  0  0  0  0  0  0  0  0  0
  -15.6966   11.8143  -24.0401 H   0  0  0  0  0  0  0  0  0  0  0  0
  -16.0156   13.6281  -25.0603 C   0  0  0  0  0  0  0  0  0  0  0  0
  -16.8911   13.4526  -26.1094 C   0  0  0  0  0  0  0  0  0  0  0  0
  -17.9320   12.3621  -26.0700 C   0  0  0  0  0  0  0  0  0  0  0  0
  -16.8458   14.2541  -27.2219 C   0  0  0  0  0  0  0  0  0  0  0  0
  -15.8885   15.2672  -27.2842 C   0  0  0  0  0  0  0  0  0  0  0  0
  -15.0260   15.4306  -26.2368 C   0  0  0  0  0  0  0  0  0  0  0  0
  -15.0858   14.6166  -25.1279 C   0  0  0  0  0  0  0  0  0  0  0  0
  -13.9790   14.8197  -23.7703 Cl  0  0  0  0  0  0  0  0  0  0  0  0
 21 22  1  0  0  0
 22 23  1  0  0  0
 22 20  1  0  0  0
 20 18  1  0  0  0
 18 19  2  0  0  0
 19 14  1  0  0  0
 14 15  2  0  0  0
 14 16  1  0  0  0
 16 17  1  0  0  0
 16  1  1  0  0  0
  1  2  2  0  0  0
  2  3  1  0  0  0
  3  4  2  0  0  0
  4  5  1  0  0  0
  5  6  2  0  0  0
  6 24  1  0  0  0
 24 26  1  0  0  0
 26 27  2  0  0  0
 27 28  1  0  0  0
 27 29  1  0  0  0
 29 30  2  0  0  0
 30 31  1  0  0  0
 31 32  2  0  0  0
 32 33  1  0  0  0
  6  7  1  0  0  0
  7  8  2  0  0  0
  8  9  1  0  0  0
  9 10  2  0  0  0
 10 11  1  0  0  0
 11 12  1  0  0  0
 12 13  2  0  0  0
 13  1  1  0  0  0
 12  4  1  0  0  0
 32 26  1  0  0  0
 11  7  1  0  0  0
 24 25  1  0  0  0
M  END
> <minimizedAffinity>
-8.80167

> <CNNscore>
0.7394040823

> <CNNaffinity>
7.6949486732

> <CNN_VS>
5.6896762848

> <CNNaffinity_variance>
0.2111311406

$$$$
[H]/C(C(=O)N(c1c([H])c([H])c2nc(N([H])c3c(Cl)c([H])c([H])c([H])c3C([H])([H])[H])c3c([H])nc([H])n3c2c1[H])C([H])([H])[H])=C(/[H])C([H])([H])N(C([H])([H])[H])C([H])([H])[H]


 33 36  0  0  0  0  0  0  0  0999 V2000
  -18.7334   12.0299  -18.9189 C   0  0  0  0  0  0  0  0  0  0  0  0
  -17.9315   10.9352  -19.1128 C   0  0  0  0  0  0  0  0  0  0  0  0
  -17.1019   10.9230  -20.2265 C   0  0  0  0  0  0  0  0  0  0  0  0
  -17.1142   12.0052  -21.0915 C   0  0  0  0  0  0  0  0  0  0  0  0
  -16.3253   12.0284  -22.1879 N   0  0  0  0  0  0  0  0  0  0  0  0
  -16.3058   13.0498  -23.0548 C   0  0  0  0  0  0  0  0  0  0  0  0
  -17.1197   14.1584  -22.8545 C   0  0  0  0  0  0  0  0  0  0  0  0
  -17.2907   15.3200  -23.5720 C   0  0  0  0  0  0  0  0  0  0  0  0
  -18.2195   16.0283  -22.8825 N   0  0  0  0  0  0  0  0  0  0  0  0
  -18.5845   15.3152  -21.7998 C   0  0  0  0  0  0  0  0  0  0  0  0
  -17.9064   14.1406  -21.7648 N   0  0  0  0  0  0  0  0  0  0  0  0
  -17.9182   13.1120  -20.9033 C   0  0  0  0  0  0  0  0  0  0  0  0
  -18.7350   13.1018  -19.7892 C   0  0  0  0  0  0  0  0  0  0  0  0
  -20.1797   13.3391  -17.4865 C   0  0  0  0  0  0  0  0  0  0  0  0
  -19.7518   14.3476  -18.2148 O   0  0  0  0  0  0  0  0  0  0  0  0
  -19.6300   12.1073  -17.7893 N   0  0  0  0  0  0  0  0  0  0  0  0
  -19.8516   10.8941  -17.0838 C   0  0  0  0  0  0  0  0  0  0  0  0
  -21.5028   14.9487  -16.1447 C   0  0  0  0  0  0  0  0  0  0  0  0
  -21.1569   13.7537  -16.5066 C   0  0  0  0  0  0  0  0  0  0  0  0
  -22.5260   15.2439  -15.1222 C   0  0  0  0  0  0  0  0  0  0  0  0
  -24.8537   15.5233  -15.7488 C   0  0  0  0  0  0  0  0  0  0  0  0
  -23.5864   16.0971  -15.4754 N   0  0  0  0  0  0  0  0  0  0  0  0
  -23.5728   17.4056  -14.9186 C   0  0  0  0  0  0  0  0  0  0  0  0
  -15.4802   13.0160  -24.1942 N   0  0  0  0  0  0  0  0  0  0  0  0
  -14.6218   12.4245  -24.2330 H   0  0  0  0  0  0  0  0  0  0  0  0
  -15.7671   13.7850  -25.3600 C   0  0  0  0  0  0  0  0  0  0  0  0
  -14.9020   14.8177  -25.6480 C   0  0  0  0  0  0  0  0  0  0  0  0
  -13.7263   15.1110  -24.7502 C   0  0  0  0  0  0  0  0  0  0  0  0
  -15.0793   15.6143  -26.7508 C   0  0  0  0  0  0  0  0  0  0  0  0
  -16.1626   15.3660  -27.5944 C   0  0  0  0  0  0  0  0  0  0  0  0
  -17.0133   14.3384  -27.2973 C   0  0  0  0  0  0  0  0  0  0  0  0
  -16.8200   13.5490  -26.1858 C   0  0  0  0  0  0  0  0  0  0  0  0
  -17.9104   12.2197  -25.7941 Cl  0  0  0  0  0  0  0  0  0  0  0  0
 21 22  1  0  0  0
 22 23  1  0  0  0
 22 20  1  0  0  0
 20 18  1  0  0  0
 18 19  2  0  0  0
 19 14  1  0  0  0
 14 15  2  0  0  0
 14 16  1  0  0  0
 16 17  1  0  0  0
 16  1  1  0  0  0
  1  2  2  0  0  0
  2  3  1  0  0  0
  3  4  2  0  0  0
  4  5  1  0  0  0
  5  6  2  0  0  0
  6 24  1  0  0  0
 24 26  1  0  0  0
 26 27  2  0  0  0
 27 28  1  0  0  0
 27 29  1  0  0  0
 29 30  2  0  0  0
 30 31  1  0  0  0
 31 32  2  0  0  0
 32 33  1  0  0  0
  6  7  1  0  0  0
  7  8  2  0  0  0
  8  9  1  0  0  0
  9 10  2  0  0  0
 10 11  1  0  0  0
 11 12  1  0  0  0
 12 13  2  0  0  0
 13  1  1  0  0  0
 12  4  1  0  0  0
 32 26  1  0  0  0
 11  7  1  0  0  0
 24 25  1  0  0  0
M  END
> <minimizedAffinity>
-8.67484

> <CNNscore>
0.7296674848

> <CNNaffinity>
7.7645483017

> <CNN_VS>
5.6655383110

> <CNNaffinity_variance>
0.2396767139

$$$$
[H]/C(C(=O)N(c1c([H])c([H])c2nc(N([H])c3c(Cl)c([H])c([H])c([H])c3C([H])([H])[H])c3c([H])nc([H])n3c2c1[H])C([H])([H])[H])=C(/[H])C([H])([H])N(C([H])([H])[H])C([H])([H])[H]


 33 36  0  0  0  0  0  0  0  0999 V2000
  -18.6202   12.1850  -19.2586 C   0  0  0  0  0  0  0  0  0  0  0  0
  -17.9826   11.0241  -19.6123 C   0  0  0  0  0  0  0  0  0  0  0  0
  -17.1575   11.0470  -20.7290 C   0  0  0  0  0  0  0  0  0  0  0  0
  -17.0097   12.2284  -21.4375 C   0  0  0  0  0  0  0  0  0  0  0  0
  -16.2199   12.2893  -22.5317 N   0  0  0  0  0  0  0  0  0  0  0  0
  -16.0494   13.4069  -23.2508 C   0  0  0  0  0  0  0  0  0  0  0  0
  -16.6968   14.5822  -22.8887 C   0  0  0  0  0  0  0  0  0  0  0  0
  -16.6955   15.8438  -23.4379 C   0  0  0  0  0  0  0  0  0  0  0  0
  -17.5167   16.5758  -22.6445 N   0  0  0  0  0  0  0  0  0  0  0  0
  -17.9860   15.7802  -21.6644 C   0  0  0  0  0  0  0  0  0  0  0  0
  -17.4837   14.5272  -21.8005 N   0  0  0  0  0  0  0  0  0  0  0  0
  -17.6475   13.4021  -21.0879 C   0  0  0  0  0  0  0  0  0  0  0  0
  -18.4633   13.3556  -19.9738 C   0  0  0  0  0  0  0  0  0  0  0  0
  -19.5477   11.1263  -17.2897 C   0  0  0  0  0  0  0  0  0  0  0  0
  -18.8391   10.0912  -17.6861 O   0  0  0  0  0  0  0  0  0  0  0  0
  -19.5024   12.2336  -18.1161 N   0  0  0  0  0  0  0  0  0  0  0  0
  -20.2562   13.4278  -17.9598 C   0  0  0  0  0  0  0  0  0  0  0  0
  -20.2996    9.7763  -15.3523 C   0  0  0  0  0  0  0  0  0  0  0  0
  -20.2329   10.8698  -16.0441 C   0  0  0  0  0  0  0  0  0  0  0  0
  -21.0390    9.6407  -14.0815 C   0  0  0  0  0  0  0  0  0  0  0  0
  -23.1745    8.4888  -14.1213 C   0  0  0  0  0  0  0  0  0  0  0  0
  -21.7794    8.4643  -13.8700 N   0  0  0  0  0  0  0  0  0  0  0  0
  -21.1033    7.2312  -14.0818 C   0  0  0  0  0  0  0  0  0  0  0  0
  -15.2312   13.4125  -24.3960 N   0  0  0  0  0  0  0  0  0  0  0  0
  -14.2787   12.9869  -24.3925 H   0  0  0  0  0  0  0  0  0  0  0  0
  -15.6538   13.9976  -25.6255 C   0  0  0  0  0  0  0  0  0  0  0  0
  -14.8542   14.9923  -26.1441 C   0  0  0  0  0  0  0  0  0  0  0  0
  -13.6072   15.4343  -25.4203 C   0  0  0  0  0  0  0  0  0  0  0  0
  -15.1626   15.6159  -27.3265 C   0  0  0  0  0  0  0  0  0  0  0  0
  -16.3139   15.2279  -28.0128 C   0  0  0  0  0  0  0  0  0  0  0  0
  -17.0985   14.2399  -27.4874 C   0  0  0  0  0  0  0  0  0  0  0  0
  -16.7735   13.6250  -26.2991 C   0  0  0  0  0  0  0  0  0  0  0  0
  -17.7778   12.3481  -25.6131 Cl  0  0  0  0  0  0  0  0  0  0  0  0
 21 22  1  0  0  0
 22 23  1  0  0  0
 22 20  1  0  0  0
 20 18  1  0  0  0
 18 19  2  0  0  0
 19 14  1  0  0  0
 14 15  2  0  0  0
 14 16  1  0  0  0
 16 17  1  0  0  0
 16  1  1  0  0  0
  1  2  2  0  0  0
  2  3  1  0  0  0
  3  4  2  0  0  0
  4  5  1  0  0  0
  5  6  2  0  0  0
  6 24  1  0  0  0
 24 26  1  0  0  0
 26 27  2  0  0  0
 27 28  1  0  0  0
 27 29  1  0  0  0
 29 30  2  0  0  0
 30 31  1  0  0  0
 31 32  2  0  0  0
 32 33  1  0  0  0
  6  7  1  0  0  0
  7  8  2  0  0  0
  8  9  1  0  0  0
  9 10  2  0  0  0
 10 11  1  0  0  0
 11 12  1  0  0  0
 12 13  2  0  0  0
 13  1  1  0  0  0
 12  4  1  0  0  0
 32 26  1  0  0  0
 11  7  1  0  0  0
 24 25  1  0  0  0
M  END
> <minimizedAffinity>
-8.68182

> <CNNscore>
0.6196003556

> <CNNaffinity>
7.5888772011

> <CNN_VS>
4.7020711899

> <CNNaffinity_variance>
0.1529670656

$$$$
[H]/C(C(=O)N(c1c([H])c([H])c2nc(N([H])c3c(Cl)c([H])c([H])c([H])c3C([H])([H])[H])c3c([H])nc([H])n3c2c1[H])C([H])([H])[H])=C(/[H])C([H])([H])N(C([H])([H])[H])C([H])([H])[H]


 33 36  0  0  0  0  0  0  0  0999 V2000
  -18.8978   13.8210  -19.1520 C   0  0  0  0  0  0  0  0  0  0  0  0
  -18.8599   12.4965  -19.5034 C   0  0  0  0  0  0  0  0  0  0  0  0
  -18.1336   12.1416  -20.6326 C   0  0  0  0  0  0  0  0  0  0  0  0
  -17.4808   13.1271  -21.3551 C   0  0  0  0  0  0  0  0  0  0  0  0
  -16.7685   12.8221  -22.4616 N   0  0  0  0  0  0  0  0  0  0  0  0
  -16.1244   13.7405  -23.1944 C   0  0  0  0  0  0  0  0  0  0  0  0
  -16.1644   15.0823  -22.8346 C   0  0  0  0  0  0  0  0  0  0  0  0
  -15.6032   16.2060  -23.3964 C   0  0  0  0  0  0  0  0  0  0  0  0
  -15.9907   17.2318  -22.5982 N   0  0  0  0  0  0  0  0  0  0  0  0
  -16.7512   16.7363  -21.6033 C   0  0  0  0  0  0  0  0  0  0  0  0
  -16.8717   15.3912  -21.7342 N   0  0  0  0  0  0  0  0  0  0  0  0
  -17.5132   14.4632  -21.0079 C   0  0  0  0  0  0  0  0  0  0  0  0
  -18.2419   14.7928  -19.8813 C   0  0  0  0  0  0  0  0  0  0  0  0
  -21.0039   14.4553  -18.1423 C   0  0  0  0  0  0  0  0  0  0  0  0
  -21.4738   14.2960  -19.3607 O   0  0  0  0  0  0  0  0  0  0  0  0
  -19.6423   14.2656  -17.9970 N   0  0  0  0  0  0  0  0  0  0  0  0
  -18.8878   14.4784  -16.8120 C   0  0  0  0  0  0  0  0  0  0  0  0
  -22.0365   14.7342  -15.9067 C   0  0  0  0  0  0  0  0  0  0  0  0
  -22.0437   14.8007  -17.2006 C   0  0  0  0  0  0  0  0  0  0  0  0
  -23.1737   15.1216  -15.0484 C   0  0  0  0  0  0  0  0  0  0  0  0
  -22.4409   17.1344  -13.9079 C   0  0  0  0  0  0  0  0  0  0  0  0
  -22.8946   15.7926  -13.8447 N   0  0  0  0  0  0  0  0  0  0  0  0
  -23.6618   15.4197  -12.7069 C   0  0  0  0  0  0  0  0  0  0  0  0
  -15.4125   13.3732  -24.3518 N   0  0  0  0  0  0  0  0  0  0  0  0
  -14.6959   12.6152  -24.3383 H   0  0  0  0  0  0  0  0  0  0  0  0
  -15.6279   14.0126  -25.6077 C   0  0  0  0  0  0  0  0  0  0  0  0
  -16.7960   13.7006  -26.2682 C   0  0  0  0  0  0  0  0  0  0  0  0
  -17.7748   12.7162  -25.6791 C   0  0  0  0  0  0  0  0  0  0  0  0
  -17.1073   14.2660  -27.4787 C   0  0  0  0  0  0  0  0  0  0  0  0
  -16.2154   15.1763  -28.0468 C   0  0  0  0  0  0  0  0  0  0  0  0
  -15.0603   15.4771  -27.3813 C   0  0  0  0  0  0  0  0  0  0  0  0
  -14.7640   14.8998  -26.1668 C   0  0  0  0  0  0  0  0  0  0  0  0
  -13.2773   15.2818  -25.2990 Cl  0  0  0  0  0  0  0  0  0  0  0  0
 21 22  1  0  0  0
 22 23  1  0  0  0
 22 20  1  0  0  0
 20 18  1  0  0  0
 18 19  2  0  0  0
 19 14  1  0  0  0
 14 15  2  0  0  0
 14 16  1  0  0  0
 16 17  1  0  0  0
 16  1  1  0  0  0
  1  2  2  0  0  0
  2  3  1  0  0  0
  3  4  2  0  0  0
  4  5  1  0  0  0
  5  6  2  0  0  0
  6 24  1  0  0  0
 24 26  1  0  0  0
 26 27  2  0  0  0
 27 28  1  0  0  0
 27 29  1  0  0  0
 29 30  2  0  0  0
 30 31  1  0  0  0
 31 32  2  0  0  0
 32 33  1  0  0  0
  6  7  1  0  0  0
  7  8  2  0  0  0
  8  9  1  0  0  0
  9 10  2  0  0  0
 10 11  1  0  0  0
 11 12  1  0  0  0
 12 13  2  0  0  0
 13  1  1  0  0  0
 12  4  1  0  0  0
 32 26  1  0  0  0
 11  7  1  0  0  0
 24 25  1  0  0  0
M  END
> <minimizedAffinity>
-8.66107

> <CNNscore>
0.4945270121

> <CNNaffinity>
7.2827682495

> <CNN_VS>
3.6015255451

> <CNNaffinity_variance>
0.0353717059

$$$$
[H]c1c([H])c([H])c(C([H])([H])[H])c(N([H])c2nc3c([H])c(OC([H])([H])[H])c(N([H])C(=O)C#CC([H])([H])N4C([H])([H])C([H])([H])OC([H])([H])C4([H])[H])c([H])c3n3c([H])nc([H])c23)c1[H]


 37 41  0  0  0  0  0  0  0  0999 V2000
  -20.0742   14.3163  -19.8960 C   0  0  0  0  0  0  0  0  0  0  0  0
  -19.2842   14.3861  -21.0138 C   0  0  0  0  0  0  0  0  0  0  0  0
  -18.3036   13.4371  -21.2491 C   0  0  0  0  0  0  0  0  0  0  0  0
  -17.5451   13.5184  -22.3340 N   0  0  0  0  0  0  0  0  0  0  0  0
  -16.5889   12.6172  -22.5879 C   0  0  0  0  0  0  0  0  0  0  0  0
  -16.3979   11.5638  -21.6689 C   0  0  0  0  0  0  0  0  0  0  0  0
  -15.5022   10.5238  -21.6915 C   0  0  0  0  0  0  0  0  0  0  0  0
  -15.7485    9.8079  -20.5742 N   0  0  0  0  0  0  0  0  0  0  0  0
  -16.7551   10.3844  -19.8919 C   0  0  0  0  0  0  0  0  0  0  0  0
  -17.1663   11.4943  -20.5835 N   0  0  0  0  0  0  0  0  0  0  0  0
  -18.1154   12.4077  -20.3527 C   0  0  0  0  0  0  0  0  0  0  0  0
  -18.9020   12.3158  -19.2151 C   0  0  0  0  0  0  0  0  0  0  0  0
  -19.8747   13.2567  -18.9802 C   0  0  0  0  0  0  0  0  0  0  0  0
  -20.7090   13.2431  -17.8661 N   0  0  0  0  0  0  0  0  0  0  0  0
  -20.3107   13.2751  -16.5283 C   0  0  0  0  0  0  0  0  0  0  0  0
  -19.1355   13.3210  -16.1567 O   0  0  0  0  0  0  0  0  0  0  0  0
  -21.7760   13.2024  -18.0672 H   0  0  0  0  0  0  0  0  0  0  0  0
  -21.3742   13.2529  -15.5049 C   0  0  0  0  0  0  0  0  0  0  0  0
  -22.2292   13.2225  -14.6578 C   0  0  0  0  0  0  0  0  0  0  0  0
  -23.2544   13.1689  -13.6123 C   0  0  0  0  0  0  0  0  0  0  0  0
  -24.1041   12.0376  -13.7175 N   0  0  0  0  0  0  0  0  0  0  0  0
  -25.4241   12.2436  -14.1749 C   0  0  0  0  0  0  0  0  0  0  0  0
  -26.0772   10.9272  -14.4805 C   0  0  0  0  0  0  0  0  0  0  0  0
  -25.3392   10.2116  -15.4062 O   0  0  0  0  0  0  0  0  0  0  0  0
  -24.0676    9.9139  -14.9917 C   0  0  0  0  0  0  0  0  0  0  0  0
  -23.5033   10.7762  -13.9196 C   0  0  0  0  0  0  0  0  0  0  0  0
  -20.6547   16.5414  -19.1923 C   0  0  0  0  0  0  0  0  0  0  0  0
  -21.0516   15.2815  -19.6820 O   0  0  0  0  0  0  0  0  0  0  0  0
  -15.7706   12.6835  -23.7137 N   0  0  0  0  0  0  0  0  0  0  0  0
  -15.1377   11.8313  -23.8619 H   0  0  0  0  0  0  0  0  0  0  0  0
  -15.6804   13.7067  -24.6569 C   0  0  0  0  0  0  0  0  0  0  0  0
  -14.8135   14.7528  -24.6373 C   0  0  0  0  0  0  0  0  0  0  0  0
  -14.8056   15.7418  -25.6300 C   0  0  0  0  0  0  0  0  0  0  0  0
  -15.6929   15.6831  -26.6765 C   0  0  0  0  0  0  0  0  0  0  0  0
  -16.5745   14.6354  -26.7126 C   0  0  0  0  0  0  0  0  0  0  0  0
  -16.5885   13.6658  -25.7473 C   0  0  0  0  0  0  0  0  0  0  0  0
  -17.5667   12.5560  -25.8434 C   0  0  0  0  0  0  0  0  0  0  0  0
 27 28  1  0  0  0
 28  1  1  0  0  0
  1  2  2  0  0  0
  2  3  1  0  0  0
  3  4  1  0  0  0
  4  5  2  0  0  0
  5 29  1  0  0  0
 29 31  1  0  0  0
 31 32  2  0  0  0
 32 33  1  0  0  0
 33 34  2  0  0  0
 34 35  1  0  0  0
 35 36  2  0  0  0
 36 37  1  0  0  0
  5  6  1  0  0  0
  6  7  2  0  0  0
  7  8  1  0  0  0
  8  9  2  0  0  0
  9 10  1  0  0  0
 10 11  1  0  0  0
 11 12  1  0  0  0
 12 13  2  0  0  0
 13 14  1  0  0  0
 14 15  1  0  0  0
 15 16  2  0  0  0
 15 18  1  0  0  0
 18 19  3  0  0  0
 19 20  1  0  0  0
 20 21  1  0  0  0
 21 22  1  0  0  0
 22 23  1  0  0  0
 23 24  1  0  0  0
 24 25  1  0  0  0
 25 26  1  0  0  0
 13  1  1  0  0  0
 26 21  1  0  0  0
 11  3  2  0  0  0
 36 31  1  0  0  0
 10  6  1  0  0  0
 29 30  1  0  0  0
 14 17  1  0  0  0
M  END
> <minimizedAffinity>
-8.93632

> <CNNscore>
0.9487208724

> <CNNaffinity>
7.6158118248

> <CNN_VS>
7.2252798080

> <CNNaffinity_variance>
0.0137234600

$$$$
[H]c1c([H])c([H])c(C([H])([H])[H])c(N([H])c2nc3c([H])c(OC([H])([H])[H])c(N([H])C(=O)C#CC([H])([H])N4C([H])([H])C([H])([H])OC([H])([H])C4([H])[H])c([H])c3n3c([H])nc([H])c23)c1[H]


 37 41  0  0  0  0  0  0  0  0999 V2000
  -19.9274   14.4500  -19.6053 C   0  0  0  0  0  0  0  0  0  0  0  0
  -19.2440   14.4359  -20.7933 C   0  0  0  0  0  0  0  0  0  0  0  0
  -18.2967   13.4602  -21.0544 C   0  0  0  0  0  0  0  0  0  0  0  0
  -17.6415   13.4602  -22.2076 N   0  0  0  0  0  0  0  0  0  0  0  0
  -16.7197   12.5313  -22.4881 C   0  0  0  0  0  0  0  0  0  0  0  0
  -16.4522   11.5377  -21.5228 C   0  0  0  0  0  0  0  0  0  0  0  0
  -15.5703   10.4865  -21.5587 C   0  0  0  0  0  0  0  0  0  0  0  0
  -15.7171    9.8485  -20.3784 N   0  0  0  0  0  0  0  0  0  0  0  0
  -16.6518   10.4821  -19.6461 C   0  0  0  0  0  0  0  0  0  0  0  0
  -17.1171   11.5499  -20.3690 N   0  0  0  0  0  0  0  0  0  0  0  0
  -18.0338   12.4892  -20.1129 C   0  0  0  0  0  0  0  0  0  0  0  0
  -18.7121   12.4826  -18.9041 C   0  0  0  0  0  0  0  0  0  0  0  0
  -19.6517   13.4500  -18.6435 C   0  0  0  0  0  0  0  0  0  0  0  0
  -20.3790   13.5205  -17.4588 N   0  0  0  0  0  0  0  0  0  0  0  0
  -20.7095   12.4538  -16.6209 C   0  0  0  0  0  0  0  0  0  0  0  0
  -20.3884   11.2819  -16.8325 O   0  0  0  0  0  0  0  0  0  0  0  0
  -20.7207   14.5092  -17.1648 H   0  0  0  0  0  0  0  0  0  0  0  0
  -21.4923   12.7631  -15.4083 C   0  0  0  0  0  0  0  0  0  0  0  0
  -22.1442   13.0270  -14.4311 C   0  0  0  0  0  0  0  0  0  0  0  0
  -22.9535   13.3638  -13.2569 C   0  0  0  0  0  0  0  0  0  0  0  0
  -23.8175   14.4689  -13.4695 N   0  0  0  0  0  0  0  0  0  0  0  0
  -23.2293   15.7316  -13.7011 C   0  0  0  0  0  0  0  0  0  0  0  0
  -24.2682   16.7080  -14.1705 C   0  0  0  0  0  0  0  0  0  0  0  0
  -24.9063   16.2439  -15.3068 O   0  0  0  0  0  0  0  0  0  0  0  0
  -25.5613   15.0537  -15.1285 C   0  0  0  0  0  0  0  0  0  0  0  0
  -25.1036   14.2115  -13.9914 C   0  0  0  0  0  0  0  0  0  0  0  0
  -20.4255   16.7588  -19.1527 C   0  0  0  0  0  0  0  0  0  0  0  0
  -20.8734   15.4404  -19.3667 O   0  0  0  0  0  0  0  0  0  0  0  0
  -16.0090   12.5128  -23.6864 N   0  0  0  0  0  0  0  0  0  0  0  0
  -15.5695   11.5674  -23.9353 H   0  0  0  0  0  0  0  0  0  0  0  0
  -15.8074   13.5579  -24.5874 C   0  0  0  0  0  0  0  0  0  0  0  0
  -14.8894   14.5539  -24.4807 C   0  0  0  0  0  0  0  0  0  0  0  0
  -14.7684   15.5710  -25.4371 C   0  0  0  0  0  0  0  0  0  0  0  0
  -15.5917   15.5929  -26.5360 C   0  0  0  0  0  0  0  0  0  0  0  0
  -16.5235   14.5965  -26.6600 C   0  0  0  0  0  0  0  0  0  0  0  0
  -16.6477   13.6001  -25.7307 C   0  0  0  0  0  0  0  0  0  0  0  0
  -17.6753   12.5488  -25.9225 C   0  0  0  0  0  0  0  0  0  0  0  0
 27 28  1  0  0  0
 28  1  1  0  0  0
  1  2  2  0  0  0
  2  3  1  0  0  0
  3  4  1  0  0  0
  4  5  2  0  0  0
  5 29  1  0  0  0
 29 31  1  0  0  0
 31 32  2  0  0  0
 32 33  1  0  0  0
 33 34  2  0  0  0
 34 35  1  0  0  0
 35 36  2  0  0  0
 36 37  1  0  0  0
  5  6  1  0  0  0
  6  7  2  0  0  0
  7  8  1  0  0  0
  8  9  2  0  0  0
  9 10  1  0  0  0
 10 11  1  0  0  0
 11 12  1  0  0  0
 12 13  2  0  0  0
 13 14  1  0  0  0
 14 15  1  0  0  0
 15 16  2  0  0  0
 15 18  1  0  0  0
 18 19  3  0  0  0
 19 20  1  0  0  0
 20 21  1  0  0  0
 21 22  1  0  0  0
 22 23  1  0  0  0
 23 24  1  0  0  0
 24 25  1  0  0  0
 25 26  1  0  0  0
 13  1  1  0  0  0
 26 21  1  0  0  0
 11  3  2  0  0  0
 36 31  1  0  0  0
 10  6  1  0  0  0
 29 30  1  0  0  0
 14 17  1  0  0  0
M  END
> <minimizedAffinity>
-8.85010

> <CNNscore>
0.9459630847

> <CNNaffinity>
7.6645402908

> <CNN_VS>
7.2503724098

> <CNNaffinity_variance>
0.0407411419

$$$$
[H]c1c([H])c([H])c(C([H])([H])[H])c(N([H])c2nc3c([H])c(OC([H])([H])[H])c(N([H])C(=O)C#CC([H])([H])N4C([H])([H])C([H])([H])OC([H])([H])C4([H])[H])c([H])c3n3c([H])nc([H])c23)c1[H]


 37 41  0  0  0  0  0  0  0  0999 V2000
  -19.7788   14.5762  -19.6289 C   0  0  0  0  0  0  0  0  0  0  0  0
  -19.0419   14.6065  -20.7841 C   0  0  0  0  0  0  0  0  0  0  0  0
  -18.1416   13.5959  -21.0771 C   0  0  0  0  0  0  0  0  0  0  0  0
  -17.4336   13.6394  -22.1978 N   0  0  0  0  0  0  0  0  0  0  0  0
  -16.5552   12.6784  -22.5077 C   0  0  0  0  0  0  0  0  0  0  0  0
  -16.3921   11.6026  -21.6095 C   0  0  0  0  0  0  0  0  0  0  0  0
  -15.5722   10.5044  -21.6867 C   0  0  0  0  0  0  0  0  0  0  0  0
  -15.8118    9.7925  -20.5654 N   0  0  0  0  0  0  0  0  0  0  0  0
  -16.7417   10.4274  -19.8282 C   0  0  0  0  0  0  0  0  0  0  0  0
  -17.1092   11.5717  -20.4878 N   0  0  0  0  0  0  0  0  0  0  0  0
  -17.9807   12.5446  -20.2011 C   0  0  0  0  0  0  0  0  0  0  0  0
  -18.7148   12.4918  -19.0266 C   0  0  0  0  0  0  0  0  0  0  0  0
  -19.6079   13.4937  -18.7344 C   0  0  0  0  0  0  0  0  0  0  0  0
  -20.3852   13.5225  -17.5802 N   0  0  0  0  0  0  0  0  0  0  0  0
  -20.4496   12.5346  -16.5958 C   0  0  0  0  0  0  0  0  0  0  0  0
  -19.8064   11.4826  -16.6275 O   0  0  0  0  0  0  0  0  0  0  0  0
  -21.0016   14.4062  -17.4398 H   0  0  0  0  0  0  0  0  0  0  0  0
  -21.3477   12.7784  -15.4499 C   0  0  0  0  0  0  0  0  0  0  0  0
  -22.0687   12.9944  -14.5103 C   0  0  0  0  0  0  0  0  0  0  0  0
  -22.9306   13.2783  -13.3598 C   0  0  0  0  0  0  0  0  0  0  0  0
  -22.7948   12.3330  -12.3105 N   0  0  0  0  0  0  0  0  0  0  0  0
  -22.3914   12.8073  -11.0430 C   0  0  0  0  0  0  0  0  0  0  0  0
  -22.5658   11.7331  -10.0091 C   0  0  0  0  0  0  0  0  0  0  0  0
  -23.8743   11.2855   -9.9762 O   0  0  0  0  0  0  0  0  0  0  0  0
  -24.3055   10.7438  -11.1585 C   0  0  0  0  0  0  0  0  0  0  0  0
  -23.5640   11.1516  -12.3814 C   0  0  0  0  0  0  0  0  0  0  0  0
  -21.7031   15.8601  -20.2862 C   0  0  0  0  0  0  0  0  0  0  0  0
  -20.6758   15.6030  -19.3571 O   0  0  0  0  0  0  0  0  0  0  0  0
  -15.7907   12.7034  -23.6723 N   0  0  0  0  0  0  0  0  0  0  0  0
  -14.8945   12.1166  -23.6360 H   0  0  0  0  0  0  0  0  0  0  0  0
  -16.0490   13.3858  -24.8606 C   0  0  0  0  0  0  0  0  0  0  0  0
  -17.0174   13.0949  -25.7682 C   0  0  0  0  0  0  0  0  0  0  0  0
  -17.1938   13.8366  -26.9440 C   0  0  0  0  0  0  0  0  0  0  0  0
  -16.3755   14.9041  -27.2215 C   0  0  0  0  0  0  0  0  0  0  0  0
  -15.3934   15.2120  -26.3177 C   0  0  0  0  0  0  0  0  0  0  0  0
  -15.2149   14.4928  -25.1675 C   0  0  0  0  0  0  0  0  0  0  0  0
  -14.1342   14.8771  -24.2281 C   0  0  0  0  0  0  0  0  0  0  0  0
 27 28  1  0  0  0
 28  1  1  0  0  0
  1  2  2  0  0  0
  2  3  1  0  0  0
  3  4  1  0  0  0
  4  5  2  0  0  0
  5 29  1  0  0  0
 29 31  1  0  0  0
 31 32  2  0  0  0
 32 33  1  0  0  0
 33 34  2  0  0  0
 34 35  1  0  0  0
 35 36  2  0  0  0
 36 37  1  0  0  0
  5  6  1  0  0  0
  6  7  2  0  0  0
  7  8  1  0  0  0
  8  9  2  0  0  0
  9 10  1  0  0  0
 10 11  1  0  0  0
 11 12  1  0  0  0
 12 13  2  0  0  0
 13 14  1  0  0  0
 14 15  1  0  0  0
 15 16  2  0  0  0
 15 18  1  0  0  0
 18 19  3  0  0  0
 19 20  1  0  0  0
 20 21  1  0  0  0
 21 22  1  0  0  0
 22 23  1  0  0  0
 23 24  1  0  0  0
 24 25  1  0  0  0
 25 26  1  0  0  0
 13  1  1  0  0  0
 26 21  1  0  0  0
 11  3  2  0  0  0
 36 31  1  0  0  0
 10  6  1  0  0  0
 29 30  1  0  0  0
 14 17  1  0  0  0
M  END
> <minimizedAffinity>
-8.44166

> <CNNscore>
0.9142412543

> <CNNaffinity>
7.5399637222

> <CNN_VS>
6.8933458328

> <CNNaffinity_variance>
0.0615478158

$$$$
[H]c1c([H])c([H])c(C([H])([H])[H])c(N([H])c2nc3c([H])c(OC([H])([H])[H])c(N([H])C(=O)C#CC([H])([H])N4C([H])([H])C([H])([H])OC([H])([H])C4([H])[H])c([H])c3n3c([H])nc([H])c23)c1[H]


 37 41  0  0  0  0  0  0  0  0999 V2000
  -20.1424   14.5346  -19.9373 C   0  0  0  0  0  0  0  0  0  0  0  0
  -19.3347   14.5410  -21.0446 C   0  0  0  0  0  0  0  0  0  0  0  0
  -18.3791   13.5561  -21.2304 C   0  0  0  0  0  0  0  0  0  0  0  0
  -17.6030   13.5761  -22.3057 N   0  0  0  0  0  0  0  0  0  0  0  0
  -16.6700   12.6390  -22.5123 C   0  0  0  0  0  0  0  0  0  0  0  0
  -16.5233   11.6146  -21.5532 C   0  0  0  0  0  0  0  0  0  0  0  0
  -15.6584   10.5492  -21.5246 C   0  0  0  0  0  0  0  0  0  0  0  0
  -15.9417    9.8817  -20.3862 N   0  0  0  0  0  0  0  0  0  0  0  0
  -16.9407   10.5114  -19.7407 C   0  0  0  0  0  0  0  0  0  0  0  0
  -17.3091   11.6069  -20.4780 N   0  0  0  0  0  0  0  0  0  0  0  0
  -18.2342   12.5550  -20.2949 C   0  0  0  0  0  0  0  0  0  0  0  0
  -19.0395   12.5272  -19.1670 C   0  0  0  0  0  0  0  0  0  0  0  0
  -19.9874   13.5037  -18.9811 C   0  0  0  0  0  0  0  0  0  0  0  0
  -20.8377   13.5546  -17.8803 N   0  0  0  0  0  0  0  0  0  0  0  0
  -20.7033   14.3810  -16.7631 C   0  0  0  0  0  0  0  0  0  0  0  0
  -19.7876   15.1927  -16.6083 O   0  0  0  0  0  0  0  0  0  0  0  0
  -21.6884   12.8790  -17.9006 H   0  0  0  0  0  0  0  0  0  0  0  0
  -21.7299   14.2658  -15.7087 C   0  0  0  0  0  0  0  0  0  0  0  0
  -22.5824   14.1716  -14.8637 C   0  0  0  0  0  0  0  0  0  0  0  0
  -23.6387   14.0581  -13.8545 C   0  0  0  0  0  0  0  0  0  0  0  0
  -23.9213   15.2838  -13.1982 N   0  0  0  0  0  0  0  0  0  0  0  0
  -23.6557   15.3679  -11.8139 C   0  0  0  0  0  0  0  0  0  0  0  0
  -23.7525   16.7935  -11.3541 C   0  0  0  0  0  0  0  0  0  0  0  0
  -22.8929   17.6049  -12.0727 O   0  0  0  0  0  0  0  0  0  0  0  0
  -23.1450   17.6255  -13.4193 C   0  0  0  0  0  0  0  0  0  0  0  0
  -23.8981   16.4667  -13.9683 C   0  0  0  0  0  0  0  0  0  0  0  0
  -20.7799   16.8377  -20.2073 C   0  0  0  0  0  0  0  0  0  0  0  0
  -21.0940   15.5348  -19.7733 O   0  0  0  0  0  0  0  0  0  0  0  0
  -15.8341   12.6408  -23.6269 N   0  0  0  0  0  0  0  0  0  0  0  0
  -15.2411   11.7561  -23.7472 H   0  0  0  0  0  0  0  0  0  0  0  0
  -15.6813   13.6372  -24.5905 C   0  0  0  0  0  0  0  0  0  0  0  0
  -14.7537   14.6300  -24.5897 C   0  0  0  0  0  0  0  0  0  0  0  0
  -14.6850   15.5962  -25.6023 C   0  0  0  0  0  0  0  0  0  0  0  0
  -15.5723   15.5689  -26.6501 C   0  0  0  0  0  0  0  0  0  0  0  0
  -16.5147   14.5749  -26.6675 C   0  0  0  0  0  0  0  0  0  0  0  0
  -16.5882   13.6280  -25.6827 C   0  0  0  0  0  0  0  0  0  0  0  0
  -17.6306   12.5766  -25.7590 C   0  0  0  0  0  0  0  0  0  0  0  0
 27 28  1  0  0  0
 28  1  1  0  0  0
  1  2  2  0  0  0
  2  3  1  0  0  0
  3  4  1  0  0  0
  4  5  2  0  0  0
  5 29  1  0  0  0
 29 31  1  0  0  0
 31 32  2  0  0  0
 32 33  1  0  0  0
 33 34  2  0  0  0
 34 35  1  0  0  0
 35 36  2  0  0  0
 36 37  1  0  0  0
  5  6  1  0  0  0
  6  7  2  0  0  0
  7  8  1  0  0  0
  8  9  2  0  0  0
  9 10  1  0  0  0
 10 11  1  0  0  0
 11 12  1  0  0  0
 12 13  2  0  0  0
 13 14  1  0  0  0
 14 15  1  0  0  0
 15 16  2  0  0  0
 15 18  1  0  0  0
 18 19  3  0  0  0
 19 20  1  0  0  0
 20 21  1  0  0  0
 21 22  1  0  0  0
 22 23  1  0  0  0
 23 24  1  0  0  0
 24 25  1  0  0  0
 25 26  1  0  0  0
 13  1  1  0  0  0
 26 21  1  0  0  0
 11  3  2  0  0  0
 36 31  1  0  0  0
 10  6  1  0  0  0
 29 30  1  0  0  0
 14 17  1  0  0  0
M  END
> <minimizedAffinity>
-8.80431

> <CNNscore>
0.9116905928

> <CNNaffinity>
7.5977768898

> <CNN_VS>
6.9268217087

> <CNNaffinity_variance>
0.1306288093

$$$$
[H]c1c([H])c([H])c(C([H])([H])[H])c(N([H])c2nc3c([H])c(OC([H])([H])[H])c(N([H])C(=O)C#CC([H])([H])N4C([H])([H])C([H])([H])OC([H])([H])C4([H])[H])c([H])c3n3c([H])nc([H])c23)c1[H]


 37 41  0  0  0  0  0  0  0  0999 V2000
  -20.1140   14.5450  -20.0126 C   0  0  0  0  0  0  0  0  0  0  0  0
  -19.3109   14.5539  -21.1232 C   0  0  0  0  0  0  0  0  0  0  0  0
  -18.3468   13.5773  -21.3086 C   0  0  0  0  0  0  0  0  0  0  0  0
  -17.5753   13.5997  -22.3872 N   0  0  0  0  0  0  0  0  0  0  0  0
  -16.6344   12.6705  -22.5933 C   0  0  0  0  0  0  0  0  0  0  0  0
  -16.4741   11.6520  -21.6302 C   0  0  0  0  0  0  0  0  0  0  0  0
  -15.5990   10.5949  -21.6004 C   0  0  0  0  0  0  0  0  0  0  0  0
  -15.8713    9.9299  -20.4578 N   0  0  0  0  0  0  0  0  0  0  0  0
  -16.8736   10.5531  -19.8111 C   0  0  0  0  0  0  0  0  0  0  0  0
  -17.2553   11.6417  -20.5518 N   0  0  0  0  0  0  0  0  0  0  0  0
  -18.1886   12.5819  -20.3691 C   0  0  0  0  0  0  0  0  0  0  0  0
  -18.9890   12.5516  -19.2378 C   0  0  0  0  0  0  0  0  0  0  0  0
  -19.9454   13.5199  -19.0524 C   0  0  0  0  0  0  0  0  0  0  0  0
  -20.7915   13.5678  -17.9483 N   0  0  0  0  0  0  0  0  0  0  0  0
  -20.6031   14.3210  -16.7880 C   0  0  0  0  0  0  0  0  0  0  0  0
  -19.6350   15.0596  -16.5916 O   0  0  0  0  0  0  0  0  0  0  0  0
  -21.6859   12.9531  -18.0033 H   0  0  0  0  0  0  0  0  0  0  0  0
  -21.6364   14.2178  -15.7389 C   0  0  0  0  0  0  0  0  0  0  0  0
  -22.4774   14.1124  -14.8838 C   0  0  0  0  0  0  0  0  0  0  0  0
  -23.4993   13.9573  -13.8452 C   0  0  0  0  0  0  0  0  0  0  0  0
  -23.3638   12.7577  -13.0998 N   0  0  0  0  0  0  0  0  0  0  0  0
  -23.6225   11.5370  -13.7610 C   0  0  0  0  0  0  0  0  0  0  0  0
  -23.1698   10.3836  -12.9137 C   0  0  0  0  0  0  0  0  0  0  0  0
  -21.8284   10.4992  -12.5960 O   0  0  0  0  0  0  0  0  0  0  0  0
  -21.5216   11.6307  -11.8868 C   0  0  0  0  0  0  0  0  0  0  0  0
  -22.4822   12.7605  -11.9973 C   0  0  0  0  0  0  0  0  0  0  0  0
  -20.6427   16.8534  -19.5945 C   0  0  0  0  0  0  0  0  0  0  0  0
  -21.0744   15.5368  -19.8492 O   0  0  0  0  0  0  0  0  0  0  0  0
  -15.8030   12.6752  -23.7114 N   0  0  0  0  0  0  0  0  0  0  0  0
  -15.1895   11.8031  -23.8206 H   0  0  0  0  0  0  0  0  0  0  0  0
  -15.6780   13.6599  -24.6908 C   0  0  0  0  0  0  0  0  0  0  0  0
  -14.7667   14.6674  -24.7153 C   0  0  0  0  0  0  0  0  0  0  0  0
  -14.7257   15.6199  -25.7423 C   0  0  0  0  0  0  0  0  0  0  0  0
  -15.6250   15.5634  -26.7787 C   0  0  0  0  0  0  0  0  0  0  0  0
  -16.5513   14.5543  -26.7705 C   0  0  0  0  0  0  0  0  0  0  0  0
  -16.5976   13.6205  -25.7716 C   0  0  0  0  0  0  0  0  0  0  0  0
  -17.6237   12.5516  -25.8204 C   0  0  0  0  0  0  0  0  0  0  0  0
 27 28  1  0  0  0
 28  1  1  0  0  0
  1  2  2  0  0  0
  2  3  1  0  0  0
  3  4  1  0  0  0
  4  5  2  0  0  0
  5 29  1  0  0  0
 29 31  1  0  0  0
 31 32  2  0  0  0
 32 33  1  0  0  0
 33 34  2  0  0  0
 34 35  1  0  0  0
 35 36  2  0  0  0
 36 37  1  0  0  0
  5  6  1  0  0  0
  6  7  2  0  0  0
  7  8  1  0  0  0
  8  9  2  0  0  0
  9 10  1  0  0  0
 10 11  1  0  0  0
 11 12  1  0  0  0
 12 13  2  0  0  0
 13 14  1  0  0  0
 14 15  1  0  0  0
 15 16  2  0  0  0
 15 18  1  0  0  0
 18 19  3  0  0  0
 19 20  1  0  0  0
 20 21  1  0  0  0
 21 22  1  0  0  0
 22 23  1  0  0  0
 23 24  1  0  0  0
 24 25  1  0  0  0
 25 26  1  0  0  0
 13  1  1  0  0  0
 26 21  1  0  0  0
 11  3  2  0  0  0
 36 31  1  0  0  0
 10  6  1  0  0  0
 29 30  1  0  0  0
 14 17  1  0  0  0
M  END
> <minimizedAffinity>
-8.97321

> <CNNscore>
0.8976598382

> <CNNaffinity>
7.5627098083

> <CNN_VS>
6.7887406349

> <CNNaffinity_variance>
0.0524819195

$$$$
[H]c1c([H])c([H])c(C([H])([H])[H])c(N([H])c2nc3c([H])c(OC([H])([H])[H])c(N([H])C(=O)C#CC([H])([H])N4C([H])([H])C([H])([H])OC([H])([H])C4([H])[H])c([H])c3n3c([H])nc([H])c23)c1[H]


 37 41  0  0  0  0  0  0  0  0999 V2000
  -19.9097   12.4517  -17.7860 C   0  0  0  0  0  0  0  0  0  0  0  0
  -19.5366   13.2109  -18.8644 C   0  0  0  0  0  0  0  0  0  0  0  0
  -18.5196   12.7941  -19.7067 C   0  0  0  0  0  0  0  0  0  0  0  0
  -18.1677   13.5401  -20.7453 N   0  0  0  0  0  0  0  0  0  0  0  0
  -17.1880   13.1644  -21.5762 C   0  0  0  0  0  0  0  0  0  0  0  0
  -16.5258   11.9441  -21.3253 C   0  0  0  0  0  0  0  0  0  0  0  0
  -15.5043   11.3364  -22.0119 C   0  0  0  0  0  0  0  0  0  0  0  0
  -15.2504   10.1901  -21.3460 N   0  0  0  0  0  0  0  0  0  0  0  0
  -16.0823   10.0968  -20.2923 C   0  0  0  0  0  0  0  0  0  0  0  0
  -16.8891   11.2051  -20.2787 N   0  0  0  0  0  0  0  0  0  0  0  0
  -17.8716   11.6028  -19.4632 C   0  0  0  0  0  0  0  0  0  0  0  0
  -18.2311   10.8176  -18.3791 C   0  0  0  0  0  0  0  0  0  0  0  0
  -19.2395   11.2299  -17.5424 C   0  0  0  0  0  0  0  0  0  0  0  0
  -19.6654   10.5069  -16.4320 N   0  0  0  0  0  0  0  0  0  0  0  0
  -19.5490    9.1286  -16.2422 C   0  0  0  0  0  0  0  0  0  0  0  0
  -19.0391    8.3578  -17.0591 O   0  0  0  0  0  0  0  0  0  0  0  0
  -20.1355   11.0809  -15.6382 H   0  0  0  0  0  0  0  0  0  0  0  0
  -20.0730    8.5727  -14.9791 C   0  0  0  0  0  0  0  0  0  0  0  0
  -20.5192    8.1161  -13.9584 C   0  0  0  0  0  0  0  0  0  0  0  0
  -21.0863    7.5577  -12.7280 C   0  0  0  0  0  0  0  0  0  0  0  0
  -20.2051    7.6355  -11.6187 N   0  0  0  0  0  0  0  0  0  0  0  0
  -19.1487    6.7010  -11.5482 C   0  0  0  0  0  0  0  0  0  0  0  0
  -18.1757    7.1000  -10.4771 C   0  0  0  0  0  0  0  0  0  0  0  0
  -17.6922    8.3770  -10.6984 O   0  0  0  0  0  0  0  0  0  0  0  0
  -18.6625    9.3444  -10.7050 C   0  0  0  0  0  0  0  0  0  0  0  0
  -20.0496    8.8869  -10.9845 C   0  0  0  0  0  0  0  0  0  0  0  0
  -21.2658   14.2610  -16.9670 C   0  0  0  0  0  0  0  0  0  0  0  0
  -20.9335   12.8920  -16.9548 O   0  0  0  0  0  0  0  0  0  0  0  0
  -16.7905   13.9326  -22.6685 N   0  0  0  0  0  0  0  0  0  0  0  0
  -16.2805   14.8416  -22.4187 H   0  0  0  0  0  0  0  0  0  0  0  0
  -16.9704   13.6636  -24.0249 C   0  0  0  0  0  0  0  0  0  0  0  0
  -17.7156   12.6616  -24.5606 C   0  0  0  0  0  0  0  0  0  0  0  0
  -17.8282   12.4645  -25.9433 C   0  0  0  0  0  0  0  0  0  0  0  0
  -17.1748   13.2962  -26.8193 C   0  0  0  0  0  0  0  0  0  0  0  0
  -16.4187   14.3121  -26.2971 C   0  0  0  0  0  0  0  0  0  0  0  0
  -16.3038   14.5111  -24.9484 C   0  0  0  0  0  0  0  0  0  0  0  0
  -15.4710   15.6297  -24.4452 C   0  0  0  0  0  0  0  0  0  0  0  0
 27 28  1  0  0  0
 28  1  1  0  0  0
  1  2  2  0  0  0
  2  3  1  0  0  0
  3  4  1  0  0  0
  4  5  2  0  0  0
  5 29  1  0  0  0
 29 31  1  0  0  0
 31 32  2  0  0  0
 32 33  1  0  0  0
 33 34  2  0  0  0
 34 35  1  0  0  0
 35 36  2  0  0  0
 36 37  1  0  0  0
  5  6  1  0  0  0
  6  7  2  0  0  0
  7  8  1  0  0  0
  8  9  2  0  0  0
  9 10  1  0  0  0
 10 11  1  0  0  0
 11 12  1  0  0  0
 12 13  2  0  0  0
 13 14  1  0  0  0
 14 15  1  0  0  0
 15 16  2  0  0  0
 15 18  1  0  0  0
 18 19  3  0  0  0
 19 20  1  0  0  0
 20 21  1  0  0  0
 21 22  1  0  0  0
 22 23  1  0  0  0
 23 24  1  0  0  0
 24 25  1  0  0  0
 25 26  1  0  0  0
 13  1  1  0  0  0
 26 21  1  0  0  0
 11  3  2  0  0  0
 36 31  1  0  0  0
 10  6  1  0  0  0
 29 30  1  0  0  0
 14 17  1  0  0  0
M  END
> <minimizedAffinity>
-8.59998

> <CNNscore>
0.8871567249

> <CNNaffinity>
7.6931319237

> <CNN_VS>
6.8250136375

> <CNNaffinity_variance>
0.1735359132

$$$$
[H]c1c([H])c([H])c(C([H])([H])[H])c(N([H])c2nc3c([H])c(OC([H])([H])[H])c(N([H])C(=O)C#CC([H])([H])N4C([H])([H])C([H])([H])OC([H])([H])C4([H])[H])c([H])c3n3c([H])nc([H])c23)c1[H]


 37 41  0  0  0  0  0  0  0  0999 V2000
  -20.1997   13.0578  -18.0487 C   0  0  0  0  0  0  0  0  0  0  0  0
  -19.8345   13.5169  -19.2873 C   0  0  0  0  0  0  0  0  0  0  0  0
  -18.8043   12.9156  -19.9907 C   0  0  0  0  0  0  0  0  0  0  0  0
  -18.4603   13.3720  -21.1875 N   0  0  0  0  0  0  0  0  0  0  0  0
  -17.4684   12.8126  -21.8906 C   0  0  0  0  0  0  0  0  0  0  0  0
  -16.7845   11.7134  -21.3295 C   0  0  0  0  0  0  0  0  0  0  0  0
  -15.7472   10.9685  -21.8328 C   0  0  0  0  0  0  0  0  0  0  0  0
  -15.4755   10.0408  -20.8908 N   0  0  0  0  0  0  0  0  0  0  0  0
  -16.3121   10.2086  -19.8500 C   0  0  0  0  0  0  0  0  0  0  0  0
  -17.1401   11.2657  -20.1268 N   0  0  0  0  0  0  0  0  0  0  0  0
  -18.1351   11.8423  -19.4443 C   0  0  0  0  0  0  0  0  0  0  0  0
  -18.4864   11.3598  -18.1933 C   0  0  0  0  0  0  0  0  0  0  0  0
  -19.5077   11.9555  -17.4942 C   0  0  0  0  0  0  0  0  0  0  0  0
  -19.9267   11.5385  -16.2341 N   0  0  0  0  0  0  0  0  0  0  0  0
  -20.0585   10.2196  -15.7956 C   0  0  0  0  0  0  0  0  0  0  0  0
  -19.8125    9.2309  -16.4910 O   0  0  0  0  0  0  0  0  0  0  0  0
  -20.1750   12.3255  -15.5272 H   0  0  0  0  0  0  0  0  0  0  0  0
  -20.5215   10.0102  -14.4098 C   0  0  0  0  0  0  0  0  0  0  0  0
  -20.9148    9.8268  -13.2867 C   0  0  0  0  0  0  0  0  0  0  0  0
  -21.4137    9.5887  -11.9297 C   0  0  0  0  0  0  0  0  0  0  0  0
  -22.0285    8.3197  -11.7728 N   0  0  0  0  0  0  0  0  0  0  0  0
  -23.1563    8.0293  -12.5715 C   0  0  0  0  0  0  0  0  0  0  0  0
  -23.4989    6.5713  -12.4723 C   0  0  0  0  0  0  0  0  0  0  0  0
  -22.4208    5.7837  -12.8342 O   0  0  0  0  0  0  0  0  0  0  0  0
  -21.3129    5.9645  -12.0485 C   0  0  0  0  0  0  0  0  0  0  0  0
  -21.2308    7.2517  -11.3083 C   0  0  0  0  0  0  0  0  0  0  0  0
  -21.0889   15.0334  -17.0048 C   0  0  0  0  0  0  0  0  0  0  0  0
  -21.2370   13.6788  -17.3622 O   0  0  0  0  0  0  0  0  0  0  0  0
  -17.0788   13.2773  -23.1451 N   0  0  0  0  0  0  0  0  0  0  0  0
  -16.8402   12.5110  -23.8556 H   0  0  0  0  0  0  0  0  0  0  0  0
  -16.9673   14.5972  -23.5809 C   0  0  0  0  0  0  0  0  0  0  0  0
  -17.9808   15.4897  -23.7301 C   0  0  0  0  0  0  0  0  0  0  0  0
  -17.7702   16.7979  -24.1862 C   0  0  0  0  0  0  0  0  0  0  0  0
  -16.5051   17.2280  -24.5033 C   0  0  0  0  0  0  0  0  0  0  0  0
  -15.4708   16.3415  -24.3590 C   0  0  0  0  0  0  0  0  0  0  0  0
  -15.6683   15.0628  -23.9143 C   0  0  0  0  0  0  0  0  0  0  0  0
  -14.5071   14.1512  -23.7781 C   0  0  0  0  0  0  0  0  0  0  0  0
 27 28  1  0  0  0
 28  1  1  0  0  0
  1  2  2  0  0  0
  2  3  1  0  0  0
  3  4  1  0  0  0
  4  5  2  0  0  0
  5 29  1  0  0  0
 29 31  1  0  0  0
 31 32  2  0  0  0
 32 33  1  0  0  0
 33 34  2  0  0  0
 34 35  1  0  0  0
 35 36  2  0  0  0
 36 37  1  0  0  0
  5  6  1  0  0  0
  6  7  2  0  0  0
  7  8  1  0  0  0
  8  9  2  0  0  0
  9 10  1  0  0  0
 10 11  1  0  0  0
 11 12  1  0  0  0
 12 13  2  0  0  0
 13 14  1  0  0  0
 14 15  1  0  0  0
 15 16  2  0  0  0
 15 18  1  0  0  0
 18 19  3  0  0  0
 19 20  1  0  0  0
 20 21  1  0  0  0
 21 22  1  0  0  0
 22 23  1  0  0  0
 23 24  1  0  0  0
 24 25  1  0  0  0
 25 26  1  0  0  0
 13  1  1  0  0  0
 26 21  1  0  0  0
 11  3  2  0  0  0
 36 31  1  0  0  0
 10  6  1  0  0  0
 29 30  1  0  0  0
 14 17  1  0  0  0
M  END
> <minimizedAffinity>
-7.96454

> <CNNscore>
0.8796574473

> <CNNaffinity>
7.5325136185

> <CNN_VS>
6.6260318756

> <CNNaffinity_variance>
0.1340599805

$$$$
[H]c1c([H])c([H])c(C([H])([H])[H])c(N([H])c2nc3c([H])c(OC([H])([H])[H])c(N([H])C(=O)C#CC([H])([H])N4C([H])([H])C([H])([H])OC([H])([H])C4([H])[H])c([H])c3n3c([H])nc([H])c23)c1[H]


 37 41  0  0  0  0  0  0  0  0999 V2000
  -20.2292   13.7248  -18.2045 C   0  0  0  0  0  0  0  0  0  0  0  0
  -19.8628   13.8777  -19.5163 C   0  0  0  0  0  0  0  0  0  0  0  0
  -18.8642   13.0937  -20.0692 C   0  0  0  0  0  0  0  0  0  0  0  0
  -18.5186   13.2541  -21.3396 N   0  0  0  0  0  0  0  0  0  0  0  0
  -17.5566   12.5125  -21.9016 C   0  0  0  0  0  0  0  0  0  0  0  0
  -16.9066   11.5432  -21.1089 C   0  0  0  0  0  0  0  0  0  0  0  0
  -15.9036   10.6643  -21.4345 C   0  0  0  0  0  0  0  0  0  0  0  0
  -15.6544    9.9638  -20.3080 N   0  0  0  0  0  0  0  0  0  0  0  0
  -16.4714   10.3946  -19.3291 C   0  0  0  0  0  0  0  0  0  0  0  0
  -17.2633   11.3928  -19.8347 N   0  0  0  0  0  0  0  0  0  0  0  0
  -18.2280   12.1467  -19.2967 C   0  0  0  0  0  0  0  0  0  0  0  0
  -18.5812   11.9733  -17.9676 C   0  0  0  0  0  0  0  0  0  0  0  0
  -19.5712   12.7506  -17.4176 C   0  0  0  0  0  0  0  0  0  0  0  0
  -19.9895   12.6456  -16.0942 N   0  0  0  0  0  0  0  0  0  0  0  0
  -20.8778   11.7020  -15.5750 C   0  0  0  0  0  0  0  0  0  0  0  0
  -21.4181   10.8179  -16.2443 O   0  0  0  0  0  0  0  0  0  0  0  0
  -19.5790   13.3764  -15.4028 H   0  0  0  0  0  0  0  0  0  0  0  0
  -21.1797   11.7787  -14.1321 C   0  0  0  0  0  0  0  0  0  0  0  0
  -21.4136   11.8241  -12.9520 C   0  0  0  0  0  0  0  0  0  0  0  0
  -21.6838   11.8570  -11.5122 C   0  0  0  0  0  0  0  0  0  0  0  0
  -22.6882   12.7919  -11.1513 N   0  0  0  0  0  0  0  0  0  0  0  0
  -22.4889   13.5557   -9.9803 C   0  0  0  0  0  0  0  0  0  0  0  0
  -23.4986   14.6640   -9.9075 C   0  0  0  0  0  0  0  0  0  0  0  0
  -23.4387   15.4630  -11.0351 O   0  0  0  0  0  0  0  0  0  0  0  0
  -23.6966   14.7948  -12.2032 C   0  0  0  0  0  0  0  0  0  0  0  0
  -23.4985   13.3211  -12.1788 C   0  0  0  0  0  0  0  0  0  0  0  0
  -20.9494   15.8804  -17.4185 C   0  0  0  0  0  0  0  0  0  0  0  0
  -21.2344   14.5244  -17.6725 O   0  0  0  0  0  0  0  0  0  0  0  0
  -17.1659   12.6663  -23.2302 N   0  0  0  0  0  0  0  0  0  0  0  0
  -17.3731   11.8251  -23.8613 H   0  0  0  0  0  0  0  0  0  0  0  0
  -16.5511   13.7660  -23.8280 C   0  0  0  0  0  0  0  0  0  0  0  0
  -15.8435   14.7403  -23.1985 C   0  0  0  0  0  0  0  0  0  0  0  0
  -15.2685   15.8167  -23.8871 C   0  0  0  0  0  0  0  0  0  0  0  0
  -15.4050   15.9225  -25.2496 C   0  0  0  0  0  0  0  0  0  0  0  0
  -16.1153   14.9492  -25.9011 C   0  0  0  0  0  0  0  0  0  0  0  0
  -16.6797   13.8952  -25.2358 C   0  0  0  0  0  0  0  0  0  0  0  0
  -17.4358   12.8730  -25.9982 C   0  0  0  0  0  0  0  0  0  0  0  0
 27 28  1  0  0  0
 28  1  1  0  0  0
  1  2  2  0  0  0
  2  3  1  0  0  0
  3  4  1  0  0  0
  4  5  2  0  0  0
  5 29  1  0  0  0
 29 31  1  0  0  0
 31 32  2  0  0  0
 32 33  1  0  0  0
 33 34  2  0  0  0
 34 35  1  0  0  0
 35 36  2  0  0  0
 36 37  1  0  0  0
  5  6  1  0  0  0
  6  7  2  0  0  0
  7  8  1  0  0  0
  8  9  2  0  0  0
  9 10  1  0  0  0
 10 11  1  0  0  0
 11 12  1  0  0  0
 12 13  2  0  0  0
 13 14  1  0  0  0
 14 15  1  0  0  0
 15 16  2  0  0  0
 15 18  1  0  0  0
 18 19  3  0  0  0
 19 20  1  0  0  0
 20 21  1  0  0  0
 21 22  1  0  0  0
 22 23  1  0  0  0
 23 24  1  0  0  0
 24 25  1  0  0  0
 25 26  1  0  0  0
 13  1  1  0  0  0
 26 21  1  0  0  0
 11  3  2  0  0  0
 36 31  1  0  0  0
 10  6  1  0  0  0
 29 30  1  0  0  0
 14 17  1  0  0  0
M  END
> <minimizedAffinity>
-8.45693

> <CNNscore>
0.8655796647

> <CNNaffinity>
7.3842554092

> <CNN_VS>
6.3916611671

> <CNNaffinity_variance>
0.1033410206

$$$$
[H]c1c([H])c([H])c(C([H])([H])[H])c(N([H])c2nc3c([H])c(OC([H])([H])[H])c(N([H])C(=O)C#CC([H])([H])N4C([H])([H])C([H])([H])OC([H])([H])C4([H])[H])c([H])c3n3c([H])nc([H])c23)c1[H]


 37 41  0  0  0  0  0  0  0  0999 V2000
  -20.0264   13.6728  -18.0859 C   0  0  0  0  0  0  0  0  0  0  0  0
  -19.7107   13.8676  -19.4053 C   0  0  0  0  0  0  0  0  0  0  0  0
  -18.7479   13.0895  -20.0260 C   0  0  0  0  0  0  0  0  0  0  0  0
  -18.4511   13.2906  -21.3029 N   0  0  0  0  0  0  0  0  0  0  0  0
  -17.5246   12.5557  -21.9296 C   0  0  0  0  0  0  0  0  0  0  0  0
  -16.8589   11.5490  -21.1989 C   0  0  0  0  0  0  0  0  0  0  0  0
  -15.8841   10.6678  -21.5961 C   0  0  0  0  0  0  0  0  0  0  0  0
  -15.6011    9.9236  -20.5062 N   0  0  0  0  0  0  0  0  0  0  0  0
  -16.3709   10.3308  -19.4801 C   0  0  0  0  0  0  0  0  0  0  0  0
  -17.1665   11.3580  -19.9174 N   0  0  0  0  0  0  0  0  0  0  0  0
  -18.0965   12.1060  -19.3140 C   0  0  0  0  0  0  0  0  0  0  0  0
  -18.3985   11.8901  -17.9786 C   0  0  0  0  0  0  0  0  0  0  0  0
  -19.3530   12.6614  -17.3615 C   0  0  0  0  0  0  0  0  0  0  0  0
  -19.7193   12.5149  -16.0267 N   0  0  0  0  0  0  0  0  0  0  0  0
  -20.6505   11.6097  -15.5142 C   0  0  0  0  0  0  0  0  0  0  0  0
  -21.2827   10.8033  -16.2010 O   0  0  0  0  0  0  0  0  0  0  0  0
  -19.2266   13.1764  -15.3195 H   0  0  0  0  0  0  0  0  0  0  0  0
  -20.8823   11.6295  -14.0566 C   0  0  0  0  0  0  0  0  0  0  0  0
  -21.0918   11.6506  -12.8711 C   0  0  0  0  0  0  0  0  0  0  0  0
  -21.3721   11.6838  -11.4333 C   0  0  0  0  0  0  0  0  0  0  0  0
  -20.6452   10.7125  -10.6976 N   0  0  0  0  0  0  0  0  0  0  0  0
  -20.4384    9.4501  -11.2957 C   0  0  0  0  0  0  0  0  0  0  0  0
  -19.4345    8.6616  -10.5061 C   0  0  0  0  0  0  0  0  0  0  0  0
  -18.2429    9.3543  -10.3885 O   0  0  0  0  0  0  0  0  0  0  0  0
  -18.3625   10.5599   -9.7486 C   0  0  0  0  0  0  0  0  0  0  0  0
  -19.7190   11.1691   -9.7351 C   0  0  0  0  0  0  0  0  0  0  0  0
  -21.6694   15.4185  -18.2771 C   0  0  0  0  0  0  0  0  0  0  0  0
  -20.9963   14.4674  -17.4853 O   0  0  0  0  0  0  0  0  0  0  0  0
  -17.1853   12.7515  -23.2667 N   0  0  0  0  0  0  0  0  0  0  0  0
  -17.6466   12.0700  -23.9534 H   0  0  0  0  0  0  0  0  0  0  0  0
  -16.3346   13.7137  -23.8100 C   0  0  0  0  0  0  0  0  0  0  0  0
  -14.9780   13.7306  -23.7361 C   0  0  0  0  0  0  0  0  0  0  0  0
  -14.2061   14.7507  -24.3081 C   0  0  0  0  0  0  0  0  0  0  0  0
  -14.8099   15.7877  -24.9760 C   0  0  0  0  0  0  0  0  0  0  0  0
  -16.1771   15.7873  -25.0603 C   0  0  0  0  0  0  0  0  0  0  0  0
  -16.9377   14.7950  -24.5046 C   0  0  0  0  0  0  0  0  0  0  0  0
  -18.4138   14.8506  -24.6314 C   0  0  0  0  0  0  0  0  0  0  0  0
 27 28  1  0  0  0
 28  1  1  0  0  0
  1  2  2  0  0  0
  2  3  1  0  0  0
  3  4  1  0  0  0
  4  5  2  0  0  0
  5 29  1  0  0  0
 29 31  1  0  0  0
 31 32  2  0  0  0
 32 33  1  0  0  0
 33 34  2  0  0  0
 34 35  1  0  0  0
 35 36  2  0  0  0
 36 37  1  0  0  0
  5  6  1  0  0  0
  6  7  2  0  0  0
  7  8  1  0  0  0
  8  9  2  0  0  0
  9 10  1  0  0  0
 10 11  1  0  0  0
 11 12  1  0  0  0
 12 13  2  0  0  0
 13 14  1  0  0  0
 14 15  1  0  0  0
 15 16  2  0  0  0
 15 18  1  0  0  0
 18 19  3  0  0  0
 19 20  1  0  0  0
 20 21  1  0  0  0
 21 22  1  0  0  0
 22 23  1  0  0  0
 23 24  1  0  0  0
 24 25  1  0  0  0
 25 26  1  0  0  0
 13  1  1  0  0  0
 26 21  1  0  0  0
 11  3  2  0  0  0
 36 31  1  0  0  0
 10  6  1  0  0  0
 29 30  1  0  0  0
 14 17  1  0  0  0
M  END
> <minimizedAffinity>
-9.11780

> <CNNscore>
0.8599166870

> <CNNaffinity>
7.3917899132

> <CNN_VS>
6.3563237190

> <CNNaffinity_variance>
0.0717119202

$$$$
[H]c1nc(N([H])c2c([H])c(N([H])C(=O)c3c([H])c([H])c(C([H])([H])N4C([H])([H])C([H])([H])N(C([H])([H])[H])C([H])([H])C4([H])[H])c(C(F)(F)F)c3[H])c([H])c([H])c2C([H])([H])[H])nc(-c2c([H])nc([H])c([H])c2[H])c1[H]


 43 47  0  0  0  0  0  0  0  0999 V2000
  -19.6045   13.7011  -18.1940 C   0  0  0  0  0  0  0  0  0  0  0  0
  -18.3780   13.9103  -18.2776 O   0  0  0  0  0  0  0  0  0  0  0  0
  -20.5324   14.4462  -18.9194 N   0  0  0  0  0  0  0  0  0  0  0  0
  -21.5772   14.1917  -18.7791 H   0  0  0  0  0  0  0  0  0  0  0  0
  -20.3267   15.4974  -19.8296 C   0  0  0  0  0  0  0  0  0  0  0  0
  -20.9160   16.7373  -19.5492 C   0  0  0  0  0  0  0  0  0  0  0  0
  -20.7566   17.7886  -20.4164 C   0  0  0  0  0  0  0  0  0  0  0  0
  -20.0182   17.6425  -21.5707 C   0  0  0  0  0  0  0  0  0  0  0  0
  -19.8479   18.7776  -22.5002 C   0  0  0  0  0  0  0  0  0  0  0  0
  -19.4101   16.4332  -21.9007 C   0  0  0  0  0  0  0  0  0  0  0  0
  -19.5864   15.4006  -21.0163 C   0  0  0  0  0  0  0  0  0  0  0  0
  -18.6811   16.3484  -23.0852 N   0  0  0  0  0  0  0  0  0  0  0  0
  -18.7113   17.2188  -23.7367 H   0  0  0  0  0  0  0  0  0  0  0  0
  -17.8930   15.3075  -23.6028 C   0  0  0  0  0  0  0  0  0  0  0  0
  -17.3862   15.2356  -24.8396 N   0  0  0  0  0  0  0  0  0  0  0  0
  -16.6402   14.2118  -25.2704 C   0  0  0  0  0  0  0  0  0  0  0  0
  -16.3521   13.1405  -24.4127 C   0  0  0  0  0  0  0  0  0  0  0  0
  -16.8655   13.2004  -23.1401 C   0  0  0  0  0  0  0  0  0  0  0  0
  -17.6013   14.2657  -22.7994 N   0  0  0  0  0  0  0  0  0  0  0  0
  -16.6206   12.1225  -22.1530 C   0  0  0  0  0  0  0  0  0  0  0  0
  -17.4512   11.9456  -21.0866 C   0  0  0  0  0  0  0  0  0  0  0  0
  -17.1822   10.9138  -20.1798 C   0  0  0  0  0  0  0  0  0  0  0  0
  -16.1000   10.0842  -20.3505 C   0  0  0  0  0  0  0  0  0  0  0  0
  -15.3080   10.2939  -21.4143 N   0  0  0  0  0  0  0  0  0  0  0  0
  -15.5404   11.2757  -22.3017 C   0  0  0  0  0  0  0  0  0  0  0  0
  -20.7156   10.5090  -15.5517 C   0  0  0  0  0  0  0  0  0  0  0  0
  -21.2852   11.7531  -15.4436 C   0  0  0  0  0  0  0  0  0  0  0  0
  -20.9340   12.7957  -16.2972 C   0  0  0  0  0  0  0  0  0  0  0  0
  -20.0002   12.6229  -17.2841 C   0  0  0  0  0  0  0  0  0  0  0  0
  -19.4392   11.3674  -17.3756 C   0  0  0  0  0  0  0  0  0  0  0  0
  -19.7644   10.3187  -16.5500 C   0  0  0  0  0  0  0  0  0  0  0  0
  -19.1392    8.9802  -16.6830 C   0  0  0  0  0  0  0  0  0  0  0  0
  -20.0549    7.9610  -16.7897 F   0  0  0  0  0  0  0  0  0  0  0  0
  -18.3866    8.9945  -17.8519 F   0  0  0  0  0  0  0  0  0  0  0  0
  -18.2330    8.7381  -15.6574 F   0  0  0  0  0  0  0  0  0  0  0  0
  -21.0625    9.4538  -14.6029 C   0  0  0  0  0  0  0  0  0  0  0  0
  -18.6666    9.2833  -10.1828 C   0  0  0  0  0  0  0  0  0  0  0  0
  -19.5051    8.4598  -11.0323 N   0  0  0  0  0  0  0  0  0  0  0  0
  -19.0103    8.6265  -12.4032 C   0  0  0  0  0  0  0  0  0  0  0  0
  -19.4644    9.9611  -12.9127 C   0  0  0  0  0  0  0  0  0  0  0  0
  -20.9155    9.9792  -13.2216 N   0  0  0  0  0  0  0  0  0  0  0  0
  -21.5171    8.9683  -12.3184 C   0  0  0  0  0  0  0  0  0  0  0  0
  -20.8596    9.0123  -10.9531 C   0  0  0  0  0  0  0  0  0  0  0  0
 37 38  1  0  0  0
 38 39  1  0  0  0
 39 40  1  0  0  0
 40 41  1  0  0  0
 41 36  1  0  0  0
 36 26  1  0  0  0
 26 27  2  0  0  0
 27 28  1  0  0  0
 28 29  2  0  0  0
 29 30  1  0  0  0
 30 31  2  0  0  0
 31 32  1  0  0  0
 32 33  1  0  0  0
 32 34  1  0  0  0
 32 35  1  0  0  0
 29  1  1  0  0  0
  1  2  2  0  0  0
  1  3  1  0  0  0
  3  5  1  0  0  0
  5  6  2  0  0  0
  6  7  1  0  0  0
  7  8  2  0  0  0
  8  9  1  0  0  0
  8 10  1  0  0  0
 10 12  1  0  0  0
 12 14  1  0  0  0
 14 15  2  0  0  0
 15 16  1  0  0  0
 16 17  2  0  0  0
 17 18  1  0  0  0
 18 19  2  0  0  0
 18 20  1  0  0  0
 20 21  2  0  0  0
 21 22  1  0  0  0
 22 23  2  0  0  0
 23 24  1  0  0  0
 24 25  2  0  0  0
 10 11  2  0  0  0
 41 42  1  0  0  0
 42 43  1  0  0  0
 43 38  1  0  0  0
 31 26  1  0  0  0
 11  5  1  0  0  0
 19 14  1  0  0  0
 25 20  1  0  0  0
  3  4  1  0  0  0
 12 13  1  0  0  0
M  END
> <minimizedAffinity>
-9.23117

> <CNNscore>
0.5151979327

> <CNNaffinity>
7.5673027039

> <CNN_VS>
3.8986587524

> <CNNaffinity_variance>
0.0486090705

$$$$
[H]c1nc(N([H])c2c([H])c(N([H])C(=O)c3c([H])c([H])c(C([H])([H])N4C([H])([H])C([H])([H])N(C([H])([H])[H])C([H])([H])C4([H])[H])c(C(F)(F)F)c3[H])c([H])c([H])c2C([H])([H])[H])nc(-c2c([H])nc([H])c([H])c2[H])c1[H]


 43 47  0  0  0  0  0  0  0  0999 V2000
  -19.4927   13.9376  -18.5755 C   0  0  0  0  0  0  0  0  0  0  0  0
  -18.3178   14.3304  -18.4316 O   0  0  0  0  0  0  0  0  0  0  0  0
  -20.3529   14.5080  -19.5120 N   0  0  0  0  0  0  0  0  0  0  0  0
  -21.3566   14.1002  -19.5623 H   0  0  0  0  0  0  0  0  0  0  0  0
  -20.1221   15.5491  -20.4277 C   0  0  0  0  0  0  0  0  0  0  0  0
  -20.8692   16.7264  -20.2896 C   0  0  0  0  0  0  0  0  0  0  0  0
  -20.6902   17.7640  -21.1694 C   0  0  0  0  0  0  0  0  0  0  0  0
  -19.7776   17.6652  -22.1973 C   0  0  0  0  0  0  0  0  0  0  0  0
  -19.5872   18.7854  -23.1408 C   0  0  0  0  0  0  0  0  0  0  0  0
  -19.0078   16.5189  -22.3830 C   0  0  0  0  0  0  0  0  0  0  0  0
  -19.2078   15.4986  -21.4894 C   0  0  0  0  0  0  0  0  0  0  0  0
  -18.1061   16.4791  -23.4446 N   0  0  0  0  0  0  0  0  0  0  0  0
  -18.1792   17.2832  -24.1734 H   0  0  0  0  0  0  0  0  0  0  0  0
  -17.0917   15.5573  -23.7504 C   0  0  0  0  0  0  0  0  0  0  0  0
  -16.1716   15.6808  -24.7147 N   0  0  0  0  0  0  0  0  0  0  0  0
  -15.2289   14.7617  -24.9539 C   0  0  0  0  0  0  0  0  0  0  0  0
  -15.1685   13.5963  -24.1765 C   0  0  0  0  0  0  0  0  0  0  0  0
  -16.1064   13.4557  -23.1830 C   0  0  0  0  0  0  0  0  0  0  0  0
  -17.0112   14.4286  -23.0186 N   0  0  0  0  0  0  0  0  0  0  0  0
  -16.1317   12.2637  -22.3027 C   0  0  0  0  0  0  0  0  0  0  0  0
  -17.1558   12.0602  -21.4262 C   0  0  0  0  0  0  0  0  0  0  0  0
  -17.1391   10.9198  -20.6148 C   0  0  0  0  0  0  0  0  0  0  0  0
  -16.1113   10.0106  -20.6909 C   0  0  0  0  0  0  0  0  0  0  0  0
  -15.1231   10.2500  -21.5677 N   0  0  0  0  0  0  0  0  0  0  0  0
  -15.1114   11.3354  -22.3597 C   0  0  0  0  0  0  0  0  0  0  0  0
  -20.6458   10.6923  -16.0174 C   0  0  0  0  0  0  0  0  0  0  0  0
  -21.2716   11.9117  -15.9458 C   0  0  0  0  0  0  0  0  0  0  0  0
  -20.9073   12.9712  -16.7727 C   0  0  0  0  0  0  0  0  0  0  0  0
  -19.9036   12.8406  -17.6954 C   0  0  0  0  0  0  0  0  0  0  0  0
  -19.2870   11.6093  -17.7510 C   0  0  0  0  0  0  0  0  0  0  0  0
  -19.6233   10.5449  -16.9504 C   0  0  0  0  0  0  0  0  0  0  0  0
  -18.9365    9.2334  -17.0432 C   0  0  0  0  0  0  0  0  0  0  0  0
  -17.9375    9.2089  -17.9866 F   0  0  0  0  0  0  0  0  0  0  0  0
  -18.3530    8.9887  -15.8053 F   0  0  0  0  0  0  0  0  0  0  0  0
  -19.8422    8.1980  -17.2412 F   0  0  0  0  0  0  0  0  0  0  0  0
  -21.0116    9.6200  -15.0953 C   0  0  0  0  0  0  0  0  0  0  0  0
  -24.7580    8.2714  -12.0209 C   0  0  0  0  0  0  0  0  0  0  0  0
  -24.1717    7.9059  -13.2958 N   0  0  0  0  0  0  0  0  0  0  0  0
  -22.7165    7.9199  -13.1110 C   0  0  0  0  0  0  0  0  0  0  0  0
  -22.2552    9.3458  -13.0837 C   0  0  0  0  0  0  0  0  0  0  0  0
  -22.2909    9.9724  -14.4282 N   0  0  0  0  0  0  0  0  0  0  0  0
  -23.3620    9.2557  -15.1621 C   0  0  0  0  0  0  0  0  0  0  0  0
  -24.5331    8.9611  -14.2456 C   0  0  0  0  0  0  0  0  0  0  0  0
 37 38  1  0  0  0
 38 39  1  0  0  0
 39 40  1  0  0  0
 40 41  1  0  0  0
 41 36  1  0  0  0
 36 26  1  0  0  0
 26 27  2  0  0  0
 27 28  1  0  0  0
 28 29  2  0  0  0
 29 30  1  0  0  0
 30 31  2  0  0  0
 31 32  1  0  0  0
 32 33  1  0  0  0
 32 34  1  0  0  0
 32 35  1  0  0  0
 29  1  1  0  0  0
  1  2  2  0  0  0
  1  3  1  0  0  0
  3  5  1  0  0  0
  5  6  2  0  0  0
  6  7  1  0  0  0
  7  8  2  0  0  0
  8  9  1  0  0  0
  8 10  1  0  0  0
 10 12  1  0  0  0
 12 14  1  0  0  0
 14 15  2  0  0  0
 15 16  1  0  0  0
 16 17  2  0  0  0
 17 18  1  0  0  0
 18 19  2  0  0  0
 18 20  1  0  0  0
 20 21  2  0  0  0
 21 22  1  0  0  0
 22 23  2  0  0  0
 23 24  1  0  0  0
 24 25  2  0  0  0
 10 11  2  0  0  0
 41 42  1  0  0  0
 42 43  1  0  0  0
 43 38  1  0  0  0
 31 26  1  0  0  0
 11  5  1  0  0  0
 19 14  1  0  0  0
 25 20  1  0  0  0
  3  4  1  0  0  0
 12 13  1  0  0  0
M  END
> <minimizedAffinity>
-8.94656

> <CNNscore>
0.3865644336

> <CNNaffinity>
7.4627127647

> <CNN_VS>
2.8848192692

> <CNNaffinity_variance>
0.0760957748

$$$$
[H]c1nc(N([H])c2c([H])c(N([H])C(=O)c3c([H])c([H])c(C([H])([H])N4C([H])([H])C([H])([H])N(C([H])([H])[H])C([H])([H])C4([H])[H])c(C(F)(F)F)c3[H])c([H])c([H])c2C([H])([H])[H])nc(-c2c([H])nc([H])c([H])c2[H])c1[H]


 43 47  0  0  0  0  0  0  0  0999 V2000
  -20.8360   15.4797  -19.6390 C   0  0  0  0  0  0  0  0  0  0  0  0
  -21.2155   14.3416  -19.9797 O   0  0  0  0  0  0  0  0  0  0  0  0
  -19.8776   16.1865  -20.3630 N   0  0  0  0  0  0  0  0  0  0  0  0
  -19.6106   17.1683  -19.9876 H   0  0  0  0  0  0  0  0  0  0  0  0
  -19.1875   15.8248  -21.5330 C   0  0  0  0  0  0  0  0  0  0  0  0
  -19.2568   16.6893  -22.6334 C   0  0  0  0  0  0  0  0  0  0  0  0
  -18.6129   16.3708  -23.8024 C   0  0  0  0  0  0  0  0  0  0  0  0
  -17.8915   15.2018  -23.9121 C   0  0  0  0  0  0  0  0  0  0  0  0
  -17.1986   14.8642  -25.1719 C   0  0  0  0  0  0  0  0  0  0  0  0
  -17.7883   14.3048  -22.8510 C   0  0  0  0  0  0  0  0  0  0  0  0
  -18.4418   14.6488  -21.6960 C   0  0  0  0  0  0  0  0  0  0  0  0
  -17.0483   13.1373  -23.0271 N   0  0  0  0  0  0  0  0  0  0  0  0
  -16.6840   12.9410  -24.0330 H   0  0  0  0  0  0  0  0  0  0  0  0
  -16.6804   12.1394  -22.1100 C   0  0  0  0  0  0  0  0  0  0  0  0
  -15.6430   11.3011  -22.2232 N   0  0  0  0  0  0  0  0  0  0  0  0
  -15.3469   10.3697  -21.3093 C   0  0  0  0  0  0  0  0  0  0  0  0
  -16.1393   10.2333  -20.1606 C   0  0  0  0  0  0  0  0  0  0  0  0
  -17.2076   11.0868  -20.0306 C   0  0  0  0  0  0  0  0  0  0  0  0
  -17.4252   11.9870  -20.9973 N   0  0  0  0  0  0  0  0  0  0  0  0
  -18.1084   11.0292  -18.8552 C   0  0  0  0  0  0  0  0  0  0  0  0
  -18.8555   12.1095  -18.4901 C   0  0  0  0  0  0  0  0  0  0  0  0
  -19.6937   12.0097  -17.3735 C   0  0  0  0  0  0  0  0  0  0  0  0
  -19.7715   10.8456  -16.6472 C   0  0  0  0  0  0  0  0  0  0  0  0
  -19.0185    9.8063  -17.0418 N   0  0  0  0  0  0  0  0  0  0  0  0
  -18.2048    9.8717  -18.1091 C   0  0  0  0  0  0  0  0  0  0  0  0
  -22.6687   17.0030  -16.0716 C   0  0  0  0  0  0  0  0  0  0  0  0
  -22.3323   17.8352  -17.1099 C   0  0  0  0  0  0  0  0  0  0  0  0
  -21.7394   17.3515  -18.2733 C   0  0  0  0  0  0  0  0  0  0  0  0
  -21.4646   16.0190  -18.4303 C   0  0  0  0  0  0  0  0  0  0  0  0
  -21.8086   15.2001  -17.3765 C   0  0  0  0  0  0  0  0  0  0  0  0
  -22.3948   15.6459  -16.2169 C   0  0  0  0  0  0  0  0  0  0  0  0
  -22.7529   14.7309  -15.1057 C   0  0  0  0  0  0  0  0  0  0  0  0
  -22.2930   15.1558  -13.8823 F   0  0  0  0  0  0  0  0  0  0  0  0
  -24.1411   14.6881  -15.0422 F   0  0  0  0  0  0  0  0  0  0  0  0
  -22.3501   13.4274  -15.3704 F   0  0  0  0  0  0  0  0  0  0  0  0
  -23.2349   17.5501  -14.8412 C   0  0  0  0  0  0  0  0  0  0  0  0
  -21.9097   20.3415  -10.8716 C   0  0  0  0  0  0  0  0  0  0  0  0
  -22.8685   20.3292  -11.9593 N   0  0  0  0  0  0  0  0  0  0  0  0
  -23.3758   18.9565  -12.0597 C   0  0  0  0  0  0  0  0  0  0  0  0
  -22.3261   18.1090  -12.7129 C   0  0  0  0  0  0  0  0  0  0  0  0
  -22.2079   18.3839  -14.1662 N   0  0  0  0  0  0  0  0  0  0  0  0
  -22.6341   19.7949  -14.3301 C   0  0  0  0  0  0  0  0  0  0  0  0
  -22.1252   20.6440  -13.1819 C   0  0  0  0  0  0  0  0  0  0  0  0
 37 38  1  0  0  0
 38 39  1  0  0  0
 39 40  1  0  0  0
 40 41  1  0  0  0
 41 36  1  0  0  0
 36 26  1  0  0  0
 26 27  2  0  0  0
 27 28  1  0  0  0
 28 29  2  0  0  0
 29 30  1  0  0  0
 30 31  2  0  0  0
 31 32  1  0  0  0
 32 33  1  0  0  0
 32 34  1  0  0  0
 32 35  1  0  0  0
 29  1  1  0  0  0
  1  2  2  0  0  0
  1  3  1  0  0  0
  3  5  1  0  0  0
  5  6  2  0  0  0
  6  7  1  0  0  0
  7  8  2  0  0  0
  8  9  1  0  0  0
  8 10  1  0  0  0
 10 12  1  0  0  0
 12 14  1  0  0  0
 14 15  2  0  0  0
 15 16  1  0  0  0
 16 17  2  0  0  0
 17 18  1  0  0  0
 18 19  2  0  0  0
 18 20  1  0  0  0
 20 21  2  0  0  0
 21 22  1  0  0  0
 22 23  2  0  0  0
 23 24  1  0  0  0
 24 25  2  0  0  0
 10 11  2  0  0  0
 41 42  1  0  0  0
 42 43  1  0  0  0
 43 38  1  0  0  0
 31 26  1  0  0  0
 11  5  1  0  0  0
 19 14  1  0  0  0
 25 20  1  0  0  0
  3  4  1  0  0  0
 12 13  1  0  0  0
M  END
> <minimizedAffinity>
-8.17731

> <CNNscore>
0.2356532216

> <CNNaffinity>
6.9673080444

> <CNN_VS>
1.6418685913

> <CNNaffinity_variance>
0.0906533003

$$$$
[H]c1nc(N([H])c2c([H])c(N([H])C(=O)c3c([H])c([H])c(C([H])([H])N4C([H])([H])C([H])([H])N(C([H])([H])[H])C([H])([H])C4([H])[H])c(C(F)(F)F)c3[H])c([H])c([H])c2C([H])([H])[H])nc(-c2c([H])nc([H])c([H])c2[H])c1[H]


 43 47  0  0  0  0  0  0  0  0999 V2000
  -17.5776   11.0431  -19.6712 C   0  0  0  0  0  0  0  0  0  0  0  0
  -16.5567   10.4141  -20.0137 O   0  0  0  0  0  0  0  0  0  0  0  0
  -18.0364   12.1505  -20.3823 N   0  0  0  0  0  0  0  0  0  0  0  0
  -18.9319   12.6332  -20.0062 H   0  0  0  0  0  0  0  0  0  0  0  0
  -17.5153   12.7547  -21.5395 C   0  0  0  0  0  0  0  0  0  0  0  0
  -16.4320   12.1348  -22.1762 C   0  0  0  0  0  0  0  0  0  0  0  0
  -15.8793   12.6960  -23.2997 C   0  0  0  0  0  0  0  0  0  0  0  0
  -16.3782   13.8718  -23.8170 C   0  0  0  0  0  0  0  0  0  0  0  0
  -15.7810   14.4710  -25.0276 C   0  0  0  0  0  0  0  0  0  0  0  0
  -17.4531   14.5319  -23.2255 C   0  0  0  0  0  0  0  0  0  0  0  0
  -17.9850   13.9487  -22.1046 C   0  0  0  0  0  0  0  0  0  0  0  0
  -17.9076   15.7202  -23.7939 N   0  0  0  0  0  0  0  0  0  0  0  0
  -18.0700   15.7124  -24.8694 H   0  0  0  0  0  0  0  0  0  0  0  0
  -18.1999   16.9626  -23.2079 C   0  0  0  0  0  0  0  0  0  0  0  0
  -18.3109   18.1342  -23.8455 N   0  0  0  0  0  0  0  0  0  0  0  0
  -18.5928   19.2856  -23.2247 C   0  0  0  0  0  0  0  0  0  0  0  0
  -18.7889   19.3074  -21.8365 C   0  0  0  0  0  0  0  0  0  0  0  0
  -18.6781   18.1124  -21.1685 C   0  0  0  0  0  0  0  0  0  0  0  0
  -18.3929   17.0116  -21.8751 N   0  0  0  0  0  0  0  0  0  0  0  0
  -18.8677   18.0228  -19.7014 C   0  0  0  0  0  0  0  0  0  0  0  0
  -19.2814   19.1030  -18.9800 C   0  0  0  0  0  0  0  0  0  0  0  0
  -19.4482   18.9724  -17.5964 C   0  0  0  0  0  0  0  0  0  0  0  0
  -19.2020   17.7783  -16.9622 C   0  0  0  0  0  0  0  0  0  0  0  0
  -18.7962   16.7402  -17.7109 N   0  0  0  0  0  0  0  0  0  0  0  0
  -18.6271   16.8348  -19.0405 C   0  0  0  0  0  0  0  0  0  0  0  0
  -19.6091    9.6162  -16.1723 C   0  0  0  0  0  0  0  0  0  0  0  0
  -18.6408    8.8642  -16.7892 C   0  0  0  0  0  0  0  0  0  0  0  0
  -17.9732    9.3184  -17.9238 C   0  0  0  0  0  0  0  0  0  0  0  0
  -18.2574   10.5395  -18.4750 C   0  0  0  0  0  0  0  0  0  0  0  0
  -19.2332   11.2787  -17.8419 C   0  0  0  0  0  0  0  0  0  0  0  0
  -19.9090   10.8596  -16.7217 C   0  0  0  0  0  0  0  0  0  0  0  0
  -20.9518   11.6871  -16.0676 C   0  0  0  0  0  0  0  0  0  0  0  0
  -20.5612   12.1909  -14.8501 F   0  0  0  0  0  0  0  0  0  0  0  0
  -21.2053   12.7652  -16.9080 F   0  0  0  0  0  0  0  0  0  0  0  0
  -22.1560   11.0007  -15.9659 F   0  0  0  0  0  0  0  0  0  0  0  0
  -20.3320    9.0859  -15.0190 C   0  0  0  0  0  0  0  0  0  0  0  0
  -19.4699    6.8887  -10.5766 C   0  0  0  0  0  0  0  0  0  0  0  0
  -19.9653    8.1340  -11.1303 N   0  0  0  0  0  0  0  0  0  0  0  0
  -20.8608    7.7778  -12.2362 C   0  0  0  0  0  0  0  0  0  0  0  0
  -20.0248    7.3599  -13.4082 C   0  0  0  0  0  0  0  0  0  0  0  0
  -19.3547    8.5131  -14.0585 N   0  0  0  0  0  0  0  0  0  0  0  0
  -19.1808    9.5183  -12.9820 C   0  0  0  0  0  0  0  0  0  0  0  0
  -18.8065    8.8445  -11.6766 C   0  0  0  0  0  0  0  0  0  0  0  0
 37 38  1  0  0  0
 38 39  1  0  0  0
 39 40  1  0  0  0
 40 41  1  0  0  0
 41 36  1  0  0  0
 36 26  1  0  0  0
 26 27  2  0  0  0
 27 28  1  0  0  0
 28 29  2  0  0  0
 29 30  1  0  0  0
 30 31  2  0  0  0
 31 32  1  0  0  0
 32 33  1  0  0  0
 32 34  1  0  0  0
 32 35  1  0  0  0
 29  1  1  0  0  0
  1  2  2  0  0  0
  1  3  1  0  0  0
  3  5  1  0  0  0
  5  6  2  0  0  0
  6  7  1  0  0  0
  7  8  2  0  0  0
  8  9  1  0  0  0
  8 10  1  0  0  0
 10 12  1  0  0  0
 12 14  1  0  0  0
 14 15  2  0  0  0
 15 16  1  0  0  0
 16 17  2  0  0  0
 17 18  1  0  0  0
 18 19  2  0  0  0
 18 20  1  0  0  0
 20 21  2  0  0  0
 21 22  1  0  0  0
 22 23  2  0  0  0
 23 24  1  0  0  0
 24 25  2  0  0  0
 10 11  2  0  0  0
 41 42  1  0  0  0
 42 43  1  0  0  0
 43 38  1  0  0  0
 31 26  1  0  0  0
 11  5  1  0  0  0
 19 14  1  0  0  0
 25 20  1  0  0  0
  3  4  1  0  0  0
 12 13  1  0  0  0
M  END
> <minimizedAffinity>
-9.23039

> <CNNscore>
0.2234126627

> <CNNaffinity>
7.2138381004

> <CNN_VS>
1.6116627455

> <CNNaffinity_variance>
0.1834960431

$$$$
[H]c1nc(N([H])c2c([H])c(N([H])C(=O)c3c([H])c([H])c(C([H])([H])N4C([H])([H])C([H])([H])N(C([H])([H])[H])C([H])([H])C4([H])[H])c(C(F)(F)F)c3[H])c([H])c([H])c2C([H])([H])[H])nc(-c2c([H])nc([H])c([H])c2[H])c1[H]


 43 47  0  0  0  0  0  0  0  0999 V2000
  -18.9832   14.6388  -17.8582 C   0  0  0  0  0  0  0  0  0  0  0  0
  -17.9568   15.2908  -18.1351 O   0  0  0  0  0  0  0  0  0  0  0  0
  -19.1662   13.3282  -18.2955 N   0  0  0  0  0  0  0  0  0  0  0  0
  -20.0922   12.8436  -18.0058 H   0  0  0  0  0  0  0  0  0  0  0  0
  -18.3211   12.5115  -19.0666 C   0  0  0  0  0  0  0  0  0  0  0  0
  -17.7821   11.3665  -18.4652 C   0  0  0  0  0  0  0  0  0  0  0  0
  -16.9392   10.5475  -19.1732 C   0  0  0  0  0  0  0  0  0  0  0  0
  -16.6111   10.8364  -20.4800 C   0  0  0  0  0  0  0  0  0  0  0  0
  -15.7048    9.9507  -21.2386 C   0  0  0  0  0  0  0  0  0  0  0  0
  -17.1169   11.9610  -21.1286 C   0  0  0  0  0  0  0  0  0  0  0  0
  -17.9560   12.7611  -20.3970 C   0  0  0  0  0  0  0  0  0  0  0  0
  -16.7428   12.2006  -22.4493 N   0  0  0  0  0  0  0  0  0  0  0  0
  -16.9158   11.3926  -23.1566 H   0  0  0  0  0  0  0  0  0  0  0  0
  -16.1634   13.3323  -23.0460 C   0  0  0  0  0  0  0  0  0  0  0  0
  -15.0783   13.3484  -23.8295 N   0  0  0  0  0  0  0  0  0  0  0  0
  -14.5767   14.4657  -24.3684 C   0  0  0  0  0  0  0  0  0  0  0  0
  -15.1905   15.7024  -24.1238 C   0  0  0  0  0  0  0  0  0  0  0  0
  -16.3054   15.7016  -23.3215 C   0  0  0  0  0  0  0  0  0  0  0  0
  -16.7337   14.5335  -22.8272 N   0  0  0  0  0  0  0  0  0  0  0  0
  -17.0314   16.9530  -23.0003 C   0  0  0  0  0  0  0  0  0  0  0  0
  -17.1084   17.4104  -21.7184 C   0  0  0  0  0  0  0  0  0  0  0  0
  -17.8036   18.5978  -21.4615 C   0  0  0  0  0  0  0  0  0  0  0  0
  -18.4042   19.3018  -22.4775 C   0  0  0  0  0  0  0  0  0  0  0  0
  -18.3037   18.8154  -23.7249 N   0  0  0  0  0  0  0  0  0  0  0  0
  -17.6433   17.6787  -24.0028 C   0  0  0  0  0  0  0  0  0  0  0  0
  -21.8551   16.7471  -15.4682 C   0  0  0  0  0  0  0  0  0  0  0  0
  -22.2198   15.6641  -16.2283 C   0  0  0  0  0  0  0  0  0  0  0  0
  -21.2957   14.9709  -17.0058 C   0  0  0  0  0  0  0  0  0  0  0  0
  -19.9784   15.3434  -17.0458 C   0  0  0  0  0  0  0  0  0  0  0  0
  -19.6324   16.4335  -16.2769 C   0  0  0  0  0  0  0  0  0  0  0  0
  -20.5193   17.1376  -15.4993 C   0  0  0  0  0  0  0  0  0  0  0  0
  -20.1063   18.3051  -14.6828 C   0  0  0  0  0  0  0  0  0  0  0  0
  -20.8243   19.4436  -14.9604 F   0  0  0  0  0  0  0  0  0  0  0  0
  -20.3369   17.9757  -13.3519 F   0  0  0  0  0  0  0  0  0  0  0  0
  -18.7391   18.5353  -14.7798 F   0  0  0  0  0  0  0  0  0  0  0  0
  -22.8599   17.4885  -14.7102 C   0  0  0  0  0  0  0  0  0  0  0  0
  -26.1642   20.6933  -16.7395 C   0  0  0  0  0  0  0  0  0  0  0  0
  -25.7351   20.2009  -15.4448 N   0  0  0  0  0  0  0  0  0  0  0  0
  -24.2688   20.1665  -15.4708 C   0  0  0  0  0  0  0  0  0  0  0  0
  -23.8361   18.9842  -16.2845 C   0  0  0  0  0  0  0  0  0  0  0  0
  -24.0523   17.7022  -15.5695 N   0  0  0  0  0  0  0  0  0  0  0  0
  -25.1925   17.9552  -14.6554 C   0  0  0  0  0  0  0  0  0  0  0  0
  -26.2334   18.8282  -15.3280 C   0  0  0  0  0  0  0  0  0  0  0  0
 37 38  1  0  0  0
 38 39  1  0  0  0
 39 40  1  0  0  0
 40 41  1  0  0  0
 41 36  1  0  0  0
 36 26  1  0  0  0
 26 27  2  0  0  0
 27 28  1  0  0  0
 28 29  2  0  0  0
 29 30  1  0  0  0
 30 31  2  0  0  0
 31 32  1  0  0  0
 32 33  1  0  0  0
 32 34  1  0  0  0
 32 35  1  0  0  0
 29  1  1  0  0  0
  1  2  2  0  0  0
  1  3  1  0  0  0
  3  5  1  0  0  0
  5  6  2  0  0  0
  6  7  1  0  0  0
  7  8  2  0  0  0
  8  9  1  0  0  0
  8 10  1  0  0  0
 10 12  1  0  0  0
 12 14  1  0  0  0
 14 15  2  0  0  0
 15 16  1  0  0  0
 16 17  2  0  0  0
 17 18  1  0  0  0
 18 19  2  0  0  0
 18 20  1  0  0  0
 20 21  2  0  0  0
 21 22  1  0  0  0
 22 23  2  0  0  0
 23 24  1  0  0  0
 24 25  2  0  0  0
 10 11  2  0  0  0
 41 42  1  0  0  0
 42 43  1  0  0  0
 43 38  1  0  0  0
 31 26  1  0  0  0
 11  5  1  0  0  0
 19 14  1  0  0  0
 25 20  1  0  0  0
  3  4  1  0  0  0
 12 13  1  0  0  0
M  END
> <minimizedAffinity>
-8.44448

> <CNNscore>
0.1722560078

> <CNNaffinity>
6.8059363365

> <CNN_VS>
1.1723634005

> <CNNaffinity_variance>
0.1590426415

$$$$
[H]c1nc(N([H])c2c([H])c(N([H])C(=O)c3c([H])c([H])c(C([H])([H])N4C([H])([H])C([H])([H])N(C([H])([H])[H])C([H])([H])C4([H])[H])c(C(F)(F)F)c3[H])c([H])c([H])c2C([H])([H])[H])nc(-c2c([H])nc([H])c([H])c2[H])c1[H]


 43 47  0  0  0  0  0  0  0  0999 V2000
  -20.7540   14.2132  -18.9984 C   0  0  0  0  0  0  0  0  0  0  0  0
  -21.3278   13.7325  -19.9958 O   0  0  0  0  0  0  0  0  0  0  0  0
  -19.4853   13.7936  -18.6024 N   0  0  0  0  0  0  0  0  0  0  0  0
  -19.0688   14.2689  -17.7210 H   0  0  0  0  0  0  0  0  0  0  0  0
  -18.6356   12.8333  -19.1783 C   0  0  0  0  0  0  0  0  0  0  0  0
  -18.3299   11.6894  -18.4292 C   0  0  0  0  0  0  0  0  0  0  0  0
  -17.4921   10.7320  -18.9430 C   0  0  0  0  0  0  0  0  0  0  0  0
  -16.9410   10.8795  -20.1975 C   0  0  0  0  0  0  0  0  0  0  0  0
  -16.0411    9.8453  -20.7470 C   0  0  0  0  0  0  0  0  0  0  0  0
  -17.2093   11.9959  -20.9865 C   0  0  0  0  0  0  0  0  0  0  0  0
  -18.0492   12.9360  -20.4476 C   0  0  0  0  0  0  0  0  0  0  0  0
  -16.6167   12.0885  -22.2443 N   0  0  0  0  0  0  0  0  0  0  0  0
  -15.8766   11.3299  -22.4887 H   0  0  0  0  0  0  0  0  0  0  0  0
  -16.8097   13.0155  -23.2815 C   0  0  0  0  0  0  0  0  0  0  0  0
  -16.5726   12.8110  -24.5828 N   0  0  0  0  0  0  0  0  0  0  0  0
  -16.7791   13.7405  -25.5230 C   0  0  0  0  0  0  0  0  0  0  0  0
  -17.2682   15.0055  -25.1672 C   0  0  0  0  0  0  0  0  0  0  0  0
  -17.5164   15.2300  -23.8350 C   0  0  0  0  0  0  0  0  0  0  0  0
  -17.2791   14.2390  -22.9668 N   0  0  0  0  0  0  0  0  0  0  0  0
  -18.0360   16.5308  -23.3509 C   0  0  0  0  0  0  0  0  0  0  0  0
  -19.2724   16.9728  -23.7173 C   0  0  0  0  0  0  0  0  0  0  0  0
  -19.7229   18.2072  -23.2350 C   0  0  0  0  0  0  0  0  0  0  0  0
  -18.9403   18.9721  -22.4037 C   0  0  0  0  0  0  0  0  0  0  0  0
  -17.7294   18.4987  -22.0681 N   0  0  0  0  0  0  0  0  0  0  0  0
  -17.2695   17.3179  -22.5149 C   0  0  0  0  0  0  0  0  0  0  0  0
  -22.9353   17.2018  -16.8270 C   0  0  0  0  0  0  0  0  0  0  0  0
  -22.6247   17.3707  -18.1532 C   0  0  0  0  0  0  0  0  0  0  0  0
  -21.9193   16.4063  -18.8684 C   0  0  0  0  0  0  0  0  0  0  0  0
  -21.5029   15.2442  -18.2753 C   0  0  0  0  0  0  0  0  0  0  0  0
  -21.8235   15.0940  -16.9434 C   0  0  0  0  0  0  0  0  0  0  0  0
  -22.5181   16.0255  -16.2106 C   0  0  0  0  0  0  0  0  0  0  0  0
  -22.8462   15.8248  -14.7781 C   0  0  0  0  0  0  0  0  0  0  0  0
  -24.1881   15.6358  -14.5493 F   0  0  0  0  0  0  0  0  0  0  0  0
  -22.1822   14.6759  -14.3634 F   0  0  0  0  0  0  0  0  0  0  0  0
  -22.3409   16.8534  -13.9917 F   0  0  0  0  0  0  0  0  0  0  0  0
  -23.6244   18.2584  -16.0904 C   0  0  0  0  0  0  0  0  0  0  0  0
  -27.9235   20.7924  -16.7250 C   0  0  0  0  0  0  0  0  0  0  0  0
  -26.9780   20.4382  -15.6842 N   0  0  0  0  0  0  0  0  0  0  0  0
  -25.6375   20.6371  -16.2459 C   0  0  0  0  0  0  0  0  0  0  0  0
  -25.3398   19.5010  -17.1774 C   0  0  0  0  0  0  0  0  0  0  0  0
  -25.0652   18.2370  -16.4503 N   0  0  0  0  0  0  0  0  0  0  0  0
  -25.8204   18.3488  -15.1788 C   0  0  0  0  0  0  0  0  0  0  0  0
  -27.1642   19.0109  -15.4116 C   0  0  0  0  0  0  0  0  0  0  0  0
 37 38  1  0  0  0
 38 39  1  0  0  0
 39 40  1  0  0  0
 40 41  1  0  0  0
 41 36  1  0  0  0
 36 26  1  0  0  0
 26 27  2  0  0  0
 27 28  1  0  0  0
 28 29  2  0  0  0
 29 30  1  0  0  0
 30 31  2  0  0  0
 31 32  1  0  0  0
 32 33  1  0  0  0
 32 34  1  0  0  0
 32 35  1  0  0  0
 29  1  1  0  0  0
  1  2  2  0  0  0
  1  3  1  0  0  0
  3  5  1  0  0  0
  5  6  2  0  0  0
  6  7  1  0  0  0
  7  8  2  0  0  0
  8  9  1  0  0  0
  8 10  1  0  0  0
 10 12  1  0  0  0
 12 14  1  0  0  0
 14 15  2  0  0  0
 15 16  1  0  0  0
 16 17  2  0  0  0
 17 18  1  0  0  0
 18 19  2  0  0  0
 18 20  1  0  0  0
 20 21  2  0  0  0
 21 22  1  0  0  0
 22 23  2  0  0  0
 23 24  1  0  0  0
 24 25  2  0  0  0
 10 11  2  0  0  0
 41 42  1  0  0  0
 42 43  1  0  0  0
 43 38  1  0  0  0
 31 26  1  0  0  0
 11  5  1  0  0  0
 19 14  1  0  0  0
 25 20  1  0  0  0
  3  4  1  0  0  0
 12 13  1  0  0  0
M  END
> <minimizedAffinity>
-7.91458

> <CNNscore>
0.1650000662

> <CNNaffinity>
6.5467424393

> <CNN_VS>
1.0802129507

> <CNNaffinity_variance>
0.1511174142

$$$$
[H]c1nc(N([H])c2c([H])c(N([H])C(=O)c3c([H])c([H])c(C([H])([H])N4C([H])([H])C([H])([H])N(C([H])([H])[H])C([H])([H])C4([H])[H])c(C(F)(F)F)c3[H])c([H])c([H])c2C([H])([H])[H])nc(-c2c([H])nc([H])c([H])c2[H])c1[H]


 43 47  0  0  0  0  0  0  0  0999 V2000
  -17.5116   11.1555  -19.1712 C   0  0  0  0  0  0  0  0  0  0  0  0
  -16.3229   10.7912  -19.2675 O   0  0  0  0  0  0  0  0  0  0  0  0
  -18.0696   12.0931  -20.0385 N   0  0  0  0  0  0  0  0  0  0  0  0
  -19.1109   12.3480  -19.8747 H   0  0  0  0  0  0  0  0  0  0  0  0
  -17.4870   12.7749  -21.1208 C   0  0  0  0  0  0  0  0  0  0  0  0
  -16.7782   12.0245  -22.0684 C   0  0  0  0  0  0  0  0  0  0  0  0
  -16.1787   12.6479  -23.1335 C   0  0  0  0  0  0  0  0  0  0  0  0
  -16.2636   14.0147  -23.2874 C   0  0  0  0  0  0  0  0  0  0  0  0
  -15.6180   14.6810  -24.4366 C   0  0  0  0  0  0  0  0  0  0  0  0
  -16.9546   14.8108  -22.3765 C   0  0  0  0  0  0  0  0  0  0  0  0
  -17.5433   14.1611  -21.3225 C   0  0  0  0  0  0  0  0  0  0  0  0
  -16.9993   16.1878  -22.5854 N   0  0  0  0  0  0  0  0  0  0  0  0
  -16.5843   16.5497  -23.5234 H   0  0  0  0  0  0  0  0  0  0  0  0
  -17.4978   17.2212  -21.7755 C   0  0  0  0  0  0  0  0  0  0  0  0
  -17.5125   17.2436  -20.4373 N   0  0  0  0  0  0  0  0  0  0  0  0
  -18.0040   18.2636  -19.7241 C   0  0  0  0  0  0  0  0  0  0  0  0
  -18.5395   19.3842  -20.3748 C   0  0  0  0  0  0  0  0  0  0  0  0
  -18.5312   19.3755  -21.7483 C   0  0  0  0  0  0  0  0  0  0  0  0
  -18.0182   18.3098  -22.3756 N   0  0  0  0  0  0  0  0  0  0  0  0
  -19.0712   20.5095  -22.5349 C   0  0  0  0  0  0  0  0  0  0  0  0
  -19.3162   21.7160  -21.9495 C   0  0  0  0  0  0  0  0  0  0  0  0
  -19.8252   22.7595  -22.7313 C   0  0  0  0  0  0  0  0  0  0  0  0
  -20.0787   22.5835  -24.0705 C   0  0  0  0  0  0  0  0  0  0  0  0
  -19.8230   21.3792  -24.6063 N   0  0  0  0  0  0  0  0  0  0  0  0
  -19.3343   20.3586  -23.8818 C   0  0  0  0  0  0  0  0  0  0  0  0
  -19.7947    9.3783  -16.0035 C   0  0  0  0  0  0  0  0  0  0  0  0
  -18.7417    8.7139  -16.5810 C   0  0  0  0  0  0  0  0  0  0  0  0
  -17.9923    9.2820  -17.6080 C   0  0  0  0  0  0  0  0  0  0  0  0
  -18.2768   10.5327  -18.0880 C   0  0  0  0  0  0  0  0  0  0  0  0
  -19.3381   11.1829  -17.4961 C   0  0  0  0  0  0  0  0  0  0  0  0
  -20.0959   10.6505  -16.4815 C   0  0  0  0  0  0  0  0  0  0  0  0
  -21.2297   11.3845  -15.8683 C   0  0  0  0  0  0  0  0  0  0  0  0
  -21.0387   11.6650  -14.5365 F   0  0  0  0  0  0  0  0  0  0  0  0
  -21.3452   12.5954  -16.5415 F   0  0  0  0  0  0  0  0  0  0  0  0
  -22.4349   10.7243  -16.0764 F   0  0  0  0  0  0  0  0  0  0  0  0
  -20.5975    8.7308  -14.9691 C   0  0  0  0  0  0  0  0  0  0  0  0
  -19.9199    5.8540  -10.8983 C   0  0  0  0  0  0  0  0  0  0  0  0
  -20.0482    7.2491  -11.2724 N   0  0  0  0  0  0  0  0  0  0  0  0
  -21.1501    7.3280  -12.2375 C   0  0  0  0  0  0  0  0  0  0  0  0
  -20.6619    6.8141  -13.5583 C   0  0  0  0  0  0  0  0  0  0  0  0
  -19.7436    7.7689  -14.2267 N   0  0  0  0  0  0  0  0  0  0  0  0
  -19.1073    8.5311  -13.1250 C   0  0  0  0  0  0  0  0  0  0  0  0
  -18.8042    7.6213  -11.9508 C   0  0  0  0  0  0  0  0  0  0  0  0
 37 38  1  0  0  0
 38 39  1  0  0  0
 39 40  1  0  0  0
 40 41  1  0  0  0
 41 36  1  0  0  0
 36 26  1  0  0  0
 26 27  2  0  0  0
 27 28  1  0  0  0
 28 29  2  0  0  0
 29 30  1  0  0  0
 30 31  2  0  0  0
 31 32  1  0  0  0
 32 33  1  0  0  0
 32 34  1  0  0  0
 32 35  1  0  0  0
 29  1  1  0  0  0
  1  2  2  0  0  0
  1  3  1  0  0  0
  3  5  1  0  0  0
  5  6  2  0  0  0
  6  7  1  0  0  0
  7  8  2  0  0  0
  8  9  1  0  0  0
  8 10  1  0  0  0
 10 12  1  0  0  0
 12 14  1  0  0  0
 14 15  2  0  0  0
 15 16  1  0  0  0
 16 17  2  0  0  0
 17 18  1  0  0  0
 18 19  2  0  0  0
 18 20  1  0  0  0
 20 21  2  0  0  0
 21 22  1  0  0  0
 22 23  2  0  0  0
 23 24  1  0  0  0
 24 25  2  0  0  0
 10 11  2  0  0  0
 41 42  1  0  0  0
 42 43  1  0  0  0
 43 38  1  0  0  0
 31 26  1  0  0  0
 11  5  1  0  0  0
 19 14  1  0  0  0
 25 20  1  0  0  0
  3  4  1  0  0  0
 12 13  1  0  0  0
M  END
> <minimizedAffinity>
-9.04724

> <CNNscore>
0.1461592317

> <CNNaffinity>
6.7904305458

> <CNN_VS>
0.9924840927

> <CNNaffinity_variance>
0.2087750882

$$$$
[H]c1nc(N([H])c2c([H])c(N([H])C(=O)c3c([H])c([H])c(C([H])([H])N4C([H])([H])C([H])([H])N(C([H])([H])[H])C([H])([H])C4([H])[H])c(C(F)(F)F)c3[H])c([H])c([H])c2C([H])([H])[H])nc(-c2c([H])nc([H])c([H])c2[H])c1[H]


 43 47  0  0  0  0  0  0  0  0999 V2000
  -19.4647   14.1887  -17.7184 C   0  0  0  0  0  0  0  0  0  0  0  0
  -18.3956   14.8260  -17.6404 O   0  0  0  0  0  0  0  0  0  0  0  0
  -19.5669   13.0033  -18.4442 N   0  0  0  0  0  0  0  0  0  0  0  0
  -20.5386   12.5218  -18.4550 H   0  0  0  0  0  0  0  0  0  0  0  0
  -18.5882   12.3118  -19.1788 C   0  0  0  0  0  0  0  0  0  0  0  0
  -17.9141   11.2569  -18.5495 C   0  0  0  0  0  0  0  0  0  0  0  0
  -16.9394   10.5630  -19.2211 C   0  0  0  0  0  0  0  0  0  0  0  0
  -16.6097   10.8909  -20.5184 C   0  0  0  0  0  0  0  0  0  0  0  0
  -15.5611   10.1398  -21.2378 C   0  0  0  0  0  0  0  0  0  0  0  0
  -17.2463   11.9301  -21.1935 C   0  0  0  0  0  0  0  0  0  0  0  0
  -18.2154   12.6059  -20.4980 C   0  0  0  0  0  0  0  0  0  0  0  0
  -16.8636   12.2156  -22.5026 N   0  0  0  0  0  0  0  0  0  0  0  0
  -17.0469   11.4390  -23.2418 H   0  0  0  0  0  0  0  0  0  0  0  0
  -16.2640   13.3604  -23.0524 C   0  0  0  0  0  0  0  0  0  0  0  0
  -15.1925   13.3876  -23.8541 N   0  0  0  0  0  0  0  0  0  0  0  0
  -14.6701   14.5173  -24.3454 C   0  0  0  0  0  0  0  0  0  0  0  0
  -15.2457   15.7558  -24.0276 C   0  0  0  0  0  0  0  0  0  0  0  0
  -16.3461   15.7435  -23.2058 C   0  0  0  0  0  0  0  0  0  0  0  0
  -16.7975   14.5636  -22.7629 N   0  0  0  0  0  0  0  0  0  0  0  0
  -17.0322   16.9957  -22.8087 C   0  0  0  0  0  0  0  0  0  0  0  0
  -17.7883   17.6952  -23.7017 C   0  0  0  0  0  0  0  0  0  0  0  0
  -18.4193   18.8723  -23.2826 C   0  0  0  0  0  0  0  0  0  0  0  0
  -18.2866   19.3271  -21.9925 C   0  0  0  0  0  0  0  0  0  0  0  0
  -17.5327   18.6073  -21.1460 N   0  0  0  0  0  0  0  0  0  0  0  0
  -16.9149   17.4739  -21.5189 C   0  0  0  0  0  0  0  0  0  0  0  0
  -22.7905   15.8415  -15.5708 C   0  0  0  0  0  0  0  0  0  0  0  0
  -22.0995   16.5853  -16.4943 C   0  0  0  0  0  0  0  0  0  0  0  0
  -21.0201   16.0584  -17.1990 C   0  0  0  0  0  0  0  0  0  0  0  0
  -20.6002   14.7704  -16.9979 C   0  0  0  0  0  0  0  0  0  0  0  0
  -21.3060   14.0405  -16.0660 C   0  0  0  0  0  0  0  0  0  0  0  0
  -22.3747   14.5306  -15.3555 C   0  0  0  0  0  0  0  0  0  0  0  0
  -23.1108   13.7110  -14.3622 C   0  0  0  0  0  0  0  0  0  0  0  0
  -24.4630   13.6531  -14.6006 F   0  0  0  0  0  0  0  0  0  0  0  0
  -22.6117   12.4164  -14.4498 F   0  0  0  0  0  0  0  0  0  0  0  0
  -22.8455   14.1272  -13.0629 F   0  0  0  0  0  0  0  0  0  0  0  0
  -23.8804   16.4424  -14.8060 C   0  0  0  0  0  0  0  0  0  0  0  0
  -23.1146   19.3730  -10.7896 C   0  0  0  0  0  0  0  0  0  0  0  0
  -24.1929   18.7272  -11.5128 N   0  0  0  0  0  0  0  0  0  0  0  0
  -23.7350   17.3703  -11.8306 C   0  0  0  0  0  0  0  0  0  0  0  0
  -22.7585   17.4524  -12.9650 C   0  0  0  0  0  0  0  0  0  0  0  0
  -23.4246   17.7454  -14.2581 N   0  0  0  0  0  0  0  0  0  0  0  0
  -24.6472   18.5052  -13.9013 C   0  0  0  0  0  0  0  0  0  0  0  0
  -24.3657   19.4681  -12.7647 C   0  0  0  0  0  0  0  0  0  0  0  0
 37 38  1  0  0  0
 38 39  1  0  0  0
 39 40  1  0  0  0
 40 41  1  0  0  0
 41 36  1  0  0  0
 36 26  1  0  0  0
 26 27  2  0  0  0
 27 28  1  0  0  0
 28 29  2  0  0  0
 29 30  1  0  0  0
 30 31  2  0  0  0
 31 32  1  0  0  0
 32 33  1  0  0  0
 32 34  1  0  0  0
 32 35  1  0  0  0
 29  1  1  0  0  0
  1  2  2  0  0  0
  1  3  1  0  0  0
  3  5  1  0  0  0
  5  6  2  0  0  0
  6  7  1  0  0  0
  7  8  2  0  0  0
  8  9  1  0  0  0
  8 10  1  0  0  0
 10 12  1  0  0  0
 12 14  1  0  0  0
 14 15  2  0  0  0
 15 16  1  0  0  0
 16 17  2  0  0  0
 17 18  1  0  0  0
 18 19  2  0  0  0
 18 20  1  0  0  0
 20 21  2  0  0  0
 21 22  1  0  0  0
 22 23  2  0  0  0
 23 24  1  0  0  0
 24 25  2  0  0  0
 10 11  2  0  0  0
 41 42  1  0  0  0
 42 43  1  0  0  0
 43 38  1  0  0  0
 31 26  1  0  0  0
 11  5  1  0  0  0
 19 14  1  0  0  0
 25 20  1  0  0  0
  3  4  1  0  0  0
 12 13  1  0  0  0
M  END
> <minimizedAffinity>
-8.08485

> <CNNscore>
0.1401915103

> <CNNaffinity>
6.5139417648

> <CNN_VS>
0.9131993055

> <CNNaffinity_variance>
0.1098864451

$$$$
[H]c1nc(N([H])c2c([H])c(N([H])C(=O)c3c([H])c([H])c(C([H])([H])N4C([H])([H])C([H])([H])N(C([H])([H])[H])C([H])([H])C4([H])[H])c(C(F)(F)F)c3[H])c([H])c([H])c2C([H])([H])[H])nc(-c2c([H])nc([H])c([H])c2[H])c1[H]


 43 47  0  0  0  0  0  0  0  0999 V2000
  -20.4419   16.5224  -19.8659 C   0  0  0  0  0  0  0  0  0  0  0  0
  -21.0839   15.4587  -19.9744 O   0  0  0  0  0  0  0  0  0  0  0  0
  -19.3912   16.8420  -20.7240 N   0  0  0  0  0  0  0  0  0  0  0  0
  -18.8917   17.7887  -20.5498 H   0  0  0  0  0  0  0  0  0  0  0  0
  -18.8648   16.1192  -21.8085 C   0  0  0  0  0  0  0  0  0  0  0  0
  -18.9148   16.7073  -23.0793 C   0  0  0  0  0  0  0  0  0  0  0  0
  -18.4279   16.0333  -24.1708 C   0  0  0  0  0  0  0  0  0  0  0  0
  -17.8847   14.7741  -24.0352 C   0  0  0  0  0  0  0  0  0  0  0  0
  -17.3601   14.0533  -25.2128 C   0  0  0  0  0  0  0  0  0  0  0  0
  -17.8091   14.1407  -22.7966 C   0  0  0  0  0  0  0  0  0  0  0  0
  -18.3033   14.8373  -21.7242 C   0  0  0  0  0  0  0  0  0  0  0  0
  -17.2533   12.8648  -22.7266 N   0  0  0  0  0  0  0  0  0  0  0  0
  -16.8991   12.4381  -23.6623 H   0  0  0  0  0  0  0  0  0  0  0  0
  -17.0656   12.0066  -21.6309 C   0  0  0  0  0  0  0  0  0  0  0  0
  -16.1459   11.0395  -21.5289 N   0  0  0  0  0  0  0  0  0  0  0  0
  -16.0202   10.2545  -20.4525 C   0  0  0  0  0  0  0  0  0  0  0  0
  -16.8765   10.4223  -19.3549 C   0  0  0  0  0  0  0  0  0  0  0  0
  -17.8255   11.4111  -19.4451 C   0  0  0  0  0  0  0  0  0  0  0  0
  -17.8752   12.1465  -20.5627 N   0  0  0  0  0  0  0  0  0  0  0  0
  -18.7797   11.6740  -18.3421 C   0  0  0  0  0  0  0  0  0  0  0  0
  -19.2597   12.9293  -18.1136 C   0  0  0  0  0  0  0  0  0  0  0  0
  -20.1601   13.1312  -17.0611 C   0  0  0  0  0  0  0  0  0  0  0  0
  -20.5625   12.0878  -16.2623 C   0  0  0  0  0  0  0  0  0  0  0  0
  -20.0651   10.8681  -16.5226 N   0  0  0  0  0  0  0  0  0  0  0  0
  -19.1996   10.6431  -17.5254 C   0  0  0  0  0  0  0  0  0  0  0  0
  -21.6714   19.0701  -16.6406 C   0  0  0  0  0  0  0  0  0  0  0  0
  -21.5515   19.5504  -17.9207 C   0  0  0  0  0  0  0  0  0  0  0  0
  -21.1556   18.7320  -18.9755 C   0  0  0  0  0  0  0  0  0  0  0  0
  -20.8668   17.4079  -18.7786 C   0  0  0  0  0  0  0  0  0  0  0  0
  -20.9920   16.9451  -17.4865 C   0  0  0  0  0  0  0  0  0  0  0  0
  -21.3806   17.7260  -16.4251 C   0  0  0  0  0  0  0  0  0  0  0  0
  -21.5063   17.1887  -15.0483 C   0  0  0  0  0  0  0  0  0  0  0  0
  -20.6178   17.7502  -14.1628 F   0  0  0  0  0  0  0  0  0  0  0  0
  -22.7893   17.4913  -14.6066 F   0  0  0  0  0  0  0  0  0  0  0  0
  -21.4232   15.8015  -15.0341 F   0  0  0  0  0  0  0  0  0  0  0  0
  -22.0314   19.9683  -15.5463 C   0  0  0  0  0  0  0  0  0  0  0  0
  -19.8315   23.6410  -12.9046 C   0  0  0  0  0  0  0  0  0  0  0  0
  -21.1371   23.2458  -13.3965 N   0  0  0  0  0  0  0  0  0  0  0  0
  -21.2655   21.8064  -13.1443 C   0  0  0  0  0  0  0  0  0  0  0  0
  -20.4422   21.0715  -14.1587 C   0  0  0  0  0  0  0  0  0  0  0  0
  -21.0625   21.0932  -15.5064 N   0  0  0  0  0  0  0  0  0  0  0  0
  -21.8620   22.3417  -15.5454 C   0  0  0  0  0  0  0  0  0  0  0  0
  -21.1288   23.4683  -14.8444 C   0  0  0  0  0  0  0  0  0  0  0  0
 37 38  1  0  0  0
 38 39  1  0  0  0
 39 40  1  0  0  0
 40 41  1  0  0  0
 41 36  1  0  0  0
 36 26  1  0  0  0
 26 27  2  0  0  0
 27 28  1  0  0  0
 28 29  2  0  0  0
 29 30  1  0  0  0
 30 31  2  0  0  0
 31 32  1  0  0  0
 32 33  1  0  0  0
 32 34  1  0  0  0
 32 35  1  0  0  0
 29  1  1  0  0  0
  1  2  2  0  0  0
  1  3  1  0  0  0
  3  5  1  0  0  0
  5  6  2  0  0  0
  6  7  1  0  0  0
  7  8  2  0  0  0
  8  9  1  0  0  0
  8 10  1  0  0  0
 10 12  1  0  0  0
 12 14  1  0  0  0
 14 15  2  0  0  0
 15 16  1  0  0  0
 16 17  2  0  0  0
 17 18  1  0  0  0
 18 19  2  0  0  0
 18 20  1  0  0  0
 20 21  2  0  0  0
 21 22  1  0  0  0
 22 23  2  0  0  0
 23 24  1  0  0  0
 24 25  2  0  0  0
 10 11  2  0  0  0
 41 42  1  0  0  0
 42 43  1  0  0  0
 43 38  1  0  0  0
 31 26  1  0  0  0
 11  5  1  0  0  0
 19 14  1  0  0  0
 25 20  1  0  0  0
  3  4  1  0  0  0
 12 13  1  0  0  0
M  END
> <minimizedAffinity>
-8.15083

> <CNNscore>
0.1313779354

> <CNNaffinity>
6.9083585739

> <CNN_VS>
0.9076058865

> <CNNaffinity_variance>
0.2025639564

$$$$
[H]OC([H])(c1c([H])c([H])c(C([H])([H])N2C([H])([H])C([H])(N(C([H])([H])[H])C([H])([H])[H])C2([H])[H])c(C(F)(F)F)c1[H])N([H])c1c([H])c([H])c(C([H])([H])[H])c(N([H])c2nc([H])c([H])c(-c3c([H])nc([H])nc3[H])n2)c1[H]


 44 48  0  0  0  0  0  0  0  0999 V2000
  -19.9327   12.3807  -17.6527 N   0  0  0  0  0  0  0  0  0  0  0  0
  -20.9483   12.0876  -17.7934 H   0  0  0  0  0  0  0  0  0  0  0  0
  -18.9239   11.7068  -18.3993 C   0  0  0  0  0  0  0  0  0  0  0  0
  -18.3950   10.5172  -17.9730 C   0  0  0  0  0  0  0  0  0  0  0  0
  -17.4245    9.9367  -18.7569 C   0  0  0  0  0  0  0  0  0  0  0  0
  -16.9993   10.5245  -19.9235 C   0  0  0  0  0  0  0  0  0  0  0  0
  -15.9489    9.8541  -20.7299 C   0  0  0  0  0  0  0  0  0  0  0  0
  -17.5276   11.7476  -20.3837 C   0  0  0  0  0  0  0  0  0  0  0  0
  -18.4894   12.3108  -19.5949 C   0  0  0  0  0  0  0  0  0  0  0  0
  -17.0173   12.2537  -21.5884 N   0  0  0  0  0  0  0  0  0  0  0  0
  -16.2481   11.6670  -22.0578 H   0  0  0  0  0  0  0  0  0  0  0  0
  -17.3712   13.4183  -22.2648 C   0  0  0  0  0  0  0  0  0  0  0  0
  -18.1871   14.3426  -21.8043 N   0  0  0  0  0  0  0  0  0  0  0  0
  -18.5408   15.4611  -22.4288 C   0  0  0  0  0  0  0  0  0  0  0  0
  -18.0128   15.7079  -23.6960 C   0  0  0  0  0  0  0  0  0  0  0  0
  -17.1583   14.7728  -24.2158 C   0  0  0  0  0  0  0  0  0  0  0  0
  -16.8522   13.6542  -23.5027 N   0  0  0  0  0  0  0  0  0  0  0  0
  -16.5730   14.9707  -25.5324 C   0  0  0  0  0  0  0  0  0  0  0  0
  -17.0682   14.3557  -26.6467 C   0  0  0  0  0  0  0  0  0  0  0  0
  -16.4879   14.5694  -27.8695 N   0  0  0  0  0  0  0  0  0  0  0  0
  -15.4288   15.3762  -28.0217 C   0  0  0  0  0  0  0  0  0  0  0  0
  -14.9324   15.9888  -26.9244 N   0  0  0  0  0  0  0  0  0  0  0  0
  -15.4739   15.8037  -25.7124 C   0  0  0  0  0  0  0  0  0  0  0  0
  -19.6893   13.4405  -16.7108 C   0  0  0  0  0  0  0  0  0  0  0  0
  -20.4896   13.3067  -15.5694 O   0  0  0  0  0  0  0  0  0  0  0  0
  -20.9152   14.1463  -15.3325 H   0  0  0  0  0  0  0  0  0  0  0  0
  -20.0811   17.3994  -18.3615 C   0  0  0  0  0  0  0  0  0  0  0  0
  -19.2877   17.1105  -17.2743 C   0  0  0  0  0  0  0  0  0  0  0  0
  -19.1554   15.8468  -16.7313 C   0  0  0  0  0  0  0  0  0  0  0  0
  -19.8442   14.7940  -17.2874 C   0  0  0  0  0  0  0  0  0  0  0  0
  -20.6400   15.0842  -18.3793 C   0  0  0  0  0  0  0  0  0  0  0  0
  -20.7744   16.3437  -18.9234 C   0  0  0  0  0  0  0  0  0  0  0  0
  -21.6351   16.6185  -20.0925 C   0  0  0  0  0  0  0  0  0  0  0  0
  -22.1399   15.3803  -20.5188 F   0  0  0  0  0  0  0  0  0  0  0  0
  -20.9233   17.0941  -21.1867 F   0  0  0  0  0  0  0  0  0  0  0  0
  -22.7333   17.3895  -19.7959 F   0  0  0  0  0  0  0  0  0  0  0  0
  -20.1393   18.7684  -18.8620 C   0  0  0  0  0  0  0  0  0  0  0  0
  -21.6305   21.4339  -17.4958 C   0  0  0  0  0  0  0  0  0  0  0  0
  -20.2937   20.7317  -17.4303 C   0  0  0  0  0  0  0  0  0  0  0  0
  -20.9936   19.5634  -18.0095 N   0  0  0  0  0  0  0  0  0  0  0  0
  -21.7650   20.5767  -18.7611 C   0  0  0  0  0  0  0  0  0  0  0  0
  -21.3282   23.6378  -16.5884 C   0  0  0  0  0  0  0  0  0  0  0  0
  -21.6070   22.8410  -17.7384 N   0  0  0  0  0  0  0  0  0  0  0  0
  -22.6799   23.3173  -18.5505 C   0  0  0  0  0  0  0  0  0  0  0  0
 42 43  1  0  0  0
 43 44  1  0  0  0
 43 38  1  0  0  0
 38 39  1  0  0  0
 39 40  1  0  0  0
 40 37  1  0  0  0
 37 27  1  0  0  0
 27 28  2  0  0  0
 28 29  1  0  0  0
 29 30  2  0  0  0
 30 31  1  0  0  0
 31 32  2  0  0  0
 32 33  1  0  0  0
 33 34  1  0  0  0
 33 35  1  0  0  0
 33 36  1  0  0  0
 30 24  1  0  0  0
 24 25  1  0  0  0
 24  1  1  0  0  0
  1  3  1  0  0  0
  3  4  2  0  0  0
  4  5  1  0  0  0
  5  6  2  0  0  0
  6  7  1  0  0  0
  6  8  1  0  0  0
  8 10  1  0  0  0
 10 12  1  0  0  0
 12 13  2  0  0  0
 13 14  1  0  0  0
 14 15  2  0  0  0
 15 16  1  0  0  0
 16 17  2  0  0  0
 16 18  1  0  0  0
 18 19  2  0  0  0
 19 20  1  0  0  0
 20 21  2  0  0  0
 21 22  1  0  0  0
 22 23  2  0  0  0
  8  9  2  0  0  0
 40 41  1  0  0  0
 41 38  1  0  0  0
 32 27  1  0  0  0
  9  3  1  0  0  0
 17 12  1  0  0  0
 23 18  1  0  0  0
 25 26  1  0  0  0
  1  2  1  0  0  0
 10 11  1  0  0  0
M  END
> <minimizedAffinity>
-8.16446

> <CNNscore>
0.2725481093

> <CNNaffinity>
7.1675620079

> <CNN_VS>
1.9535055161

> <CNNaffinity_variance>
0.2548759878

$$$$
[H]OC([H])(c1c([H])c([H])c(C([H])([H])N2C([H])([H])C([H])(N(C([H])([H])[H])C([H])([H])[H])C2([H])[H])c(C(F)(F)F)c1[H])N([H])c1c([H])c([H])c(C([H])([H])[H])c(N([H])c2nc([H])c([H])c(-c3c([H])nc([H])nc3[H])n2)c1[H]


 44 48  0  0  0  0  0  0  0  0999 V2000
  -20.3536   12.5383  -17.6993 N   0  0  0  0  0  0  0  0  0  0  0  0
  -21.3216   12.0981  -17.7777 H   0  0  0  0  0  0  0  0  0  0  0  0
  -19.2675   11.9104  -18.3743 C   0  0  0  0  0  0  0  0  0  0  0  0
  -18.5822   10.8679  -17.8085 C   0  0  0  0  0  0  0  0  0  0  0  0
  -17.5469   10.3218  -18.5318 C   0  0  0  0  0  0  0  0  0  0  0  0
  -17.2099   10.8009  -19.7745 C   0  0  0  0  0  0  0  0  0  0  0  0
  -16.0835   10.1741  -20.5101 C   0  0  0  0  0  0  0  0  0  0  0  0
  -17.8993   11.8720  -20.3782 C   0  0  0  0  0  0  0  0  0  0  0  0
  -18.9237   12.4029  -19.6480 C   0  0  0  0  0  0  0  0  0  0  0  0
  -17.4674   12.2770  -21.6499 N   0  0  0  0  0  0  0  0  0  0  0  0
  -17.4268   11.5084  -22.4007 H   0  0  0  0  0  0  0  0  0  0  0  0
  -17.0814   13.5449  -22.0772 C   0  0  0  0  0  0  0  0  0  0  0  0
  -16.9884   14.6075  -21.3063 N   0  0  0  0  0  0  0  0  0  0  0  0
  -16.6232   15.8267  -21.6887 C   0  0  0  0  0  0  0  0  0  0  0  0
  -16.3009   16.0319  -23.0302 C   0  0  0  0  0  0  0  0  0  0  0  0
  -16.3834   14.9537  -23.8702 C   0  0  0  0  0  0  0  0  0  0  0  0
  -16.7676   13.7394  -23.3891 N   0  0  0  0  0  0  0  0  0  0  0  0
  -16.0602   15.1007  -25.2804 C   0  0  0  0  0  0  0  0  0  0  0  0
  -14.9745   15.8117  -25.7060 C   0  0  0  0  0  0  0  0  0  0  0  0
  -14.7044   15.9255  -27.0446 N   0  0  0  0  0  0  0  0  0  0  0  0
  -15.4798   15.3546  -27.9766 C   0  0  0  0  0  0  0  0  0  0  0  0
  -16.5560   14.6493  -27.5644 N   0  0  0  0  0  0  0  0  0  0  0  0
  -16.8514   14.5163  -26.2638 C   0  0  0  0  0  0  0  0  0  0  0  0
  -20.2491   13.7360  -16.9092 C   0  0  0  0  0  0  0  0  0  0  0  0
  -20.6159   13.5059  -15.5773 O   0  0  0  0  0  0  0  0  0  0  0  0
  -21.2256   14.1879  -15.2531 H   0  0  0  0  0  0  0  0  0  0  0  0
  -22.4853   17.0807  -18.4466 C   0  0  0  0  0  0  0  0  0  0  0  0
  -22.6817   16.5558  -17.1893 C   0  0  0  0  0  0  0  0  0  0  0  0
  -21.9753   15.4811  -16.6841 C   0  0  0  0  0  0  0  0  0  0  0  0
  -21.0120   14.8780  -17.4590 C   0  0  0  0  0  0  0  0  0  0  0  0
  -20.8145   15.4056  -18.7209 C   0  0  0  0  0  0  0  0  0  0  0  0
  -21.5175   16.4775  -19.2280 C   0  0  0  0  0  0  0  0  0  0  0  0
  -21.2803   17.0163  -20.5832 C   0  0  0  0  0  0  0  0  0  0  0  0
  -20.2429   16.2539  -21.1419 F   0  0  0  0  0  0  0  0  0  0  0  0
  -20.7836   18.3136  -20.5688 F   0  0  0  0  0  0  0  0  0  0  0  0
  -22.3533   16.8664  -21.4285 F   0  0  0  0  0  0  0  0  0  0  0  0
  -23.2792   18.2266  -18.8763 C   0  0  0  0  0  0  0  0  0  0  0  0
  -25.3080   20.1884  -17.0790 C   0  0  0  0  0  0  0  0  0  0  0  0
  -23.9031   20.2262  -17.6351 C   0  0  0  0  0  0  0  0  0  0  0  0
  -24.0194   18.7556  -17.7535 N   0  0  0  0  0  0  0  0  0  0  0  0
  -25.4333   19.0358  -18.0838 C   0  0  0  0  0  0  0  0  0  0  0  0
  -25.5951   22.5719  -16.9843 C   0  0  0  0  0  0  0  0  0  0  0  0
  -26.1435   21.3109  -17.3644 N   0  0  0  0  0  0  0  0  0  0  0  0
  -27.5162   21.1270  -17.0193 C   0  0  0  0  0  0  0  0  0  0  0  0
 42 43  1  0  0  0
 43 44  1  0  0  0
 43 38  1  0  0  0
 38 39  1  0  0  0
 39 40  1  0  0  0
 40 37  1  0  0  0
 37 27  1  0  0  0
 27 28  2  0  0  0
 28 29  1  0  0  0
 29 30  2  0  0  0
 30 31  1  0  0  0
 31 32  2  0  0  0
 32 33  1  0  0  0
 33 34  1  0  0  0
 33 35  1  0  0  0
 33 36  1  0  0  0
 30 24  1  0  0  0
 24 25  1  0  0  0
 24  1  1  0  0  0
  1  3  1  0  0  0
  3  4  2  0  0  0
  4  5  1  0  0  0
  5  6  2  0  0  0
  6  7  1  0  0  0
  6  8  1  0  0  0
  8 10  1  0  0  0
 10 12  1  0  0  0
 12 13  2  0  0  0
 13 14  1  0  0  0
 14 15  2  0  0  0
 15 16  1  0  0  0
 16 17  2  0  0  0
 16 18  1  0  0  0
 18 19  2  0  0  0
 19 20  1  0  0  0
 20 21  2  0  0  0
 21 22  1  0  0  0
 22 23  2  0  0  0
  8  9  2  0  0  0
 40 41  1  0  0  0
 41 38  1  0  0  0
 32 27  1  0  0  0
  9  3  1  0  0  0
 17 12  1  0  0  0
 23 18  1  0  0  0
 25 26  1  0  0  0
  1  2  1  0  0  0
 10 11  1  0  0  0
M  END
> <minimizedAffinity>
-7.88043

> <CNNscore>
0.2106127590

> <CNNaffinity>
6.9174742699

> <CNN_VS>
1.4569083452

> <CNNaffinity_variance>
0.1360152662

$$$$
[H]OC([H])(c1c([H])c([H])c(C([H])([H])N2C([H])([H])C([H])(N(C([H])([H])[H])C([H])([H])[H])C2([H])[H])c(C(F)(F)F)c1[H])N([H])c1c([H])c([H])c(C([H])([H])[H])c(N([H])c2nc([H])c([H])c(-c3c([H])nc([H])nc3[H])n2)c1[H]


 44 48  0  0  0  0  0  0  0  0999 V2000
  -21.0269   13.7746  -18.2764 N   0  0  0  0  0  0  0  0  0  0  0  0
  -21.5862   12.9608  -18.6788 H   0  0  0  0  0  0  0  0  0  0  0  0
  -21.7075   14.9969  -18.0078 C   0  0  0  0  0  0  0  0  0  0  0  0
  -22.2614   15.2509  -16.7810 C   0  0  0  0  0  0  0  0  0  0  0  0
  -22.9004   16.4576  -16.6105 C   0  0  0  0  0  0  0  0  0  0  0  0
  -22.9820   17.3754  -17.6293 C   0  0  0  0  0  0  0  0  0  0  0  0
  -23.6839   18.6611  -17.3898 C   0  0  0  0  0  0  0  0  0  0  0  0
  -22.4205   17.1380  -18.9002 C   0  0  0  0  0  0  0  0  0  0  0  0
  -21.7901   15.9365  -19.0535 C   0  0  0  0  0  0  0  0  0  0  0  0
  -22.5656   18.1469  -19.8639 N   0  0  0  0  0  0  0  0  0  0  0  0
  -22.3660   19.1495  -19.5303 H   0  0  0  0  0  0  0  0  0  0  0  0
  -22.9347   18.0291  -21.2015 C   0  0  0  0  0  0  0  0  0  0  0  0
  -23.7710   17.1324  -21.6795 N   0  0  0  0  0  0  0  0  0  0  0  0
  -24.1391   16.9988  -22.9495 C   0  0  0  0  0  0  0  0  0  0  0  0
  -23.6050   17.8790  -23.8904 C   0  0  0  0  0  0  0  0  0  0  0  0
  -22.7295   18.8297  -23.4383 C   0  0  0  0  0  0  0  0  0  0  0  0
  -22.4095   18.8920  -22.1164 N   0  0  0  0  0  0  0  0  0  0  0  0
  -22.1375   19.7782  -24.3684 C   0  0  0  0  0  0  0  0  0  0  0  0
  -20.9415   20.3887  -24.1195 C   0  0  0  0  0  0  0  0  0  0  0  0
  -20.4175   21.2763  -25.0225 N   0  0  0  0  0  0  0  0  0  0  0  0
  -21.0447   21.5778  -26.1677 C   0  0  0  0  0  0  0  0  0  0  0  0
  -22.2286   20.9783  -26.4220 N   0  0  0  0  0  0  0  0  0  0  0  0
  -22.7717   20.1051  -25.5623 C   0  0  0  0  0  0  0  0  0  0  0  0
  -19.6256   13.5454  -18.0451 C   0  0  0  0  0  0  0  0  0  0  0  0
  -19.0404   14.6076  -17.3447 O   0  0  0  0  0  0  0  0  0  0  0  0
  -18.2066   14.8881  -17.7548 H   0  0  0  0  0  0  0  0  0  0  0  0
  -17.3994   12.7885  -21.6538 C   0  0  0  0  0  0  0  0  0  0  0  0
  -18.2496   13.8605  -21.5027 C   0  0  0  0  0  0  0  0  0  0  0  0
  -18.9733   14.1138  -20.3531 C   0  0  0  0  0  0  0  0  0  0  0  0
  -18.8590   13.2630  -19.2784 C   0  0  0  0  0  0  0  0  0  0  0  0
  -18.0048   12.1872  -19.4301 C   0  0  0  0  0  0  0  0  0  0  0  0
  -17.2816   11.9315  -20.5755 C   0  0  0  0  0  0  0  0  0  0  0  0
  -16.3767   10.7706  -20.7035 C   0  0  0  0  0  0  0  0  0  0  0  0
  -17.1837    9.6654  -21.0149 F   0  0  0  0  0  0  0  0  0  0  0  0
  -15.7694   10.4247  -19.5028 F   0  0  0  0  0  0  0  0  0  0  0  0
  -15.4811   10.8850  -21.7394 F   0  0  0  0  0  0  0  0  0  0  0  0
  -16.6734   12.6214  -22.9079 C   0  0  0  0  0  0  0  0  0  0  0  0
  -16.4521   14.7727  -25.4610 C   0  0  0  0  0  0  0  0  0  0  0  0
  -15.8256   14.5672  -24.1010 C   0  0  0  0  0  0  0  0  0  0  0  0
  -16.9938   13.7080  -23.8053 N   0  0  0  0  0  0  0  0  0  0  0  0
  -16.8910   13.3211  -25.2288 C   0  0  0  0  0  0  0  0  0  0  0  0
  -14.4600   15.8202  -26.3014 C   0  0  0  0  0  0  0  0  0  0  0  0
  -15.5588   14.9483  -26.5613 N   0  0  0  0  0  0  0  0  0  0  0  0
  -16.2041   15.1570  -27.8172 C   0  0  0  0  0  0  0  0  0  0  0  0
 42 43  1  0  0  0
 43 44  1  0  0  0
 43 38  1  0  0  0
 38 39  1  0  0  0
 39 40  1  0  0  0
 40 37  1  0  0  0
 37 27  1  0  0  0
 27 28  2  0  0  0
 28 29  1  0  0  0
 29 30  2  0  0  0
 30 31  1  0  0  0
 31 32  2  0  0  0
 32 33  1  0  0  0
 33 34  1  0  0  0
 33 35  1  0  0  0
 33 36  1  0  0  0
 30 24  1  0  0  0
 24 25  1  0  0  0
 24  1  1  0  0  0
  1  3  1  0  0  0
  3  4  2  0  0  0
  4  5  1  0  0  0
  5  6  2  0  0  0
  6  7  1  0  0  0
  6  8  1  0  0  0
  8 10  1  0  0  0
 10 12  1  0  0  0
 12 13  2  0  0  0
 13 14  1  0  0  0
 14 15  2  0  0  0
 15 16  1  0  0  0
 16 17  2  0  0  0
 16 18  1  0  0  0
 18 19  2  0  0  0
 19 20  1  0  0  0
 20 21  2  0  0  0
 21 22  1  0  0  0
 22 23  2  0  0  0
  8  9  2  0  0  0
 40 41  1  0  0  0
 41 38  1  0  0  0
 32 27  1  0  0  0
  9  3  1  0  0  0
 17 12  1  0  0  0
 23 18  1  0  0  0
 25 26  1  0  0  0
  1  2  1  0  0  0
 10 11  1  0  0  0
M  END
> <minimizedAffinity>
-9.28943

> <CNNscore>
0.1762101352

> <CNNaffinity>
6.9369430542

> <CNN_VS>
1.2223596573

> <CNNaffinity_variance>
0.4892008901

$$$$
[H]OC([H])(c1c([H])c([H])c(C([H])([H])N2C([H])([H])C([H])(N(C([H])([H])[H])C([H])([H])[H])C2([H])[H])c(C(F)(F)F)c1[H])N([H])c1c([H])c([H])c(C([H])([H])[H])c(N([H])c2nc([H])c([H])c(-c3c([H])nc([H])nc3[H])n2)c1[H]


 44 48  0  0  0  0  0  0  0  0999 V2000
  -19.8185   12.1454  -17.6818 N   0  0  0  0  0  0  0  0  0  0  0  0
  -20.7758   11.6758  -17.6735 H   0  0  0  0  0  0  0  0  0  0  0  0
  -18.7948   11.5818  -18.4966 C   0  0  0  0  0  0  0  0  0  0  0  0
  -18.0160   10.5469  -18.0505 C   0  0  0  0  0  0  0  0  0  0  0  0
  -17.0509   10.0647  -18.9045 C   0  0  0  0  0  0  0  0  0  0  0  0
  -16.8718   10.5980  -20.1578 C   0  0  0  0  0  0  0  0  0  0  0  0
  -15.8149   10.0390  -21.0373 C   0  0  0  0  0  0  0  0  0  0  0  0
  -17.6598   11.6626  -20.6400 C   0  0  0  0  0  0  0  0  0  0  0  0
  -18.6128   12.1298  -19.7810 C   0  0  0  0  0  0  0  0  0  0  0  0
  -17.3872   12.1265  -21.9355 N   0  0  0  0  0  0  0  0  0  0  0  0
  -17.5067   11.4093  -22.7278 H   0  0  0  0  0  0  0  0  0  0  0  0
  -16.9806   13.3954  -22.3402 C   0  0  0  0  0  0  0  0  0  0  0  0
  -16.8370   14.4336  -21.5443 N   0  0  0  0  0  0  0  0  0  0  0  0
  -16.4512   15.6532  -21.9047 C   0  0  0  0  0  0  0  0  0  0  0  0
  -16.1632   15.8869  -23.2493 C   0  0  0  0  0  0  0  0  0  0  0  0
  -16.2988   14.8348  -24.1150 C   0  0  0  0  0  0  0  0  0  0  0  0
  -16.7006   13.6178  -23.6553 N   0  0  0  0  0  0  0  0  0  0  0  0
  -16.0135   15.0122  -25.5299 C   0  0  0  0  0  0  0  0  0  0  0  0
  -14.9259   15.7121  -25.9688 C   0  0  0  0  0  0  0  0  0  0  0  0
  -14.6923   15.8556  -27.3114 N   0  0  0  0  0  0  0  0  0  0  0  0
  -15.5061   15.3252  -28.2346 C   0  0  0  0  0  0  0  0  0  0  0  0
  -16.5844   14.6311  -27.8091 N   0  0  0  0  0  0  0  0  0  0  0  0
  -16.8449   14.4700  -26.5042 C   0  0  0  0  0  0  0  0  0  0  0  0
  -19.6635   13.3142  -16.8575 C   0  0  0  0  0  0  0  0  0  0  0  0
  -20.2953   13.1554  -15.6178 O   0  0  0  0  0  0  0  0  0  0  0  0
  -20.8340   13.9303  -15.3909 H   0  0  0  0  0  0  0  0  0  0  0  0
  -21.0458   16.9176  -18.7695 C   0  0  0  0  0  0  0  0  0  0  0  0
  -21.4707   15.6598  -19.1333 C   0  0  0  0  0  0  0  0  0  0  0  0
  -21.0332   14.4950  -18.5323 C   0  0  0  0  0  0  0  0  0  0  0  0
  -20.1191   14.5629  -17.5067 C   0  0  0  0  0  0  0  0  0  0  0  0
  -19.6933   15.8258  -17.1411 C   0  0  0  0  0  0  0  0  0  0  0  0
  -20.1276   16.9897  -17.7387 C   0  0  0  0  0  0  0  0  0  0  0  0
  -19.6507   18.3248  -17.3222 C   0  0  0  0  0  0  0  0  0  0  0  0
  -18.7691   18.1192  -16.2497 F   0  0  0  0  0  0  0  0  0  0  0  0
  -20.6604   19.1166  -16.7897 F   0  0  0  0  0  0  0  0  0  0  0  0
  -18.9204   18.9726  -18.2894 F   0  0  0  0  0  0  0  0  0  0  0  0
  -21.5819   18.0832  -19.4636 C   0  0  0  0  0  0  0  0  0  0  0  0
  -21.9087   18.5832  -22.7558 C   0  0  0  0  0  0  0  0  0  0  0  0
  -22.6895   17.9489  -21.6278 C   0  0  0  0  0  0  0  0  0  0  0  0
  -21.4070   17.9249  -20.8895 N   0  0  0  0  0  0  0  0  0  0  0  0
  -21.1492   19.2078  -21.5782 C   0  0  0  0  0  0  0  0  0  0  0  0
  -23.7649   19.0048  -24.2217 C   0  0  0  0  0  0  0  0  0  0  0  0
  -22.6065   19.5250  -23.5716 N   0  0  0  0  0  0  0  0  0  0  0  0
  -21.7640   20.3255  -24.4002 C   0  0  0  0  0  0  0  0  0  0  0  0
 42 43  1  0  0  0
 43 44  1  0  0  0
 43 38  1  0  0  0
 38 39  1  0  0  0
 39 40  1  0  0  0
 40 37  1  0  0  0
 37 27  1  0  0  0
 27 28  2  0  0  0
 28 29  1  0  0  0
 29 30  2  0  0  0
 30 31  1  0  0  0
 31 32  2  0  0  0
 32 33  1  0  0  0
 33 34  1  0  0  0
 33 35  1  0  0  0
 33 36  1  0  0  0
 30 24  1  0  0  0
 24 25  1  0  0  0
 24  1  1  0  0  0
  1  3  1  0  0  0
  3  4  2  0  0  0
  4  5  1  0  0  0
  5  6  2  0  0  0
  6  7  1  0  0  0
  6  8  1  0  0  0
  8 10  1  0  0  0
 10 12  1  0  0  0
 12 13  2  0  0  0
 13 14  1  0  0  0
 14 15  2  0  0  0
 15 16  1  0  0  0
 16 17  2  0  0  0
 16 18  1  0  0  0
 18 19  2  0  0  0
 19 20  1  0  0  0
 20 21  2  0  0  0
 21 22  1  0  0  0
 22 23  2  0  0  0
  8  9  2  0  0  0
 40 41  1  0  0  0
 41 38  1  0  0  0
 32 27  1  0  0  0
  9  3  1  0  0  0
 17 12  1  0  0  0
 23 18  1  0  0  0
 25 26  1  0  0  0
  1  2  1  0  0  0
 10 11  1  0  0  0
M  END
> <minimizedAffinity>
-8.74958

> <CNNscore>
0.1252497882

> <CNNaffinity>
6.8486557007

> <CNN_VS>
0.8577926755

> <CNNaffinity_variance>
0.7066472173

$$$$
[H]OC([H])(c1c([H])c([H])c(C([H])([H])N2C([H])([H])C([H])(N(C([H])([H])[H])C([H])([H])[H])C2([H])[H])c(C(F)(F)F)c1[H])N([H])c1c([H])c([H])c(C([H])([H])[H])c(N([H])c2nc([H])c([H])c(-c3c([H])nc([H])nc3[H])n2)c1[H]


 44 48  0  0  0  0  0  0  0  0999 V2000
  -17.0926   11.5503  -21.7783 N   0  0  0  0  0  0  0  0  0  0  0  0
  -17.8616   10.9748  -22.2414 H   0  0  0  0  0  0  0  0  0  0  0  0
  -16.6942   12.7703  -22.3967 C   0  0  0  0  0  0  0  0  0  0  0  0
  -15.7766   12.7888  -23.4136 C   0  0  0  0  0  0  0  0  0  0  0  0
  -15.4505   14.0122  -23.9522 C   0  0  0  0  0  0  0  0  0  0  0  0
  -16.0210   15.1735  -23.4905 C   0  0  0  0  0  0  0  0  0  0  0  0
  -15.6317   16.4658  -24.1082 C   0  0  0  0  0  0  0  0  0  0  0  0
  -16.9672   15.1811  -22.4458 C   0  0  0  0  0  0  0  0  0  0  0  0
  -17.2803   13.9596  -21.9221 C   0  0  0  0  0  0  0  0  0  0  0  0
  -17.4829   16.4263  -22.0567 N   0  0  0  0  0  0  0  0  0  0  0  0
  -16.7633   17.2150  -21.9285 H   0  0  0  0  0  0  0  0  0  0  0  0
  -18.8060   16.7848  -21.8119 C   0  0  0  0  0  0  0  0  0  0  0  0
  -19.4747   16.5055  -20.7134 N   0  0  0  0  0  0  0  0  0  0  0  0
  -20.7360   16.8353  -20.4554 C   0  0  0  0  0  0  0  0  0  0  0  0
  -21.4461   17.5466  -21.4225 C   0  0  0  0  0  0  0  0  0  0  0  0
  -20.7901   17.8596  -22.5829 C   0  0  0  0  0  0  0  0  0  0  0  0
  -19.4949   17.4797  -22.7606 N   0  0  0  0  0  0  0  0  0  0  0  0
  -21.4740   18.6004  -23.6310 C   0  0  0  0  0  0  0  0  0  0  0  0
  -22.5172   18.0681  -24.3336 C   0  0  0  0  0  0  0  0  0  0  0  0
  -23.1354   18.7999  -25.3135 N   0  0  0  0  0  0  0  0  0  0  0  0
  -22.7499   20.0465  -25.6188 C   0  0  0  0  0  0  0  0  0  0  0  0
  -21.7186   20.5809  -24.9286 N   0  0  0  0  0  0  0  0  0  0  0  0
  -21.0901   19.8952  -23.9636 C   0  0  0  0  0  0  0  0  0  0  0  0
  -16.5339   11.0241  -20.5615 C   0  0  0  0  0  0  0  0  0  0  0  0
  -15.9577    9.7638  -20.7642 O   0  0  0  0  0  0  0  0  0  0  0  0
  -16.2339    9.1320  -20.0812 H   0  0  0  0  0  0  0  0  0  0  0  0
  -19.3074   10.8140  -17.2729 C   0  0  0  0  0  0  0  0  0  0  0  0
  -18.5574    9.7404  -17.6970 C   0  0  0  0  0  0  0  0  0  0  0  0
  -17.6672    9.7915  -18.7526 C   0  0  0  0  0  0  0  0  0  0  0  0
  -17.4977   10.9706  -19.4405 C   0  0  0  0  0  0  0  0  0  0  0  0
  -18.2502   12.0484  -19.0141 C   0  0  0  0  0  0  0  0  0  0  0  0
  -19.1393   12.0008  -17.9616 C   0  0  0  0  0  0  0  0  0  0  0  0
  -19.9286   13.1737  -17.5321 C   0  0  0  0  0  0  0  0  0  0  0  0
  -19.6210   14.2126  -18.4242 F   0  0  0  0  0  0  0  0  0  0  0  0
  -19.5394   13.6608  -16.2906 F   0  0  0  0  0  0  0  0  0  0  0  0
  -21.2865   12.9860  -17.6286 F   0  0  0  0  0  0  0  0  0  0  0  0
  -20.2100   10.6535  -16.1383 C   0  0  0  0  0  0  0  0  0  0  0  0
  -19.4642   10.4020  -12.8862 C   0  0  0  0  0  0  0  0  0  0  0  0
  -20.2080   11.3451  -13.8037 C   0  0  0  0  0  0  0  0  0  0  0  0
  -19.4572   10.7028  -14.9056 N   0  0  0  0  0  0  0  0  0  0  0  0
  -19.6034    9.4723  -14.0986 C   0  0  0  0  0  0  0  0  0  0  0  0
  -20.5492   10.9982  -10.8272 C   0  0  0  0  0  0  0  0  0  0  0  0
  -20.1588    9.9568  -11.7206 N   0  0  0  0  0  0  0  0  0  0  0  0
  -19.5814    8.8134  -11.0909 C   0  0  0  0  0  0  0  0  0  0  0  0
 42 43  1  0  0  0
 43 44  1  0  0  0
 43 38  1  0  0  0
 38 39  1  0  0  0
 39 40  1  0  0  0
 40 37  1  0  0  0
 37 27  1  0  0  0
 27 28  2  0  0  0
 28 29  1  0  0  0
 29 30  2  0  0  0
 30 31  1  0  0  0
 31 32  2  0  0  0
 32 33  1  0  0  0
 33 34  1  0  0  0
 33 35  1  0  0  0
 33 36  1  0  0  0
 30 24  1  0  0  0
 24 25  1  0  0  0
 24  1  1  0  0  0
  1  3  1  0  0  0
  3  4  2  0  0  0
  4  5  1  0  0  0
  5  6  2  0  0  0
  6  7  1  0  0  0
  6  8  1  0  0  0
  8 10  1  0  0  0
 10 12  1  0  0  0
 12 13  2  0  0  0
 13 14  1  0  0  0
 14 15  2  0  0  0
 15 16  1  0  0  0
 16 17  2  0  0  0
 16 18  1  0  0  0
 18 19  2  0  0  0
 19 20  1  0  0  0
 20 21  2  0  0  0
 21 22  1  0  0  0
 22 23  2  0  0  0
  8  9  2  0  0  0
 40 41  1  0  0  0
 41 38  1  0  0  0
 32 27  1  0  0  0
  9  3  1  0  0  0
 17 12  1  0  0  0
 23 18  1  0  0  0
 25 26  1  0  0  0
  1  2  1  0  0  0
 10 11  1  0  0  0
M  END
> <minimizedAffinity>
-9.05980

> <CNNscore>
0.1188645661

> <CNNaffinity>
7.0183410645

> <CNN_VS>
0.8342320919

> <CNNaffinity_variance>
0.0518250838

$$$$
[H]OC([H])(c1c([H])c([H])c(C([H])([H])N2C([H])([H])C([H])(N(C([H])([H])[H])C([H])([H])[H])C2([H])[H])c(C(F)(F)F)c1[H])N([H])c1c([H])c([H])c(C([H])([H])[H])c(N([H])c2nc([H])c([H])c(-c3c([H])nc([H])nc3[H])n2)c1[H]


 44 48  0  0  0  0  0  0  0  0999 V2000
  -16.6042   11.6001  -22.4145 N   0  0  0  0  0  0  0  0  0  0  0  0
  -17.3019   10.9555  -22.8989 H   0  0  0  0  0  0  0  0  0  0  0  0
  -16.2358   12.8118  -23.0669 C   0  0  0  0  0  0  0  0  0  0  0  0
  -14.9317   13.0817  -23.3880 C   0  0  0  0  0  0  0  0  0  0  0  0
  -14.6670   14.2766  -24.0168 C   0  0  0  0  0  0  0  0  0  0  0  0
  -15.6695   15.1679  -24.3132 C   0  0  0  0  0  0  0  0  0  0  0  0
  -15.3266   16.4424  -24.9921 C   0  0  0  0  0  0  0  0  0  0  0  0
  -17.0186   14.9136  -23.9934 C   0  0  0  0  0  0  0  0  0  0  0  0
  -17.2648   13.7241  -23.3699 C   0  0  0  0  0  0  0  0  0  0  0  0
  -17.9567   15.8959  -24.3437 N   0  0  0  0  0  0  0  0  0  0  0  0
  -18.3913   15.8046  -25.3231 H   0  0  0  0  0  0  0  0  0  0  0  0
  -18.4061   16.9800  -23.5940 C   0  0  0  0  0  0  0  0  0  0  0  0
  -18.2339   18.2448  -23.9143 N   0  0  0  0  0  0  0  0  0  0  0  0
  -18.6519   19.2963  -23.2173 C   0  0  0  0  0  0  0  0  0  0  0  0
  -19.3431   19.0702  -22.0270 C   0  0  0  0  0  0  0  0  0  0  0  0
  -19.5458   17.7686  -21.6535 C   0  0  0  0  0  0  0  0  0  0  0  0
  -19.0807   16.7529  -22.4318 N   0  0  0  0  0  0  0  0  0  0  0  0
  -20.2598   17.4649  -20.4235 C   0  0  0  0  0  0  0  0  0  0  0  0
  -21.4846   16.8607  -20.4255 C   0  0  0  0  0  0  0  0  0  0  0  0
  -22.1241   16.5911  -19.2439 N   0  0  0  0  0  0  0  0  0  0  0  0
  -21.5851   16.9030  -18.0573 C   0  0  0  0  0  0  0  0  0  0  0  0
  -20.3735   17.5011  -18.0461 N   0  0  0  0  0  0  0  0  0  0  0  0
  -19.7185   17.7801  -19.1817 C   0  0  0  0  0  0  0  0  0  0  0  0
  -16.1043   11.1693  -21.1361 C   0  0  0  0  0  0  0  0  0  0  0  0
  -15.6174    9.8573  -21.1910 O   0  0  0  0  0  0  0  0  0  0  0  0
  -15.9494    9.3232  -20.4517 H   0  0  0  0  0  0  0  0  0  0  0  0
  -18.9327   11.5129  -17.9060 C   0  0  0  0  0  0  0  0  0  0  0  0
  -18.1536   10.3967  -18.1111 C   0  0  0  0  0  0  0  0  0  0  0  0
  -17.2455   10.2704  -19.1448 C   0  0  0  0  0  0  0  0  0  0  0  0
  -17.0872   11.3038  -20.0387 C   0  0  0  0  0  0  0  0  0  0  0  0
  -17.8689   12.4245  -19.8322 C   0  0  0  0  0  0  0  0  0  0  0  0
  -18.7759   12.5538  -18.8022 C   0  0  0  0  0  0  0  0  0  0  0  0
  -19.5963   13.7677  -18.6109 C   0  0  0  0  0  0  0  0  0  0  0  0
  -19.2689   14.6421  -19.6587 F   0  0  0  0  0  0  0  0  0  0  0  0
  -19.2609   14.4700  -17.4602 F   0  0  0  0  0  0  0  0  0  0  0  0
  -20.9470   13.5396  -18.7208 F   0  0  0  0  0  0  0  0  0  0  0  0
  -19.8525   11.5463  -16.7743 C   0  0  0  0  0  0  0  0  0  0  0  0
  -21.1822    8.9720  -15.1009 C   0  0  0  0  0  0  0  0  0  0  0  0
  -19.9062    9.7821  -15.0970 C   0  0  0  0  0  0  0  0  0  0  0  0
  -20.2906   10.2049  -16.4623 N   0  0  0  0  0  0  0  0  0  0  0  0
  -21.6709   10.1645  -15.9334 C   0  0  0  0  0  0  0  0  0  0  0  0
  -21.1157    8.0801  -12.8710 C   0  0  0  0  0  0  0  0  0  0  0  0
  -21.8496    8.8165  -13.8479 N   0  0  0  0  0  0  0  0  0  0  0  0
  -23.2279    8.4612  -13.9541 C   0  0  0  0  0  0  0  0  0  0  0  0
 42 43  1  0  0  0
 43 44  1  0  0  0
 43 38  1  0  0  0
 38 39  1  0  0  0
 39 40  1  0  0  0
 40 37  1  0  0  0
 37 27  1  0  0  0
 27 28  2  0  0  0
 28 29  1  0  0  0
 29 30  2  0  0  0
 30 31  1  0  0  0
 31 32  2  0  0  0
 32 33  1  0  0  0
 33 34  1  0  0  0
 33 35  1  0  0  0
 33 36  1  0  0  0
 30 24  1  0  0  0
 24 25  1  0  0  0
 24  1  1  0  0  0
  1  3  1  0  0  0
  3  4  2  0  0  0
  4  5  1  0  0  0
  5  6  2  0  0  0
  6  7  1  0  0  0
  6  8  1  0  0  0
  8 10  1  0  0  0
 10 12  1  0  0  0
 12 13  2  0  0  0
 13 14  1  0  0  0
 14 15  2  0  0  0
 15 16  1  0  0  0
 16 17  2  0  0  0
 16 18  1  0  0  0
 18 19  2  0  0  0
 19 20  1  0  0  0
 20 21  2  0  0  0
 21 22  1  0  0  0
 22 23  2  0  0  0
  8  9  2  0  0  0
 40 41  1  0  0  0
 41 38  1  0  0  0
 32 27  1  0  0  0
  9  3  1  0  0  0
 17 12  1  0  0  0
 23 18  1  0  0  0
 25 26  1  0  0  0
  1  2  1  0  0  0
 10 11  1  0  0  0
M  END
> <minimizedAffinity>
-8.75850

> <CNNscore>
0.1135709733

> <CNNaffinity>
7.3574242592

> <CNN_VS>
0.8355898261

> <CNNaffinity_variance>
0.1540928185

$$$$
[H]OC([H])(c1c([H])c([H])c(C([H])([H])N2C([H])([H])C([H])(N(C([H])([H])[H])C([H])([H])[H])C2([H])[H])c(C(F)(F)F)c1[H])N([H])c1c([H])c([H])c(C([H])([H])[H])c(N([H])c2nc([H])c([H])c(-c3c([H])nc([H])nc3[H])n2)c1[H]


 44 48  0  0  0  0  0  0  0  0999 V2000
  -16.9991   11.2130  -21.4095 N   0  0  0  0  0  0  0  0  0  0  0  0
  -17.7625   10.5895  -21.8163 H   0  0  0  0  0  0  0  0  0  0  0  0
  -16.5288   12.3062  -22.1926 C   0  0  0  0  0  0  0  0  0  0  0  0
  -15.3442   12.2366  -22.8769 C   0  0  0  0  0  0  0  0  0  0  0  0
  -14.9675   13.3399  -23.6077 C   0  0  0  0  0  0  0  0  0  0  0  0
  -15.7469   14.4703  -23.6520 C   0  0  0  0  0  0  0  0  0  0  0  0
  -15.2914   15.6317  -24.4563 C   0  0  0  0  0  0  0  0  0  0  0  0
  -16.9694   14.5668  -22.9571 C   0  0  0  0  0  0  0  0  0  0  0  0
  -17.3292   13.4640  -22.2368 C   0  0  0  0  0  0  0  0  0  0  0  0
  -17.6810   15.7699  -23.0752 N   0  0  0  0  0  0  0  0  0  0  0  0
  -18.1745   15.9351  -24.0162 H   0  0  0  0  0  0  0  0  0  0  0  0
  -17.8377   16.7866  -22.1366 C   0  0  0  0  0  0  0  0  0  0  0  0
  -17.6133   16.6655  -20.8455 N   0  0  0  0  0  0  0  0  0  0  0  0
  -17.7551   17.6184  -19.9300 C   0  0  0  0  0  0  0  0  0  0  0  0
  -18.1812   18.8795  -20.3467 C   0  0  0  0  0  0  0  0  0  0  0  0
  -18.4271   19.0521  -21.6825 C   0  0  0  0  0  0  0  0  0  0  0  0
  -18.2543   18.0167  -22.5495 N   0  0  0  0  0  0  0  0  0  0  0  0
  -18.8734   20.3431  -22.1817 C   0  0  0  0  0  0  0  0  0  0  0  0
  -18.8751   21.4626  -21.3995 C   0  0  0  0  0  0  0  0  0  0  0  0
  -19.3030   22.6607  -21.9086 N   0  0  0  0  0  0  0  0  0  0  0  0
  -19.7305   22.7831  -23.1727 C   0  0  0  0  0  0  0  0  0  0  0  0
  -19.7322   21.6805  -23.9536 N   0  0  0  0  0  0  0  0  0  0  0  0
  -19.3208   20.4920  -23.4902 C   0  0  0  0  0  0  0  0  0  0  0  0
  -16.5210   10.8771  -20.0948 C   0  0  0  0  0  0  0  0  0  0  0  0
  -15.8781    9.6329  -20.0848 O   0  0  0  0  0  0  0  0  0  0  0  0
  -16.1832    9.0805  -19.3473 H   0  0  0  0  0  0  0  0  0  0  0  0
  -19.5495   10.9415  -17.0328 C   0  0  0  0  0  0  0  0  0  0  0  0
  -18.8208    9.8174  -17.3497 C   0  0  0  0  0  0  0  0  0  0  0  0
  -17.8496    9.7805  -18.3319 C   0  0  0  0  0  0  0  0  0  0  0  0
  -17.5708   10.9179  -19.0533 C   0  0  0  0  0  0  0  0  0  0  0  0
  -18.3019   12.0465  -18.7345 C   0  0  0  0  0  0  0  0  0  0  0  0
  -19.2716   12.0868  -17.7555 C   0  0  0  0  0  0  0  0  0  0  0  0
  -20.0350   13.3120  -17.4406 C   0  0  0  0  0  0  0  0  0  0  0  0
  -19.5356   14.3219  -18.2775 F   0  0  0  0  0  0  0  0  0  0  0  0
  -19.7956   13.7816  -16.1552 F   0  0  0  0  0  0  0  0  0  0  0  0
  -21.3747   13.2130  -17.7302 F   0  0  0  0  0  0  0  0  0  0  0  0
  -20.5444   10.8735  -15.9683 C   0  0  0  0  0  0  0  0  0  0  0  0
  -20.0047   10.1053  -12.7567 C   0  0  0  0  0  0  0  0  0  0  0  0
  -19.7358   11.2527  -13.7032 C   0  0  0  0  0  0  0  0  0  0  0  0
  -19.9586   10.2741  -14.7909 N   0  0  0  0  0  0  0  0  0  0  0  0
  -20.9717    9.7029  -13.8777 C   0  0  0  0  0  0  0  0  0  0  0  0
  -19.7534   10.5398  -10.4072 C   0  0  0  0  0  0  0  0  0  0  0  0
  -20.6402   10.4274  -11.5191 N   0  0  0  0  0  0  0  0  0  0  0  0
  -21.8342    9.6896  -11.2599 C   0  0  0  0  0  0  0  0  0  0  0  0
 42 43  1  0  0  0
 43 44  1  0  0  0
 43 38  1  0  0  0
 38 39  1  0  0  0
 39 40  1  0  0  0
 40 37  1  0  0  0
 37 27  1  0  0  0
 27 28  2  0  0  0
 28 29  1  0  0  0
 29 30  2  0  0  0
 30 31  1  0  0  0
 31 32  2  0  0  0
 32 33  1  0  0  0
 33 34  1  0  0  0
 33 35  1  0  0  0
 33 36  1  0  0  0
 30 24  1  0  0  0
 24 25  1  0  0  0
 24  1  1  0  0  0
  1  3  1  0  0  0
  3  4  2  0  0  0
  4  5  1  0  0  0
  5  6  2  0  0  0
  6  7  1  0  0  0
  6  8  1  0  0  0
  8 10  1  0  0  0
 10 12  1  0  0  0
 12 13  2  0  0  0
 13 14  1  0  0  0
 14 15  2  0  0  0
 15 16  1  0  0  0
 16 17  2  0  0  0
 16 18  1  0  0  0
 18 19  2  0  0  0
 19 20  1  0  0  0
 20 21  2  0  0  0
 21 22  1  0  0  0
 22 23  2  0  0  0
  8  9  2  0  0  0
 40 41  1  0  0  0
 41 38  1  0  0  0
 32 27  1  0  0  0
  9  3  1  0  0  0
 17 12  1  0  0  0
 23 18  1  0  0  0
 25 26  1  0  0  0
  1  2  1  0  0  0
 10 11  1  0  0  0
M  END
> <minimizedAffinity>
-8.79750

> <CNNscore>
0.1077537164

> <CNNaffinity>
6.9960846901

> <CNN_VS>
0.7538540959

> <CNNaffinity_variance>
0.0421265513

$$$$
[H]OC([H])(c1c([H])c([H])c(C([H])([H])N2C([H])([H])C([H])(N(C([H])([H])[H])C([H])([H])[H])C2([H])[H])c(C(F)(F)F)c1[H])N([H])c1c([H])c([H])c(C([H])([H])[H])c(N([H])c2nc([H])c([H])c(-c3c([H])nc([H])nc3[H])n2)c1[H]


 44 48  0  0  0  0  0  0  0  0999 V2000
  -20.4825   12.6968  -17.5060 N   0  0  0  0  0  0  0  0  0  0  0  0
  -21.4817   12.3530  -17.6492 H   0  0  0  0  0  0  0  0  0  0  0  0
  -19.4265   12.0010  -18.1620 C   0  0  0  0  0  0  0  0  0  0  0  0
  -18.8500   10.8899  -17.6057 C   0  0  0  0  0  0  0  0  0  0  0  0
  -17.8361   10.2812  -18.3091 C   0  0  0  0  0  0  0  0  0  0  0  0
  -17.4149   10.7663  -19.5234 C   0  0  0  0  0  0  0  0  0  0  0  0
  -16.3163   10.0701  -20.2385 C   0  0  0  0  0  0  0  0  0  0  0  0
  -17.9916   11.9073  -20.1168 C   0  0  0  0  0  0  0  0  0  0  0  0
  -18.9962   12.4998  -19.4066 C   0  0  0  0  0  0  0  0  0  0  0  0
  -17.4807   12.3117  -21.3591 N   0  0  0  0  0  0  0  0  0  0  0  0
  -17.3476   11.5339  -22.0896 H   0  0  0  0  0  0  0  0  0  0  0  0
  -17.1197   13.5891  -21.7800 C   0  0  0  0  0  0  0  0  0  0  0  0
  -17.0796   14.6561  -21.0106 N   0  0  0  0  0  0  0  0  0  0  0  0
  -16.7393   15.8844  -21.3869 C   0  0  0  0  0  0  0  0  0  0  0  0
  -16.3851   16.0950  -22.7195 C   0  0  0  0  0  0  0  0  0  0  0  0
  -16.4124   15.0126  -23.5575 C   0  0  0  0  0  0  0  0  0  0  0  0
  -16.7747   13.7889  -23.0832 N   0  0  0  0  0  0  0  0  0  0  0  0
  -16.0537   15.1650  -24.9586 C   0  0  0  0  0  0  0  0  0  0  0  0
  -14.9159   15.8108  -25.3505 C   0  0  0  0  0  0  0  0  0  0  0  0
  -14.6137   15.9322  -26.6815 N   0  0  0  0  0  0  0  0  0  0  0  0
  -15.4072   15.4317  -27.6384 C   0  0  0  0  0  0  0  0  0  0  0  0
  -16.5350   14.7913  -27.2596 N   0  0  0  0  0  0  0  0  0  0  0  0
  -16.8629   14.6532  -25.9674 C   0  0  0  0  0  0  0  0  0  0  0  0
  -20.3080   13.8426  -16.6538 C   0  0  0  0  0  0  0  0  0  0  0  0
  -21.0426   13.7171  -15.4681 O   0  0  0  0  0  0  0  0  0  0  0  0
  -21.5403   14.5265  -15.2702 H   0  0  0  0  0  0  0  0  0  0  0  0
  -21.1683   17.5766  -18.6206 C   0  0  0  0  0  0  0  0  0  0  0  0
  -19.9177   17.0013  -18.6076 C   0  0  0  0  0  0  0  0  0  0  0  0
  -19.6258   15.8067  -17.9776 C   0  0  0  0  0  0  0  0  0  0  0  0
  -20.6222   15.1277  -17.3157 C   0  0  0  0  0  0  0  0  0  0  0  0
  -21.8777   15.7050  -17.3295 C   0  0  0  0  0  0  0  0  0  0  0  0
  -22.1724   16.8967  -17.9568 C   0  0  0  0  0  0  0  0  0  0  0  0
  -23.5273   17.4858  -17.9516 C   0  0  0  0  0  0  0  0  0  0  0  0
  -24.3089   16.6866  -17.1029 F   0  0  0  0  0  0  0  0  0  0  0  0
  -24.1594   17.3965  -19.1855 F   0  0  0  0  0  0  0  0  0  0  0  0
  -23.5726   18.7525  -17.4207 F   0  0  0  0  0  0  0  0  0  0  0  0
  -21.3696   18.8367  -19.3273 C   0  0  0  0  0  0  0  0  0  0  0  0
  -21.8055   19.3755  -22.6007 C   0  0  0  0  0  0  0  0  0  0  0  0
  -22.6548   19.2072  -21.3619 C   0  0  0  0  0  0  0  0  0  0  0  0
  -21.4576   18.5900  -20.7486 N   0  0  0  0  0  0  0  0  0  0  0  0
  -20.7099   19.5847  -21.5473 C   0  0  0  0  0  0  0  0  0  0  0  0
  -23.4534   20.8049  -23.6073 C   0  0  0  0  0  0  0  0  0  0  0  0
  -22.0691   20.5216  -23.4109 N   0  0  0  0  0  0  0  0  0  0  0  0
  -21.2677   20.6079  -24.5888 C   0  0  0  0  0  0  0  0  0  0  0  0
 42 43  1  0  0  0
 43 44  1  0  0  0
 43 38  1  0  0  0
 38 39  1  0  0  0
 39 40  1  0  0  0
 40 37  1  0  0  0
 37 27  1  0  0  0
 27 28  2  0  0  0
 28 29  1  0  0  0
 29 30  2  0  0  0
 30 31  1  0  0  0
 31 32  2  0  0  0
 32 33  1  0  0  0
 33 34  1  0  0  0
 33 35  1  0  0  0
 33 36  1  0  0  0
 30 24  1  0  0  0
 24 25  1  0  0  0
 24  1  1  0  0  0
  1  3  1  0  0  0
  3  4  2  0  0  0
  4  5  1  0  0  0
  5  6  2  0  0  0
  6  7  1  0  0  0
  6  8  1  0  0  0
  8 10  1  0  0  0
 10 12  1  0  0  0
 12 13  2  0  0  0
 13 14  1  0  0  0
 14 15  2  0  0  0
 15 16  1  0  0  0
 16 17  2  0  0  0
 16 18  1  0  0  0
 18 19  2  0  0  0
 19 20  1  0  0  0
 20 21  2  0  0  0
 21 22  1  0  0  0
 22 23  2  0  0  0
  8  9  2  0  0  0
 40 41  1  0  0  0
 41 38  1  0  0  0
 32 27  1  0  0  0
  9  3  1  0  0  0
 17 12  1  0  0  0
 23 18  1  0  0  0
 25 26  1  0  0  0
  1  2  1  0  0  0
 10 11  1  0  0  0
M  END
> <minimizedAffinity>
-8.28315

> <CNNscore>
0.1076499522

> <CNNaffinity>
6.9455413818

> <CNN_VS>
0.7476872206

> <CNNaffinity_variance>
0.3195877671

$$$$
[H]OC([H])(c1c([H])c([H])c(C([H])([H])N2C([H])([H])C([H])(N(C([H])([H])[H])C([H])([H])[H])C2([H])[H])c(C(F)(F)F)c1[H])N([H])c1c([H])c([H])c(C([H])([H])[H])c(N([H])c2nc([H])c([H])c(-c3c([H])nc([H])nc3[H])n2)c1[H]


 44 48  0  0  0  0  0  0  0  0999 V2000
  -17.3002   11.2938  -21.0799 N   0  0  0  0  0  0  0  0  0  0  0  0
  -17.8612   10.4581  -21.4319 H   0  0  0  0  0  0  0  0  0  0  0  0
  -17.0571   12.3728  -21.9777 C   0  0  0  0  0  0  0  0  0  0  0  0
  -16.0305   12.3301  -22.8837 C   0  0  0  0  0  0  0  0  0  0  0  0
  -15.8691   13.4171  -23.7119 C   0  0  0  0  0  0  0  0  0  0  0  0
  -16.7036   14.5057  -23.6362 C   0  0  0  0  0  0  0  0  0  0  0  0
  -16.4829   15.6511  -24.5541 C   0  0  0  0  0  0  0  0  0  0  0  0
  -17.7666   14.5739  -22.7131 C   0  0  0  0  0  0  0  0  0  0  0  0
  -17.9136   13.4878  -21.8987 C   0  0  0  0  0  0  0  0  0  0  0  0
  -18.5535   15.7351  -22.7258 N   0  0  0  0  0  0  0  0  0  0  0  0
  -19.3104   15.7831  -23.4881 H   0  0  0  0  0  0  0  0  0  0  0  0
  -18.4896   16.8415  -21.8826 C   0  0  0  0  0  0  0  0  0  0  0  0
  -18.1719   16.8025  -20.6060 N   0  0  0  0  0  0  0  0  0  0  0  0
  -18.1040   17.8419  -19.7807 C   0  0  0  0  0  0  0  0  0  0  0  0
  -18.3914   19.1096  -20.2863 C   0  0  0  0  0  0  0  0  0  0  0  0
  -18.7273   19.1986  -21.6107 C   0  0  0  0  0  0  0  0  0  0  0  0
  -18.7715   18.0777  -22.3822 N   0  0  0  0  0  0  0  0  0  0  0  0
  -19.0378   20.4915  -22.1997 C   0  0  0  0  0  0  0  0  0  0  0  0
  -19.0787   21.6366  -21.4567 C   0  0  0  0  0  0  0  0  0  0  0  0
  -19.3747   22.8356  -22.0505 N   0  0  0  0  0  0  0  0  0  0  0  0
  -19.6321   22.9342  -23.3619 C   0  0  0  0  0  0  0  0  0  0  0  0
  -19.5937   21.8061  -24.1046 N   0  0  0  0  0  0  0  0  0  0  0  0
  -19.3078   20.6160  -23.5584 C   0  0  0  0  0  0  0  0  0  0  0  0
  -16.8440   11.2394  -19.7166 C   0  0  0  0  0  0  0  0  0  0  0  0
  -15.8837   10.2361  -19.5363 O   0  0  0  0  0  0  0  0  0  0  0  0
  -16.0759    9.6958  -18.7533 H   0  0  0  0  0  0  0  0  0  0  0  0
  -20.0628   10.8282  -16.8843 C   0  0  0  0  0  0  0  0  0  0  0  0
  -19.9476   11.8958  -17.7457 C   0  0  0  0  0  0  0  0  0  0  0  0
  -18.9189   12.0434  -18.6564 C   0  0  0  0  0  0  0  0  0  0  0  0
  -17.9363   11.0837  -18.7311 C   0  0  0  0  0  0  0  0  0  0  0  0
  -18.0526   10.0117  -17.8668 C   0  0  0  0  0  0  0  0  0  0  0  0
  -19.0774    9.8615  -16.9570 C   0  0  0  0  0  0  0  0  0  0  0  0
  -19.1707    8.7013  -16.0469 C   0  0  0  0  0  0  0  0  0  0  0  0
  -18.0482    7.8989  -16.3035 F   0  0  0  0  0  0  0  0  0  0  0  0
  -20.2532    7.8782  -16.3311 F   0  0  0  0  0  0  0  0  0  0  0  0
  -19.0940    9.0398  -14.7172 F   0  0  0  0  0  0  0  0  0  0  0  0
  -21.1975   10.7653  -15.9697 C   0  0  0  0  0  0  0  0  0  0  0  0
  -21.7764   12.5516  -13.2004 C   0  0  0  0  0  0  0  0  0  0  0  0
  -22.1330   12.5982  -14.6684 C   0  0  0  0  0  0  0  0  0  0  0  0
  -20.9895   11.6807  -14.8709 N   0  0  0  0  0  0  0  0  0  0  0  0
  -21.3984   11.1111  -13.5690 C   0  0  0  0  0  0  0  0  0  0  0  0
  -23.6715   13.8161  -12.4377 C   0  0  0  0  0  0  0  0  0  0  0  0
  -22.8565   12.6570  -12.2721 N   0  0  0  0  0  0  0  0  0  0  0  0
  -22.5036   12.3619  -10.9209 C   0  0  0  0  0  0  0  0  0  0  0  0
 42 43  1  0  0  0
 43 44  1  0  0  0
 43 38  1  0  0  0
 38 39  1  0  0  0
 39 40  1  0  0  0
 40 37  1  0  0  0
 37 27  1  0  0  0
 27 28  2  0  0  0
 28 29  1  0  0  0
 29 30  2  0  0  0
 30 31  1  0  0  0
 31 32  2  0  0  0
 32 33  1  0  0  0
 33 34  1  0  0  0
 33 35  1  0  0  0
 33 36  1  0  0  0
 30 24  1  0  0  0
 24 25  1  0  0  0
 24  1  1  0  0  0
  1  3  1  0  0  0
  3  4  2  0  0  0
  4  5  1  0  0  0
  5  6  2  0  0  0
  6  7  1  0  0  0
  6  8  1  0  0  0
  8 10  1  0  0  0
 10 12  1  0  0  0
 12 13  2  0  0  0
 13 14  1  0  0  0
 14 15  2  0  0  0
 15 16  1  0  0  0
 16 17  2  0  0  0
 16 18  1  0  0  0
 18 19  2  0  0  0
 19 20  1  0  0  0
 20 21  2  0  0  0
 21 22  1  0  0  0
 22 23  2  0  0  0
  8  9  2  0  0  0
 40 41  1  0  0  0
 41 38  1  0  0  0
 32 27  1  0  0  0
  9  3  1  0  0  0
 17 12  1  0  0  0
 23 18  1  0  0  0
 25 26  1  0  0  0
  1  2  1  0  0  0
 10 11  1  0  0  0
M  END
> <minimizedAffinity>
-8.64866

> <CNNscore>
0.1075790301

> <CNNaffinity>
6.8307008743

> <CNN_VS>
0.7348401546

> <CNNaffinity_variance>
0.1199437603

$$$$
[H]c1noc(C([H])([H])[H])c1C(=O)N([H])c1c([H])c(N([H])C(=O)c2c([H])c(N3C([H])([H])C([H])([H])N(C([H])([H])[H])C([H])([H])C3([H])[H])c([H])c(C(F)(F)F)c2[H])c([H])c([H])c1C([H])([H])[H]


 38 41  0  0  0  0  0  0  0  0999 V2000
  -19.2213   14.7330  -18.8842 C   0  0  0  0  0  0  0  0  0  0  0  0
  -18.3264   15.6310  -18.8708 O   0  0  0  0  0  0  0  0  0  0  0  0
  -20.5642   14.9707  -19.1154 N   0  0  0  0  0  0  0  0  0  0  0  0
  -21.1495   14.0029  -19.0742 H   0  0  0  0  0  0  0  0  0  0  0  0
  -21.4070   16.0502  -19.3720 C   0  0  0  0  0  0  0  0  0  0  0  0
  -22.3034   16.5772  -18.4892 C   0  0  0  0  0  0  0  0  0  0  0  0
  -23.1838   17.5723  -18.8505 C   0  0  0  0  0  0  0  0  0  0  0  0
  -23.1908   18.0781  -20.1331 C   0  0  0  0  0  0  0  0  0  0  0  0
  -24.1505   19.1421  -20.4803 C   0  0  0  0  0  0  0  0  0  0  0  0
  -22.2849   17.5763  -21.0744 C   0  0  0  0  0  0  0  0  0  0  0  0
  -21.4101   16.5752  -20.6836 C   0  0  0  0  0  0  0  0  0  0  0  0
  -22.3924   18.0067  -22.4076 N   0  0  0  0  0  0  0  0  0  0  0  0
  -23.4732   17.5645  -23.2771 C   0  0  0  0  0  0  0  0  0  0  0  0
  -24.3109   16.7426  -22.8851 O   0  0  0  0  0  0  0  0  0  0  0  0
  -21.7147   18.7070  -22.8378 H   0  0  0  0  0  0  0  0  0  0  0  0
  -23.5846   18.1076  -24.6208 C   0  0  0  0  0  0  0  0  0  0  0  0
  -23.4741   17.3226  -25.7730 C   0  0  0  0  0  0  0  0  0  0  0  0
  -23.6703   18.1558  -26.7964 N   0  0  0  0  0  0  0  0  0  0  0  0
  -23.8898   19.3722  -26.3375 O   0  0  0  0  0  0  0  0  0  0  0  0
  -23.8483   19.3873  -25.0470 C   0  0  0  0  0  0  0  0  0  0  0  0
  -24.0400   20.5676  -24.1661 C   0  0  0  0  0  0  0  0  0  0  0  0
  -19.2368   11.1774  -17.6341 C   0  0  0  0  0  0  0  0  0  0  0  0
  -19.5173   12.5371  -17.7096 C   0  0  0  0  0  0  0  0  0  0  0  0
  -18.8710   13.3059  -18.6336 C   0  0  0  0  0  0  0  0  0  0  0  0
  -17.9408   12.7787  -19.4914 C   0  0  0  0  0  0  0  0  0  0  0  0
  -17.6378   11.4296  -19.4447 C   0  0  0  0  0  0  0  0  0  0  0  0
  -18.3023   10.6753  -18.5088 C   0  0  0  0  0  0  0  0  0  0  0  0
  -19.2415    9.3099  -13.4597 C   0  0  0  0  0  0  0  0  0  0  0  0
  -20.4501    9.1264  -14.2484 N   0  0  0  0  0  0  0  0  0  0  0  0
  -20.2310    8.3060  -15.4270 C   0  0  0  0  0  0  0  0  0  0  0  0
  -19.3425    9.0161  -16.4217 C   0  0  0  0  0  0  0  0  0  0  0  0
  -19.9201   10.3139  -16.7060 N   0  0  0  0  0  0  0  0  0  0  0  0
  -21.1354   10.6822  -16.0550 C   0  0  0  0  0  0  0  0  0  0  0  0
  -21.0802   10.3912  -14.5908 C   0  0  0  0  0  0  0  0  0  0  0  0
  -16.6463   10.8457  -20.4180 C   0  0  0  0  0  0  0  0  0  0  0  0
  -16.4774   11.7271  -21.4465 F   0  0  0  0  0  0  0  0  0  0  0  0
  -15.4845   10.6046  -19.7402 F   0  0  0  0  0  0  0  0  0  0  0  0
  -17.2075    9.6310  -20.8199 F   0  0  0  0  0  0  0  0  0  0  0  0
 28 29  1  0  0  0
 29 30  1  0  0  0
 30 31  1  0  0  0
 31 32  1  0  0  0
 32 33  1  0  0  0
 33 34  1  0  0  0
 32 22  1  0  0  0
 22 23  2  0  0  0
 23 24  1  0  0  0
 24 25  2  0  0  0
 25 26  1  0  0  0
 26 27  2  0  0  0
 26 35  1  0  0  0
 35 36  1  0  0  0
 35 37  1  0  0  0
 35 38  1  0  0  0
 24  1  1  0  0  0
  1  2  2  0  0  0
  1  3  1  0  0  0
  3  5  1  0  0  0
  5  6  2  0  0  0
  6  7  1  0  0  0
  7  8  2  0  0  0
  8  9  1  0  0  0
  8 10  1  0  0  0
 10 12  1  0  0  0
 12 13  1  0  0  0
 13 14  2  0  0  0
 13 16  1  0  0  0
 16 17  1  0  0  0
 17 18  2  0  0  0
 18 19  1  0  0  0
 19 20  1  0  0  0
 20 21  1  0  0  0
 10 11  2  0  0  0
 34 29  1  0  0  0
 27 22  1  0  0  0
 11  5  1  0  0  0
 20 16  2  0  0  0
  3  4  1  0  0  0
 12 15  1  0  0  0
M  END
> <minimizedAffinity>
-9.68258

> <CNNscore>
0.4425909817

> <CNNaffinity>
6.3381190300

> <CNN_VS>
2.8051943779

> <CNNaffinity_variance>
0.1513560265

$$$$
[H]c1noc(C([H])([H])[H])c1C(=O)N([H])c1c([H])c(N([H])C(=O)c2c([H])c(N3C([H])([H])C([H])([H])N(C([H])([H])[H])C([H])([H])C3([H])[H])c([H])c(C(F)(F)F)c2[H])c([H])c([H])c1C([H])([H])[H]


 38 41  0  0  0  0  0  0  0  0999 V2000
  -21.2833   12.1328  -15.1362 C   0  0  0  0  0  0  0  0  0  0  0  0
  -20.6425   12.7999  -14.2693 O   0  0  0  0  0  0  0  0  0  0  0  0
  -21.7697   12.6542  -16.3215 N   0  0  0  0  0  0  0  0  0  0  0  0
  -22.3024   11.8524  -16.9168 H   0  0  0  0  0  0  0  0  0  0  0  0
  -21.8063   13.8761  -16.9904 C   0  0  0  0  0  0  0  0  0  0  0  0
  -22.7948   14.8087  -16.8742 C   0  0  0  0  0  0  0  0  0  0  0  0
  -22.8212   15.9443  -17.6525 C   0  0  0  0  0  0  0  0  0  0  0  0
  -21.8371   16.1824  -18.5884 C   0  0  0  0  0  0  0  0  0  0  0  0
  -21.9027   17.4094  -19.4031 C   0  0  0  0  0  0  0  0  0  0  0  0
  -20.7961   15.2595  -18.7407 C   0  0  0  0  0  0  0  0  0  0  0  0
  -20.7945   14.1255  -17.9443 C   0  0  0  0  0  0  0  0  0  0  0  0
  -19.8763   15.4493  -19.7857 N   0  0  0  0  0  0  0  0  0  0  0  0
  -18.6029   14.7448  -19.8312 C   0  0  0  0  0  0  0  0  0  0  0  0
  -18.2593   13.9894  -18.9134 O   0  0  0  0  0  0  0  0  0  0  0  0
  -20.0787   16.0853  -20.6160 H   0  0  0  0  0  0  0  0  0  0  0  0
  -17.7268   14.9140  -20.9786 C   0  0  0  0  0  0  0  0  0  0  0  0
  -17.9442   14.2784  -22.2053 C   0  0  0  0  0  0  0  0  0  0  0  0
  -16.9694   14.7057  -23.0099 N   0  0  0  0  0  0  0  0  0  0  0  0
  -16.1938   15.5459  -22.3535 O   0  0  0  0  0  0  0  0  0  0  0  0
  -16.6100   15.6986  -21.1407 C   0  0  0  0  0  0  0  0  0  0  0  0
  -15.9993   16.5566  -20.0935 C   0  0  0  0  0  0  0  0  0  0  0  0
  -22.8970    8.8887  -14.0984 C   0  0  0  0  0  0  0  0  0  0  0  0
  -22.5962   10.2456  -14.1340 C   0  0  0  0  0  0  0  0  0  0  0  0
  -21.5727   10.6862  -14.9220 C   0  0  0  0  0  0  0  0  0  0  0  0
  -20.8202    9.8267  -15.6795 C   0  0  0  0  0  0  0  0  0  0  0  0
  -21.0924    8.4703  -15.6689 C   0  0  0  0  0  0  0  0  0  0  0  0
  -22.1282    8.0503  -14.8707 C   0  0  0  0  0  0  0  0  0  0  0  0
  -24.6201    8.2482   -9.9109 C   0  0  0  0  0  0  0  0  0  0  0  0
  -25.5110    7.9609  -11.0245 N   0  0  0  0  0  0  0  0  0  0  0  0
  -25.0646    6.8324  -11.8228 C   0  0  0  0  0  0  0  0  0  0  0  0
  -23.7846    7.1616  -12.5551 C   0  0  0  0  0  0  0  0  0  0  0  0
  -23.9925    8.3765  -13.3163 N   0  0  0  0  0  0  0  0  0  0  0  0
  -25.2678    9.0139  -13.2576 C   0  0  0  0  0  0  0  0  0  0  0  0
  -25.7543    9.1329  -11.8501 C   0  0  0  0  0  0  0  0  0  0  0  0
  -20.2908    7.5339  -16.5360 C   0  0  0  0  0  0  0  0  0  0  0  0
  -20.3015    8.0108  -17.8150 F   0  0  0  0  0  0  0  0  0  0  0  0
  -19.0289    7.4577  -16.0172 F   0  0  0  0  0  0  0  0  0  0  0  0
  -20.9199    6.2933  -16.4054 F   0  0  0  0  0  0  0  0  0  0  0  0
 28 29  1  0  0  0
 29 30  1  0  0  0
 30 31  1  0  0  0
 31 32  1  0  0  0
 32 33  1  0  0  0
 33 34  1  0  0  0
 32 22  1  0  0  0
 22 23  2  0  0  0
 23 24  1  0  0  0
 24 25  2  0  0  0
 25 26  1  0  0  0
 26 27  2  0  0  0
 26 35  1  0  0  0
 35 36  1  0  0  0
 35 37  1  0  0  0
 35 38  1  0  0  0
 24  1  1  0  0  0
  1  2  2  0  0  0
  1  3  1  0  0  0
  3  5  1  0  0  0
  5  6  2  0  0  0
  6  7  1  0  0  0
  7  8  2  0  0  0
  8  9  1  0  0  0
  8 10  1  0  0  0
 10 12  1  0  0  0
 12 13  1  0  0  0
 13 14  2  0  0  0
 13 16  1  0  0  0
 16 17  1  0  0  0
 17 18  2  0  0  0
 18 19  1  0  0  0
 19 20  1  0  0  0
 20 21  1  0  0  0
 10 11  2  0  0  0
 34 29  1  0  0  0
 27 22  1  0  0  0
 11  5  1  0  0  0
 20 16  2  0  0  0
  3  4  1  0  0  0
 12 15  1  0  0  0
M  END
> <minimizedAffinity>
-2.27365

> <CNNscore>
0.3712671101

> <CNNaffinity>
6.1059732437

> <CNN_VS>
2.2669470310

> <CNNaffinity_variance>
1.6198616028

$$$$
[H]c1noc(C([H])([H])[H])c1C(=O)N([H])c1c([H])c(N([H])C(=O)c2c([H])c(N3C([H])([H])C([H])([H])N(C([H])([H])[H])C([H])([H])C3([H])[H])c([H])c(C(F)(F)F)c2[H])c([H])c([H])c1C([H])([H])[H]


 38 41  0  0  0  0  0  0  0  0999 V2000
  -19.5059   14.4184  -18.9277 C   0  0  0  0  0  0  0  0  0  0  0  0
  -20.5700   14.8737  -18.4102 O   0  0  0  0  0  0  0  0  0  0  0  0
  -18.7031   15.1193  -19.8095 N   0  0  0  0  0  0  0  0  0  0  0  0
  -17.8162   14.4896  -20.1222 H   0  0  0  0  0  0  0  0  0  0  0  0
  -18.6721   16.3652  -20.4327 C   0  0  0  0  0  0  0  0  0  0  0  0
  -18.1047   17.4918  -19.9140 C   0  0  0  0  0  0  0  0  0  0  0  0
  -18.2115   18.7153  -20.5367 C   0  0  0  0  0  0  0  0  0  0  0  0
  -18.9041   18.8468  -21.7217 C   0  0  0  0  0  0  0  0  0  0  0  0
  -18.9967   20.1746  -22.3557 C   0  0  0  0  0  0  0  0  0  0  0  0
  -19.4980   17.7188  -22.2992 C   0  0  0  0  0  0  0  0  0  0  0  0
  -19.3746   16.5003  -21.6510 C   0  0  0  0  0  0  0  0  0  0  0  0
  -20.3091   17.8918  -23.4333 N   0  0  0  0  0  0  0  0  0  0  0  0
  -21.7404   18.1375  -23.3289 C   0  0  0  0  0  0  0  0  0  0  0  0
  -22.3069   18.1468  -22.2290 O   0  0  0  0  0  0  0  0  0  0  0  0
  -19.9144   17.8922  -24.4228 H   0  0  0  0  0  0  0  0  0  0  0  0
  -22.5165   18.3944  -24.5307 C   0  0  0  0  0  0  0  0  0  0  0  0
  -23.1967   17.3915  -25.2290 C   0  0  0  0  0  0  0  0  0  0  0  0
  -23.8172   18.0106  -26.2349 N   0  0  0  0  0  0  0  0  0  0  0  0
  -23.5573   19.3022  -26.1837 O   0  0  0  0  0  0  0  0  0  0  0  0
  -22.7870   19.5733  -25.1834 C   0  0  0  0  0  0  0  0  0  0  0  0
  -22.2696   20.9110  -24.7979 C   0  0  0  0  0  0  0  0  0  0  0  0
  -19.2395   10.9235  -17.5422 C   0  0  0  0  0  0  0  0  0  0  0  0
  -19.6390   12.2482  -17.6778 C   0  0  0  0  0  0  0  0  0  0  0  0
  -19.0363   13.0391  -18.6126 C   0  0  0  0  0  0  0  0  0  0  0  0
  -18.0364   12.5685  -19.4235 C   0  0  0  0  0  0  0  0  0  0  0  0
  -17.6145   11.2553  -19.3164 C   0  0  0  0  0  0  0  0  0  0  0  0
  -18.2370   10.4776  -18.3708 C   0  0  0  0  0  0  0  0  0  0  0  0
  -19.1571    9.1529  -13.3265 C   0  0  0  0  0  0  0  0  0  0  0  0
  -20.3418    8.8681  -14.1213 N   0  0  0  0  0  0  0  0  0  0  0  0
  -20.0541    8.0392  -15.2790 C   0  0  0  0  0  0  0  0  0  0  0  0
  -19.2071    8.7873  -16.2818 C   0  0  0  0  0  0  0  0  0  0  0  0
  -19.8706   10.0351  -16.6006 N   0  0  0  0  0  0  0  0  0  0  0  0
  -21.1151   10.3320  -15.9688 C   0  0  0  0  0  0  0  0  0  0  0  0
  -21.0548   10.0780  -14.4979 C   0  0  0  0  0  0  0  0  0  0  0  0
  -16.5448   10.7296  -20.2388 C   0  0  0  0  0  0  0  0  0  0  0  0
  -16.8985    9.4746  -20.6426 F   0  0  0  0  0  0  0  0  0  0  0  0
  -16.4265   11.6013  -21.2846 F   0  0  0  0  0  0  0  0  0  0  0  0
  -15.3711   10.7543  -19.4815 F   0  0  0  0  0  0  0  0  0  0  0  0
 28 29  1  0  0  0
 29 30  1  0  0  0
 30 31  1  0  0  0
 31 32  1  0  0  0
 32 33  1  0  0  0
 33 34  1  0  0  0
 32 22  1  0  0  0
 22 23  2  0  0  0
 23 24  1  0  0  0
 24 25  2  0  0  0
 25 26  1  0  0  0
 26 27  2  0  0  0
 26 35  1  0  0  0
 35 36  1  0  0  0
 35 37  1  0  0  0
 35 38  1  0  0  0
 24  1  1  0  0  0
  1  2  2  0  0  0
  1  3  1  0  0  0
  3  5  1  0  0  0
  5  6  2  0  0  0
  6  7  1  0  0  0
  7  8  2  0  0  0
  8  9  1  0  0  0
  8 10  1  0  0  0
 10 12  1  0  0  0
 12 13  1  0  0  0
 13 14  2  0  0  0
 13 16  1  0  0  0
 16 17  1  0  0  0
 17 18  2  0  0  0
 18 19  1  0  0  0
 19 20  1  0  0  0
 20 21  1  0  0  0
 10 11  2  0  0  0
 34 29  1  0  0  0
 27 22  1  0  0  0
 11  5  1  0  0  0
 20 16  2  0  0  0
  3  4  1  0  0  0
 12 15  1  0  0  0
M  END
> <minimizedAffinity>
-9.56895

> <CNNscore>
0.2948761880

> <CNNaffinity>
6.1654610634

> <CNN_VS>
1.8180476427

> <CNNaffinity_variance>
0.3045237660

$$$$
[H]c1noc(C([H])([H])[H])c1C(=O)N([H])c1c([H])c(N([H])C(=O)c2c([H])c(N3C([H])([H])C([H])([H])N(C([H])([H])[H])C([H])([H])C3([H])[H])c([H])c(C(F)(F)F)c2[H])c([H])c([H])c1C([H])([H])[H]


 38 41  0  0  0  0  0  0  0  0999 V2000
  -17.4416   11.8252  -20.2380 C   0  0  0  0  0  0  0  0  0  0  0  0
  -16.5277   10.9706  -20.4420 O   0  0  0  0  0  0  0  0  0  0  0  0
  -18.3637   11.7537  -19.2094 N   0  0  0  0  0  0  0  0  0  0  0  0
  -19.0691   12.6379  -19.2489 H   0  0  0  0  0  0  0  0  0  0  0  0
  -18.6852   10.9090  -18.1489 C   0  0  0  0  0  0  0  0  0  0  0  0
  -18.1551    9.6698  -17.9399 C   0  0  0  0  0  0  0  0  0  0  0  0
  -18.6040    8.8448  -16.9330 C   0  0  0  0  0  0  0  0  0  0  0  0
  -19.6178    9.2469  -16.0894 C   0  0  0  0  0  0  0  0  0  0  0  0
  -20.0710    8.3333  -15.0248 C   0  0  0  0  0  0  0  0  0  0  0  0
  -20.1896   10.5132  -16.2573 C   0  0  0  0  0  0  0  0  0  0  0  0
  -19.7184   11.3226  -17.2786 C   0  0  0  0  0  0  0  0  0  0  0  0
  -21.3070   10.8556  -15.4773 N   0  0  0  0  0  0  0  0  0  0  0  0
  -21.1730   11.4586  -14.1589 C   0  0  0  0  0  0  0  0  0  0  0  0
  -20.0593   11.6406  -13.6515 O   0  0  0  0  0  0  0  0  0  0  0  0
  -22.3061   10.7294  -15.8248 H   0  0  0  0  0  0  0  0  0  0  0  0
  -22.3618   11.8714  -13.4316 C   0  0  0  0  0  0  0  0  0  0  0  0
  -23.0715   11.0173  -12.5813 C   0  0  0  0  0  0  0  0  0  0  0  0
  -24.0593   11.7556  -12.0721 N   0  0  0  0  0  0  0  0  0  0  0  0
  -23.9870   12.9804  -12.5548 O   0  0  0  0  0  0  0  0  0  0  0  0
  -22.9898   13.0923  -13.3675 C   0  0  0  0  0  0  0  0  0  0  0  0
  -22.5850   14.3107  -14.1141 C   0  0  0  0  0  0  0  0  0  0  0  0
  -17.8942   15.3308  -21.5462 C   0  0  0  0  0  0  0  0  0  0  0  0
  -17.9150   14.2494  -20.6727 C   0  0  0  0  0  0  0  0  0  0  0  0
  -17.5928   13.0063  -21.1349 C   0  0  0  0  0  0  0  0  0  0  0  0
  -17.2543   12.7860  -22.4447 C   0  0  0  0  0  0  0  0  0  0  0  0
  -17.2223   13.8392  -23.3412 C   0  0  0  0  0  0  0  0  0  0  0  0
  -17.5477   15.0811  -22.8532 C   0  0  0  0  0  0  0  0  0  0  0  0
  -20.1248   19.2312  -22.3977 C   0  0  0  0  0  0  0  0  0  0  0  0
  -19.4934   19.1226  -21.0916 N   0  0  0  0  0  0  0  0  0  0  0  0
  -18.0442   19.0648  -21.1726 C   0  0  0  0  0  0  0  0  0  0  0  0
  -17.5905   17.7773  -21.8202 C   0  0  0  0  0  0  0  0  0  0  0  0
  -18.1852   16.6692  -21.1011 N   0  0  0  0  0  0  0  0  0  0  0  0
  -19.0334   16.9489  -19.9882 C   0  0  0  0  0  0  0  0  0  0  0  0
  -20.0269   18.0161  -20.3136 C   0  0  0  0  0  0  0  0  0  0  0  0
  -16.8079   13.6002  -24.7704 C   0  0  0  0  0  0  0  0  0  0  0  0
  -17.3369   12.4112  -25.1824 F   0  0  0  0  0  0  0  0  0  0  0  0
  -17.2493   14.6556  -25.5178 F   0  0  0  0  0  0  0  0  0  0  0  0
  -15.4110   13.6029  -24.7466 F   0  0  0  0  0  0  0  0  0  0  0  0
 28 29  1  0  0  0
 29 30  1  0  0  0
 30 31  1  0  0  0
 31 32  1  0  0  0
 32 33  1  0  0  0
 33 34  1  0  0  0
 32 22  1  0  0  0
 22 23  2  0  0  0
 23 24  1  0  0  0
 24 25  2  0  0  0
 25 26  1  0  0  0
 26 27  2  0  0  0
 26 35  1  0  0  0
 35 36  1  0  0  0
 35 37  1  0  0  0
 35 38  1  0  0  0
 24  1  1  0  0  0
  1  2  2  0  0  0
  1  3  1  0  0  0
  3  5  1  0  0  0
  5  6  2  0  0  0
  6  7  1  0  0  0
  7  8  2  0  0  0
  8  9  1  0  0  0
  8 10  1  0  0  0
 10 12  1  0  0  0
 12 13  1  0  0  0
 13 14  2  0  0  0
 13 16  1  0  0  0
 16 17  1  0  0  0
 17 18  2  0  0  0
 18 19  1  0  0  0
 19 20  1  0  0  0
 20 21  1  0  0  0
 10 11  2  0  0  0
 34 29  1  0  0  0
 27 22  1  0  0  0
 11  5  1  0  0  0
 20 16  2  0  0  0
  3  4  1  0  0  0
 12 15  1  0  0  0
M  END
> <minimizedAffinity>
-8.84817

> <CNNscore>
0.2756361067

> <CNNaffinity>
6.8047385216

> <CNN_VS>
1.8756316900

> <CNNaffinity_variance>
0.2910352349

$$$$
[H]c1noc(C([H])([H])[H])c1C(=O)N([H])c1c([H])c(N([H])C(=O)c2c([H])c(N3C([H])([H])C([H])([H])N(C([H])([H])[H])C([H])([H])C3([H])[H])c([H])c(C(F)(F)F)c2[H])c([H])c([H])c1C([H])([H])[H]


 38 41  0  0  0  0  0  0  0  0999 V2000
  -17.6066   11.6614  -20.4321 C   0  0  0  0  0  0  0  0  0  0  0  0
  -16.9493   10.6238  -20.7460 O   0  0  0  0  0  0  0  0  0  0  0  0
  -18.3948   11.7754  -19.3011 N   0  0  0  0  0  0  0  0  0  0  0  0
  -18.8719   12.8007  -19.2537 H   0  0  0  0  0  0  0  0  0  0  0  0
  -18.7819   10.9968  -18.2123 C   0  0  0  0  0  0  0  0  0  0  0  0
  -18.1759    9.8413  -17.8148 C   0  0  0  0  0  0  0  0  0  0  0  0
  -18.6830    9.0645  -16.7973 C   0  0  0  0  0  0  0  0  0  0  0  0
  -19.8355    9.4315  -16.1354 C   0  0  0  0  0  0  0  0  0  0  0  0
  -20.3468    8.5713  -15.0527 C   0  0  0  0  0  0  0  0  0  0  0  0
  -20.4908   10.6131  -16.5004 C   0  0  0  0  0  0  0  0  0  0  0  0
  -19.9583   11.3755  -17.5278 C   0  0  0  0  0  0  0  0  0  0  0  0
  -21.7313   10.9048  -15.9088 N   0  0  0  0  0  0  0  0  0  0  0  0
  -21.8367   11.6569  -14.6666 C   0  0  0  0  0  0  0  0  0  0  0  0
  -20.8251   12.0203  -14.0537 O   0  0  0  0  0  0  0  0  0  0  0  0
  -22.6569   10.6269  -16.3569 H   0  0  0  0  0  0  0  0  0  0  0  0
  -23.1478   12.0042  -14.1440 C   0  0  0  0  0  0  0  0  0  0  0  0
  -23.6396   13.3133  -14.1248 C   0  0  0  0  0  0  0  0  0  0  0  0
  -24.8710   13.2278  -13.6182 N   0  0  0  0  0  0  0  0  0  0  0  0
  -25.1450   11.9689  -13.3380 O   0  0  0  0  0  0  0  0  0  0  0  0
  -24.1461   11.2072  -13.6367 C   0  0  0  0  0  0  0  0  0  0  0  0
  -24.0690    9.7343  -13.4620 C   0  0  0  0  0  0  0  0  0  0  0  0
  -18.2122   15.0972  -21.8583 C   0  0  0  0  0  0  0  0  0  0  0  0
  -18.3962   13.9458  -21.1010 C   0  0  0  0  0  0  0  0  0  0  0  0
  -17.5776   12.8723  -21.3011 C   0  0  0  0  0  0  0  0  0  0  0  0
  -16.5768   12.8893  -22.2375 C   0  0  0  0  0  0  0  0  0  0  0  0
  -16.3647   14.0186  -23.0081 C   0  0  0  0  0  0  0  0  0  0  0  0
  -17.1988   15.0873  -22.7875 C   0  0  0  0  0  0  0  0  0  0  0  0
  -18.6913   19.0621  -19.6304 C   0  0  0  0  0  0  0  0  0  0  0  0
  -19.6289   18.8158  -20.7151 N   0  0  0  0  0  0  0  0  0  0  0  0
  -20.5197   17.7009  -20.4437 C   0  0  0  0  0  0  0  0  0  0  0  0
  -19.7589   16.3957  -20.4181 C   0  0  0  0  0  0  0  0  0  0  0  0
  -19.0209   16.2720  -21.6585 N   0  0  0  0  0  0  0  0  0  0  0  0
  -19.1232   17.3163  -22.6256 C   0  0  0  0  0  0  0  0  0  0  0  0
  -18.9588   18.6611  -21.9962 C   0  0  0  0  0  0  0  0  0  0  0  0
  -15.2361   14.0488  -24.0064 C   0  0  0  0  0  0  0  0  0  0  0  0
  -14.3754   13.0291  -23.7191 F   0  0  0  0  0  0  0  0  0  0  0  0
  -15.7778   13.9390  -25.2562 F   0  0  0  0  0  0  0  0  0  0  0  0
  -14.6600   15.3133  -23.8618 F   0  0  0  0  0  0  0  0  0  0  0  0
 28 29  1  0  0  0
 29 30  1  0  0  0
 30 31  1  0  0  0
 31 32  1  0  0  0
 32 33  1  0  0  0
 33 34  1  0  0  0
 32 22  1  0  0  0
 22 23  2  0  0  0
 23 24  1  0  0  0
 24 25  2  0  0  0
 25 26  1  0  0  0
 26 27  2  0  0  0
 26 35  1  0  0  0
 35 36  1  0  0  0
 35 37  1  0  0  0
 35 38  1  0  0  0
 24  1  1  0  0  0
  1  2  2  0  0  0
  1  3  1  0  0  0
  3  5  1  0  0  0
  5  6  2  0  0  0
  6  7  1  0  0  0
  7  8  2  0  0  0
  8  9  1  0  0  0
  8 10  1  0  0  0
 10 12  1  0  0  0
 12 13  1  0  0  0
 13 14  2  0  0  0
 13 16  1  0  0  0
 16 17  1  0  0  0
 17 18  2  0  0  0
 18 19  1  0  0  0
 19 20  1  0  0  0
 20 21  1  0  0  0
 10 11  2  0  0  0
 34 29  1  0  0  0
 27 22  1  0  0  0
 11  5  1  0  0  0
 20 16  2  0  0  0
  3  4  1  0  0  0
 12 15  1  0  0  0
M  END
> <minimizedAffinity>
-8.66733

> <CNNscore>
0.2246973217

> <CNNaffinity>
6.7793807983

> <CNN_VS>
1.5233087540

> <CNNaffinity_variance>
0.4281192720

$$$$
[H]c1noc(C([H])([H])[H])c1C(=O)N([H])c1c([H])c(N([H])C(=O)c2c([H])c(N3C([H])([H])C([H])([H])N(C([H])([H])[H])C([H])([H])C3([H])[H])c([H])c(C(F)(F)F)c2[H])c([H])c([H])c1C([H])([H])[H]


 38 41  0  0  0  0  0  0  0  0999 V2000
  -17.5511   11.8746  -19.9380 C   0  0  0  0  0  0  0  0  0  0  0  0
  -16.4855   11.1960  -20.0441 O   0  0  0  0  0  0  0  0  0  0  0  0
  -18.5262   11.6548  -18.9818 N   0  0  0  0  0  0  0  0  0  0  0  0
  -19.3728   12.3962  -19.1032 H   0  0  0  0  0  0  0  0  0  0  0  0
  -18.7767   10.7839  -17.9234 C   0  0  0  0  0  0  0  0  0  0  0  0
  -18.3648    9.4854  -17.8571 C   0  0  0  0  0  0  0  0  0  0  0  0
  -18.7463    8.6507  -16.8306 C   0  0  0  0  0  0  0  0  0  0  0  0
  -19.5683    9.1033  -15.8204 C   0  0  0  0  0  0  0  0  0  0  0  0
  -19.9553    8.1775  -14.7403 C   0  0  0  0  0  0  0  0  0  0  0  0
  -20.0119   10.4305  -15.8383 C   0  0  0  0  0  0  0  0  0  0  0  0
  -19.6124   11.2483  -16.8833 C   0  0  0  0  0  0  0  0  0  0  0  0
  -20.9521   10.8387  -14.8773 N   0  0  0  0  0  0  0  0  0  0  0  0
  -20.5524   11.3399  -13.5701 C   0  0  0  0  0  0  0  0  0  0  0  0
  -19.3613   11.3713  -13.2364 O   0  0  0  0  0  0  0  0  0  0  0  0
  -22.0000   10.8406  -15.0687 H   0  0  0  0  0  0  0  0  0  0  0  0
  -21.5626   11.8288  -12.6465 C   0  0  0  0  0  0  0  0  0  0  0  0
  -21.7370   11.3081  -11.3602 C   0  0  0  0  0  0  0  0  0  0  0  0
  -22.7155   12.0288  -10.8096 N   0  0  0  0  0  0  0  0  0  0  0  0
  -23.1317   12.9362  -11.6710 O   0  0  0  0  0  0  0  0  0  0  0  0
  -22.4708   12.8521  -12.7771 C   0  0  0  0  0  0  0  0  0  0  0  0
  -22.6522   13.6953  -13.9863 C   0  0  0  0  0  0  0  0  0  0  0  0
  -18.4274   15.2438  -21.3822 C   0  0  0  0  0  0  0  0  0  0  0  0
  -18.3239   14.2006  -20.4689 C   0  0  0  0  0  0  0  0  0  0  0  0
  -17.8376   12.9936  -20.8803 C   0  0  0  0  0  0  0  0  0  0  0  0
  -17.4522   12.7719  -22.1769 C   0  0  0  0  0  0  0  0  0  0  0  0
  -17.5406   13.7877  -23.1119 C   0  0  0  0  0  0  0  0  0  0  0  0
  -18.0304   14.9941  -22.6747 C   0  0  0  0  0  0  0  0  0  0  0  0
  -19.3150   18.0958  -17.9192 C   0  0  0  0  0  0  0  0  0  0  0  0
  -19.3804   18.6662  -19.2558 N   0  0  0  0  0  0  0  0  0  0  0  0
  -20.4601   18.1077  -20.0513 C   0  0  0  0  0  0  0  0  0  0  0  0
  -20.1995   16.6540  -20.3705 C   0  0  0  0  0  0  0  0  0  0  0  0
  -18.8947   16.5487  -20.9911 N   0  0  0  0  0  0  0  0  0  0  0  0
  -18.1289   17.7369  -21.1857 C   0  0  0  0  0  0  0  0  0  0  0  0
  -18.1073   18.5804  -19.9529 C   0  0  0  0  0  0  0  0  0  0  0  0
  -17.0757   13.5531  -24.5261 C   0  0  0  0  0  0  0  0  0  0  0  0
  -15.7141   13.4567  -24.5248 F   0  0  0  0  0  0  0  0  0  0  0  0
  -17.6797   12.4158  -24.9836 F   0  0  0  0  0  0  0  0  0  0  0  0
  -17.5495   14.6508  -25.2489 F   0  0  0  0  0  0  0  0  0  0  0  0
 28 29  1  0  0  0
 29 30  1  0  0  0
 30 31  1  0  0  0
 31 32  1  0  0  0
 32 33  1  0  0  0
 33 34  1  0  0  0
 32 22  1  0  0  0
 22 23  2  0  0  0
 23 24  1  0  0  0
 24 25  2  0  0  0
 25 26  1  0  0  0
 26 27  2  0  0  0
 26 35  1  0  0  0
 35 36  1  0  0  0
 35 37  1  0  0  0
 35 38  1  0  0  0
 24  1  1  0  0  0
  1  2  2  0  0  0
  1  3  1  0  0  0
  3  5  1  0  0  0
  5  6  2  0  0  0
  6  7  1  0  0  0
  7  8  2  0  0  0
  8  9  1  0  0  0
  8 10  1  0  0  0
 10 12  1  0  0  0
 12 13  1  0  0  0
 13 14  2  0  0  0
 13 16  1  0  0  0
 16 17  1  0  0  0
 17 18  2  0  0  0
 18 19  1  0  0  0
 19 20  1  0  0  0
 20 21  1  0  0  0
 10 11  2  0  0  0
 34 29  1  0  0  0
 27 22  1  0  0  0
 11  5  1  0  0  0
 20 16  2  0  0  0
  3  4  1  0  0  0
 12 15  1  0  0  0
M  END
> <minimizedAffinity>
-9.08762

> <CNNscore>
0.2226674557

> <CNNaffinity>
6.6705384254

> <CNN_VS>
1.4853118658

> <CNNaffinity_variance>
0.1962642521

$$$$
[H]c1noc(C([H])([H])[H])c1C(=O)N([H])c1c([H])c(N([H])C(=O)c2c([H])c(N3C([H])([H])C([H])([H])N(C([H])([H])[H])C([H])([H])C3([H])[H])c([H])c(C(F)(F)F)c2[H])c([H])c([H])c1C([H])([H])[H]


 38 41  0  0  0  0  0  0  0  0999 V2000
  -18.8876   15.2068  -19.6681 C   0  0  0  0  0  0  0  0  0  0  0  0
  -18.2448   15.8700  -18.7996 O   0  0  0  0  0  0  0  0  0  0  0  0
  -20.2179   15.4156  -19.9844 N   0  0  0  0  0  0  0  0  0  0  0  0
  -20.5506   14.6933  -20.7898 H   0  0  0  0  0  0  0  0  0  0  0  0
  -21.2687   16.2440  -19.5954 C   0  0  0  0  0  0  0  0  0  0  0  0
  -22.2416   16.7235  -20.4224 C   0  0  0  0  0  0  0  0  0  0  0  0
  -23.1844   17.6294  -19.9907 C   0  0  0  0  0  0  0  0  0  0  0  0
  -23.1789   18.0897  -18.6911 C   0  0  0  0  0  0  0  0  0  0  0  0
  -24.2046   19.0609  -18.2688 C   0  0  0  0  0  0  0  0  0  0  0  0
  -22.2058   17.6219  -17.8007 C   0  0  0  0  0  0  0  0  0  0  0  0
  -21.2693   16.7105  -18.2619 C   0  0  0  0  0  0  0  0  0  0  0  0
  -22.1322   18.1976  -16.5211 N   0  0  0  0  0  0  0  0  0  0  0  0
  -21.3240   19.3781  -16.2507 C   0  0  0  0  0  0  0  0  0  0  0  0
  -20.6231   19.8868  -17.1343 O   0  0  0  0  0  0  0  0  0  0  0  0
  -22.6927   17.8261  -15.6949 H   0  0  0  0  0  0  0  0  0  0  0  0
  -21.3516   19.9824  -14.9290 C   0  0  0  0  0  0  0  0  0  0  0  0
  -22.1291   21.1026  -14.6180 C   0  0  0  0  0  0  0  0  0  0  0  0
  -21.9250   21.3333  -13.3198 N   0  0  0  0  0  0  0  0  0  0  0  0
  -21.0881   20.4348  -12.8396 O   0  0  0  0  0  0  0  0  0  0  0  0
  -20.7230   19.6111  -13.7646 C   0  0  0  0  0  0  0  0  0  0  0  0
  -19.7865   18.4678  -13.6166 C   0  0  0  0  0  0  0  0  0  0  0  0
  -17.0571   13.2408  -22.3117 C   0  0  0  0  0  0  0  0  0  0  0  0
  -17.7950   14.2575  -21.7161 C   0  0  0  0  0  0  0  0  0  0  0  0
  -18.2266   14.1091  -20.4299 C   0  0  0  0  0  0  0  0  0  0  0  0
  -17.9610   12.9779  -19.7027 C   0  0  0  0  0  0  0  0  0  0  0  0
  -17.2287   11.9468  -20.2635 C   0  0  0  0  0  0  0  0  0  0  0  0
  -16.8028   12.1193  -21.5579 C   0  0  0  0  0  0  0  0  0  0  0  0
  -16.3088   16.0162  -25.8685 C   0  0  0  0  0  0  0  0  0  0  0  0
  -15.7164   14.6901  -25.9510 N   0  0  0  0  0  0  0  0  0  0  0  0
  -16.7120   13.6353  -26.0306 C   0  0  0  0  0  0  0  0  0  0  0  0
  -17.4867   13.5252  -24.7380 C   0  0  0  0  0  0  0  0  0  0  0  0
  -16.5426   13.3637  -23.6512 N   0  0  0  0  0  0  0  0  0  0  0  0
  -15.1478   13.3360  -23.9516 C   0  0  0  0  0  0  0  0  0  0  0  0
  -14.7668   14.4447  -24.8775 C   0  0  0  0  0  0  0  0  0  0  0  0
  -16.9021   10.7232  -19.4467 C   0  0  0  0  0  0  0  0  0  0  0  0
  -15.8773   11.0288  -18.5983 F   0  0  0  0  0  0  0  0  0  0  0  0
  -18.0356   10.3465  -18.7828 F   0  0  0  0  0  0  0  0  0  0  0  0
  -16.5676    9.7423  -20.3837 F   0  0  0  0  0  0  0  0  0  0  0  0
 28 29  1  0  0  0
 29 30  1  0  0  0
 30 31  1  0  0  0
 31 32  1  0  0  0
 32 33  1  0  0  0
 33 34  1  0  0  0
 32 22  1  0  0  0
 22 23  2  0  0  0
 23 24  1  0  0  0
 24 25  2  0  0  0
 25 26  1  0  0  0
 26 27  2  0  0  0
 26 35  1  0  0  0
 35 36  1  0  0  0
 35 37  1  0  0  0
 35 38  1  0  0  0
 24  1  1  0  0  0
  1  2  2  0  0  0
  1  3  1  0  0  0
  3  5  1  0  0  0
  5  6  2  0  0  0
  6  7  1  0  0  0
  7  8  2  0  0  0
  8  9  1  0  0  0
  8 10  1  0  0  0
 10 12  1  0  0  0
 12 13  1  0  0  0
 13 14  2  0  0  0
 13 16  1  0  0  0
 16 17  1  0  0  0
 17 18  2  0  0  0
 18 19  1  0  0  0
 19 20  1  0  0  0
 20 21  1  0  0  0
 10 11  2  0  0  0
 34 29  1  0  0  0
 27 22  1  0  0  0
 11  5  1  0  0  0
 20 16  2  0  0  0
  3  4  1  0  0  0
 12 15  1  0  0  0
M  END
> <minimizedAffinity>
-8.62398

> <CNNscore>
0.1866122484

> <CNNaffinity>
6.1865081787

> <CNN_VS>
1.1544781923

> <CNNaffinity_variance>
0.1811772287

$$$$
[H]c1noc(C([H])([H])[H])c1C(=O)N([H])c1c([H])c(N([H])C(=O)c2c([H])c(N3C([H])([H])C([H])([H])N(C([H])([H])[H])C([H])([H])C3([H])[H])c([H])c(C(F)(F)F)c2[H])c([H])c([H])c1C([H])([H])[H]


 38 41  0  0  0  0  0  0  0  0999 V2000
  -17.5786   11.5018  -19.3368 C   0  0  0  0  0  0  0  0  0  0  0  0
  -16.5350   10.7835  -19.3829 O   0  0  0  0  0  0  0  0  0  0  0  0
  -18.6256   11.3042  -18.4546 N   0  0  0  0  0  0  0  0  0  0  0  0
  -19.4326   12.0805  -18.6191 H   0  0  0  0  0  0  0  0  0  0  0  0
  -18.9823   10.4256  -17.4336 C   0  0  0  0  0  0  0  0  0  0  0  0
  -18.6875    9.0943  -17.4009 C   0  0  0  0  0  0  0  0  0  0  0  0
  -19.1706    8.2644  -16.4141 C   0  0  0  0  0  0  0  0  0  0  0  0
  -19.9794    8.7555  -15.4112 C   0  0  0  0  0  0  0  0  0  0  0  0
  -20.4775    7.8336  -14.3741 C   0  0  0  0  0  0  0  0  0  0  0  0
  -20.3046   10.1166  -15.3955 C   0  0  0  0  0  0  0  0  0  0  0  0
  -19.8045   10.9287  -16.4008 C   0  0  0  0  0  0  0  0  0  0  0  0
  -21.2334   10.5755  -14.4463 N   0  0  0  0  0  0  0  0  0  0  0  0
  -20.8178   11.1831  -13.1902 C   0  0  0  0  0  0  0  0  0  0  0  0
  -19.6210   11.2661  -12.8875 O   0  0  0  0  0  0  0  0  0  0  0  0
  -22.2850   10.5395  -14.6129 H   0  0  0  0  0  0  0  0  0  0  0  0
  -21.8194   11.7180  -12.2828 C   0  0  0  0  0  0  0  0  0  0  0  0
  -22.5084   12.9110  -12.5238 C   0  0  0  0  0  0  0  0  0  0  0  0
  -23.3594   13.0474  -11.5053 N   0  0  0  0  0  0  0  0  0  0  0  0
  -23.2273   12.0261  -10.6820 O   0  0  0  0  0  0  0  0  0  0  0  0
  -22.3214   11.2106  -11.1082 C   0  0  0  0  0  0  0  0  0  0  0  0
  -21.8820    9.9511  -10.4552 C   0  0  0  0  0  0  0  0  0  0  0  0
  -18.3219   14.9024  -20.7820 C   0  0  0  0  0  0  0  0  0  0  0  0
  -18.3235   13.8300  -19.8971 C   0  0  0  0  0  0  0  0  0  0  0  0
  -17.7558   12.6475  -20.2739 C   0  0  0  0  0  0  0  0  0  0  0  0
  -17.1863   12.4786  -21.5092 C   0  0  0  0  0  0  0  0  0  0  0  0
  -17.1660   13.5247  -22.4144 C   0  0  0  0  0  0  0  0  0  0  0  0
  -17.7409   14.7056  -22.0125 C   0  0  0  0  0  0  0  0  0  0  0  0
  -18.3090   19.4103  -21.5513 C   0  0  0  0  0  0  0  0  0  0  0  0
  -19.3507   18.9112  -20.6669 N   0  0  0  0  0  0  0  0  0  0  0  0
  -18.8215   18.3694  -19.4273 C   0  0  0  0  0  0  0  0  0  0  0  0
  -18.0313   17.1072  -19.6835 C   0  0  0  0  0  0  0  0  0  0  0  0
  -18.8704   16.1837  -20.4196 N   0  0  0  0  0  0  0  0  0  0  0  0
  -20.1988   16.5816  -20.7560 C   0  0  0  0  0  0  0  0  0  0  0  0
  -20.2266   17.9598  -21.3316 C   0  0  0  0  0  0  0  0  0  0  0  0
  -16.5010   13.3485  -23.7552 C   0  0  0  0  0  0  0  0  0  0  0  0
  -15.5352   12.3909  -23.6379 F   0  0  0  0  0  0  0  0  0  0  0  0
  -17.4660   13.0093  -24.6614 F   0  0  0  0  0  0  0  0  0  0  0  0
  -15.9906   14.6095  -24.0736 F   0  0  0  0  0  0  0  0  0  0  0  0
 28 29  1  0  0  0
 29 30  1  0  0  0
 30 31  1  0  0  0
 31 32  1  0  0  0
 32 33  1  0  0  0
 33 34  1  0  0  0
 32 22  1  0  0  0
 22 23  2  0  0  0
 23 24  1  0  0  0
 24 25  2  0  0  0
 25 26  1  0  0  0
 26 27  2  0  0  0
 26 35  1  0  0  0
 35 36  1  0  0  0
 35 37  1  0  0  0
 35 38  1  0  0  0
 24  1  1  0  0  0
  1  2  2  0  0  0
  1  3  1  0  0  0
  3  5  1  0  0  0
  5  6  2  0  0  0
  6  7  1  0  0  0
  7  8  2  0  0  0
  8  9  1  0  0  0
  8 10  1  0  0  0
 10 12  1  0  0  0
 12 13  1  0  0  0
 13 14  2  0  0  0
 13 16  1  0  0  0
 16 17  1  0  0  0
 17 18  2  0  0  0
 18 19  1  0  0  0
 19 20  1  0  0  0
 20 21  1  0  0  0
 10 11  2  0  0  0
 34 29  1  0  0  0
 27 22  1  0  0  0
 11  5  1  0  0  0
 20 16  2  0  0  0
  3  4  1  0  0  0
 12 15  1  0  0  0
M  END
> <minimizedAffinity>
-8.52926

> <CNNscore>
0.1839792430

> <CNNaffinity>
6.5018491745

> <CNN_VS>
1.1962052584

> <CNNaffinity_variance>
0.1878064424

$$$$
[H]c1noc(C([H])([H])[H])c1C(=O)N([H])c1c([H])c(N([H])C(=O)c2c([H])c(N3C([H])([H])C([H])([H])N(C([H])([H])[H])C([H])([H])C3([H])[H])c([H])c(C(F)(F)F)c2[H])c([H])c([H])c1C([H])([H])[H]


 38 41  0  0  0  0  0  0  0  0999 V2000
  -20.2452   13.5374  -19.5160 C   0  0  0  0  0  0  0  0  0  0  0  0
  -21.2547   14.1919  -19.9158 O   0  0  0  0  0  0  0  0  0  0  0  0
  -20.0946   13.0374  -18.2351 N   0  0  0  0  0  0  0  0  0  0  0  0
  -19.1071   12.4930  -18.1371 H   0  0  0  0  0  0  0  0  0  0  0  0
  -20.7945   13.0172  -17.0304 C   0  0  0  0  0  0  0  0  0  0  0  0
  -21.4447   14.0818  -16.4789 C   0  0  0  0  0  0  0  0  0  0  0  0
  -22.0198   14.0178  -15.2295 C   0  0  0  0  0  0  0  0  0  0  0  0
  -21.9585   12.8608  -14.4820 C   0  0  0  0  0  0  0  0  0  0  0  0
  -22.5853   12.8337  -13.1479 C   0  0  0  0  0  0  0  0  0  0  0  0
  -21.3092   11.7375  -15.0066 C   0  0  0  0  0  0  0  0  0  0  0  0
  -20.7394   11.8301  -16.2664 C   0  0  0  0  0  0  0  0  0  0  0  0
  -21.1405   10.6120  -14.1827 N   0  0  0  0  0  0  0  0  0  0  0  0
  -19.9935   10.4677  -13.2977 C   0  0  0  0  0  0  0  0  0  0  0  0
  -19.0904   11.3133  -13.2818 O   0  0  0  0  0  0  0  0  0  0  0  0
  -21.8599    9.8278  -14.1332 H   0  0  0  0  0  0  0  0  0  0  0  0
  -19.9124    9.3239  -12.4045 C   0  0  0  0  0  0  0  0  0  0  0  0
  -19.0439    8.2487  -12.6179 C   0  0  0  0  0  0  0  0  0  0  0  0
  -19.2248    7.4285  -11.5812 N   0  0  0  0  0  0  0  0  0  0  0  0
  -20.1322    7.9371  -10.7710 O   0  0  0  0  0  0  0  0  0  0  0  0
  -20.5668    9.0656  -11.2237 C   0  0  0  0  0  0  0  0  0  0  0  0
  -21.5945    9.9367  -10.5987 C   0  0  0  0  0  0  0  0  0  0  0  0
  -17.5696   13.8640  -22.1502 C   0  0  0  0  0  0  0  0  0  0  0  0
  -18.7303   14.1182  -21.4283 C   0  0  0  0  0  0  0  0  0  0  0  0
  -19.1053   13.2600  -20.4357 C   0  0  0  0  0  0  0  0  0  0  0  0
  -18.3734   12.1421  -20.1299 C   0  0  0  0  0  0  0  0  0  0  0  0
  -17.2125   11.8589  -20.8272 C   0  0  0  0  0  0  0  0  0  0  0  0
  -16.8535   12.7377  -21.8198 C   0  0  0  0  0  0  0  0  0  0  0  0
  -14.2069   14.9025  -25.0705 C   0  0  0  0  0  0  0  0  0  0  0  0
  -15.4469   15.6473  -25.2254 N   0  0  0  0  0  0  0  0  0  0  0  0
  -15.7316   16.5046  -24.0878 C   0  0  0  0  0  0  0  0  0  0  0  0
  -16.0398   15.6842  -22.8570 C   0  0  0  0  0  0  0  0  0  0  0  0
  -17.1069   14.7590  -23.1794 N   0  0  0  0  0  0  0  0  0  0  0  0
  -17.6509   14.7708  -24.4985 C   0  0  0  0  0  0  0  0  0  0  0  0
  -16.5735   14.7811  -25.5333 C   0  0  0  0  0  0  0  0  0  0  0  0
  -16.3877   10.6523  -20.4595 C   0  0  0  0  0  0  0  0  0  0  0  0
  -17.1991    9.5547  -20.4631 F   0  0  0  0  0  0  0  0  0  0  0  0
  -15.3667   10.5505  -21.3621 F   0  0  0  0  0  0  0  0  0  0  0  0
  -15.8623   10.9449  -19.1984 F   0  0  0  0  0  0  0  0  0  0  0  0
 28 29  1  0  0  0
 29 30  1  0  0  0
 30 31  1  0  0  0
 31 32  1  0  0  0
 32 33  1  0  0  0
 33 34  1  0  0  0
 32 22  1  0  0  0
 22 23  2  0  0  0
 23 24  1  0  0  0
 24 25  2  0  0  0
 25 26  1  0  0  0
 26 27  2  0  0  0
 26 35  1  0  0  0
 35 36  1  0  0  0
 35 37  1  0  0  0
 35 38  1  0  0  0
 24  1  1  0  0  0
  1  2  2  0  0  0
  1  3  1  0  0  0
  3  5  1  0  0  0
  5  6  2  0  0  0
  6  7  1  0  0  0
  7  8  2  0  0  0
  8  9  1  0  0  0
  8 10  1  0  0  0
 10 12  1  0  0  0
 12 13  1  0  0  0
 13 14  2  0  0  0
 13 16  1  0  0  0
 16 17  1  0  0  0
 17 18  2  0  0  0
 18 19  1  0  0  0
 19 20  1  0  0  0
 20 21  1  0  0  0
 10 11  2  0  0  0
 34 29  1  0  0  0
 27 22  1  0  0  0
 11  5  1  0  0  0
 20 16  2  0  0  0
  3  4  1  0  0  0
 12 15  1  0  0  0
M  END
> <minimizedAffinity>
-9.23232

> <CNNscore>
0.1735251695

> <CNNaffinity>
5.7824258804

> <CNN_VS>
1.0033963919

> <CNNaffinity_variance>
0.4055108130

$$$$
[H]c1c([H])c([H])c2c(c1[H])c1c3c(c4c5c([H])c([H])c([H])c([H])c5n5c4c1n2C1([H])O[C@@]5(C([H])([H])[H])[C@]([H])(OC([H])([H])[H])[C@]([H])(N([H])C([H])([H])[H])C1([H])[H])C([H])([H])N([H])C3=O


 37 44  0  0  0  0  0  0  0  0999 V2000
  -20.1419   16.2756  -17.3325 C   0  0  0  0  0  0  0  0  0  0  0  0
  -20.0145   14.8353  -17.0693 C   0  0  0  0  0  0  0  0  0  0  0  0
  -20.8241   13.9781  -17.9968 C   0  0  0  0  0  0  0  0  0  0  0  0
  -21.3669   14.5216  -19.0497 O   0  0  0  0  0  0  0  0  0  0  0  0
  -20.8441   15.6317  -19.6964 C   0  0  0  0  0  0  0  0  0  0  0  0
  -22.0543   16.0566  -20.5578 C   0  0  0  0  0  0  0  0  0  0  0  0
  -20.5625   16.6778  -18.7232 C   0  0  0  0  0  0  0  0  0  0  0  0
  -19.7537   15.1917  -20.5648 N   0  0  0  0  0  0  0  0  0  0  0  0
  -19.2879   15.7900  -21.6669 C   0  0  0  0  0  0  0  0  0  0  0  0
  -19.6063   16.9514  -22.2911 C   0  0  0  0  0  0  0  0  0  0  0  0
  -18.9681   17.3587  -23.4410 C   0  0  0  0  0  0  0  0  0  0  0  0
  -17.9585   16.5964  -24.0253 C   0  0  0  0  0  0  0  0  0  0  0  0
  -17.6330   15.4177  -23.3946 C   0  0  0  0  0  0  0  0  0  0  0  0
  -18.2793   15.0274  -22.2496 C   0  0  0  0  0  0  0  0  0  0  0  0
  -18.1335   13.9254  -21.4626 C   0  0  0  0  0  0  0  0  0  0  0  0
  -17.3032   12.8004  -21.5357 C   0  0  0  0  0  0  0  0  0  0  0  0
  -16.2622   12.4602  -22.5359 C   0  0  0  0  0  0  0  0  0  0  0  0
  -15.7071   11.2068  -22.1591 N   0  0  0  0  0  0  0  0  0  0  0  0
  -16.3724   10.7753  -20.9665 C   0  0  0  0  0  0  0  0  0  0  0  0
  -16.0702    9.7018  -20.4279 O   0  0  0  0  0  0  0  0  0  0  0  0
  -17.3565   11.7778  -20.5988 C   0  0  0  0  0  0  0  0  0  0  0  0
  -18.2680   11.9081  -19.5747 C   0  0  0  0  0  0  0  0  0  0  0  0
  -18.6047   11.1507  -18.4871 C   0  0  0  0  0  0  0  0  0  0  0  0
  -18.1486    9.9446  -18.0231 C   0  0  0  0  0  0  0  0  0  0  0  0
  -18.6999    9.4145  -16.8599 C   0  0  0  0  0  0  0  0  0  0  0  0
  -19.6897   10.0980  -16.1898 C   0  0  0  0  0  0  0  0  0  0  0  0
  -20.1547   11.3231  -16.6589 C   0  0  0  0  0  0  0  0  0  0  0  0
  -19.6030   11.8278  -17.8005 C   0  0  0  0  0  0  0  0  0  0  0  0
  -19.8712   12.9494  -18.4334 N   0  0  0  0  0  0  0  0  0  0  0  0
  -19.0954   13.0402  -19.5096 C   0  0  0  0  0  0  0  0  0  0  0  0
  -19.0286   14.0510  -20.4592 C   0  0  0  0  0  0  0  0  0  0  0  0
  -14.9417   10.6980  -22.6759 H   0  0  0  0  0  0  0  0  0  0  0  0
  -19.0309   17.8668  -15.9015 C   0  0  0  0  0  0  0  0  0  0  0  0
  -18.8586   16.9102  -16.9614 N   0  0  0  0  0  0  0  0  0  0  0  0
  -18.1974   16.1716  -16.6292 H   0  0  0  0  0  0  0  0  0  0  0  0
  -19.6745   17.6829  -19.0806 O   0  0  0  0  0  0  0  0  0  0  0  0
  -20.2868   18.9139  -19.2973 C   0  0  0  0  0  0  0  0  0  0  0  0
 33 34  1  0  0  0
 34  1  1  0  0  0
  1  2  1  0  0  0
  2  3  1  0  0  0
  3  4  1  0  0  0
  4  5  1  0  0  0
  5  6  1  0  0  0
  5  7  1  0  0  0
  7 36  1  0  0  0
 36 37  1  0  0  0
  5  8  1  0  0  0
  8  9  1  0  0  0
  9 10  2  0  0  0
 10 11  1  0  0  0
 11 12  2  0  0  0
 12 13  1  0  0  0
 13 14  2  0  0  0
 14 15  1  0  0  0
 15 16  2  0  0  0
 16 17  1  0  0  0
 17 18  1  0  0  0
 18 19  1  0  0  0
 19 20  2  0  0  0
 19 21  1  0  0  0
 21 22  2  0  0  0
 22 23  1  0  0  0
 23 24  2  0  0  0
 24 25  1  0  0  0
 25 26  2  0  0  0
 26 27  1  0  0  0
 27 28  2  0  0  0
 28 29  1  0  0  0
 29 30  1  0  0  0
 30 31  2  0  0  0
  7  1  1  0  0  0
 31  8  1  0  0  0
 29  3  1  0  0  0
 14  9  1  0  0  0
 31 15  1  0  0  0
 21 16  1  0  0  0
 30 22  1  0  0  0
 28 23  1  0  0  0
 34 35  1  0  0  0
 18 32  1  0  0  0
M  END
> <minimizedAffinity>
-11.28770

> <CNNscore>
0.9210675955

> <CNNaffinity>
7.2624101639

> <CNN_VS>
6.6891708374

> <CNNaffinity_variance>
0.0331876278

$$$$
[H]c1c([H])c([H])c2c(c1[H])c1c3c(c4c5c([H])c([H])c([H])c([H])c5n5c4c1n2C1([H])O[C@@]5(C([H])([H])[H])[C@]([H])(OC([H])([H])[H])[C@]([H])(N([H])C([H])([H])[H])C1([H])[H])C([H])([H])N([H])C3=O


 37 44  0  0  0  0  0  0  0  0999 V2000
  -18.9974   17.6323  -19.6833 C   0  0  0  0  0  0  0  0  0  0  0  0
  -19.2848   16.3422  -19.0406 C   0  0  0  0  0  0  0  0  0  0  0  0
  -20.1321   15.4275  -19.8749 C   0  0  0  0  0  0  0  0  0  0  0  0
  -20.3474   15.7281  -21.1247 O   0  0  0  0  0  0  0  0  0  0  0  0
  -19.4643   16.4648  -21.9001 C   0  0  0  0  0  0  0  0  0  0  0  0
  -20.3766   16.8463  -23.0873 C   0  0  0  0  0  0  0  0  0  0  0  0
  -19.0797   17.6754  -21.1879 C   0  0  0  0  0  0  0  0  0  0  0  0
  -18.4012   15.5752  -22.3640 N   0  0  0  0  0  0  0  0  0  0  0  0
  -17.6325   15.7096  -23.4505 C   0  0  0  0  0  0  0  0  0  0  0  0
  -17.5425   16.6699  -24.4043 C   0  0  0  0  0  0  0  0  0  0  0  0
  -16.6506   16.5771  -25.4490 C   0  0  0  0  0  0  0  0  0  0  0  0
  -15.7911   15.4881  -25.5812 C   0  0  0  0  0  0  0  0  0  0  0  0
  -15.8797   14.5123  -24.6154 C   0  0  0  0  0  0  0  0  0  0  0  0
  -16.7743   14.6211  -23.5814 C   0  0  0  0  0  0  0  0  0  0  0  0
  -17.0391   13.7997  -22.5277 C   0  0  0  0  0  0  0  0  0  0  0  0
  -16.5230   12.5617  -22.1262 C   0  0  0  0  0  0  0  0  0  0  0  0
  -15.4610   11.7356  -22.7505 C   0  0  0  0  0  0  0  0  0  0  0  0
  -15.3102   10.5679  -21.9537 N   0  0  0  0  0  0  0  0  0  0  0  0
  -16.2408   10.6563  -20.8687 C   0  0  0  0  0  0  0  0  0  0  0  0
  -16.3105    9.7557  -20.0214 O   0  0  0  0  0  0  0  0  0  0  0  0
  -16.9808   11.8992  -20.9958 C   0  0  0  0  0  0  0  0  0  0  0  0
  -17.9766   12.5106  -20.2669 C   0  0  0  0  0  0  0  0  0  0  0  0
  -18.6605   12.1976  -19.1250 C   0  0  0  0  0  0  0  0  0  0  0  0
  -18.6056   11.1201  -18.2800 C   0  0  0  0  0  0  0  0  0  0  0  0
  -19.4480   11.0848  -17.1724 C   0  0  0  0  0  0  0  0  0  0  0  0
  -20.3221   12.1219  -16.9348 C   0  0  0  0  0  0  0  0  0  0  0  0
  -20.3799   13.2174  -17.7914 C   0  0  0  0  0  0  0  0  0  0  0  0
  -19.5469   13.2354  -18.8722 C   0  0  0  0  0  0  0  0  0  0  0  0
  -19.4177   14.1459  -19.8129 N   0  0  0  0  0  0  0  0  0  0  0  0
  -18.4869   13.7523  -20.6771 C   0  0  0  0  0  0  0  0  0  0  0  0
  -18.0172   14.3972  -21.8136 C   0  0  0  0  0  0  0  0  0  0  0  0
  -14.6295    9.7847  -22.1411 H   0  0  0  0  0  0  0  0  0  0  0  0
  -16.7020   17.0147  -19.2786 C   0  0  0  0  0  0  0  0  0  0  0  0
  -17.6685   18.0775  -19.2111 N   0  0  0  0  0  0  0  0  0  0  0  0
  -17.3356   18.8596  -19.8199 H   0  0  0  0  0  0  0  0  0  0  0  0
  -17.9200   18.3274  -21.5835 O   0  0  0  0  0  0  0  0  0  0  0  0
  -18.1518   19.5737  -22.1581 C   0  0  0  0  0  0  0  0  0  0  0  0
 33 34  1  0  0  0
 34  1  1  0  0  0
  1  2  1  0  0  0
  2  3  1  0  0  0
  3  4  1  0  0  0
  4  5  1  0  0  0
  5  6  1  0  0  0
  5  7  1  0  0  0
  7 36  1  0  0  0
 36 37  1  0  0  0
  5  8  1  0  0  0
  8  9  1  0  0  0
  9 10  2  0  0  0
 10 11  1  0  0  0
 11 12  2  0  0  0
 12 13  1  0  0  0
 13 14  2  0  0  0
 14 15  1  0  0  0
 15 16  2  0  0  0
 16 17  1  0  0  0
 17 18  1  0  0  0
 18 19  1  0  0  0
 19 20  2  0  0  0
 19 21  1  0  0  0
 21 22  2  0  0  0
 22 23  1  0  0  0
 23 24  2  0  0  0
 24 25  1  0  0  0
 25 26  2  0  0  0
 26 27  1  0  0  0
 27 28  2  0  0  0
 28 29  1  0  0  0
 29 30  1  0  0  0
 30 31  2  0  0  0
  7  1  1  0  0  0
 31  8  1  0  0  0
 29  3  1  0  0  0
 14  9  1  0  0  0
 31 15  1  0  0  0
 21 16  1  0  0  0
 30 22  1  0  0  0
 28 23  1  0  0  0
 34 35  1  0  0  0
 18 32  1  0  0  0
M  END
> <minimizedAffinity>
-10.03928

> <CNNscore>
0.7935173512

> <CNNaffinity>
7.5585012436

> <CNN_VS>
5.9978017807

> <CNNaffinity_variance>
0.1547216624

$$$$
[H]c1c([H])c([H])c2c(c1[H])c1c3c(c4c5c([H])c([H])c([H])c([H])c5n5c4c1n2C1([H])O[C@@]5(C([H])([H])[H])[C@]([H])(OC([H])([H])[H])[C@]([H])(N([H])C([H])([H])[H])C1([H])[H])C([H])([H])N([H])C3=O


 37 44  0  0  0  0  0  0  0  0999 V2000
  -20.3628   17.2193  -17.2525 C   0  0  0  0  0  0  0  0  0  0  0  0
  -20.7124   16.0089  -16.4958 C   0  0  0  0  0  0  0  0  0  0  0  0
  -21.6278   15.0781  -17.2350 C   0  0  0  0  0  0  0  0  0  0  0  0
  -21.8496   15.2824  -18.5030 O   0  0  0  0  0  0  0  0  0  0  0  0
  -20.9404   15.8954  -19.3523 C   0  0  0  0  0  0  0  0  0  0  0  0
  -21.8518   16.2272  -20.5549 C   0  0  0  0  0  0  0  0  0  0  0  0
  -20.4719   17.1376  -18.7539 C   0  0  0  0  0  0  0  0  0  0  0  0
  -19.9403   14.9071  -19.7522 N   0  0  0  0  0  0  0  0  0  0  0  0
  -19.1865   14.9012  -20.8573 C   0  0  0  0  0  0  0  0  0  0  0  0
  -19.0592   15.7687  -21.8923 C   0  0  0  0  0  0  0  0  0  0  0  0
  -18.1948   15.5331  -22.9377 C   0  0  0  0  0  0  0  0  0  0  0  0
  -17.4032   14.3874  -22.9870 C   0  0  0  0  0  0  0  0  0  0  0  0
  -17.5297   13.5054  -21.9386 C   0  0  0  0  0  0  0  0  0  0  0  0
  -18.3960   13.7561  -20.9053 C   0  0  0  0  0  0  0  0  0  0  0  0
  -18.6876   13.0457  -19.7804 C   0  0  0  0  0  0  0  0  0  0  0  0
  -18.2369   11.8182  -19.2800 C   0  0  0  0  0  0  0  0  0  0  0  0
  -17.2373   10.8794  -19.8452 C   0  0  0  0  0  0  0  0  0  0  0  0
  -17.1393    9.7778  -18.9521 N   0  0  0  0  0  0  0  0  0  0  0  0
  -18.0418   10.0148  -17.8655 C   0  0  0  0  0  0  0  0  0  0  0  0
  -18.1473    9.1963  -16.9421 O   0  0  0  0  0  0  0  0  0  0  0  0
  -18.7104   11.2842  -18.0898 C   0  0  0  0  0  0  0  0  0  0  0  0
  -19.6543   12.0146  -17.4026 C   0  0  0  0  0  0  0  0  0  0  0  0
  -20.3328   11.8425  -16.2279 C   0  0  0  0  0  0  0  0  0  0  0  0
  -20.3244   10.8403  -15.2932 C   0  0  0  0  0  0  0  0  0  0  0  0
  -21.1456   10.9510  -14.1747 C   0  0  0  0  0  0  0  0  0  0  0  0
  -21.9529   12.0552  -14.0158 C   0  0  0  0  0  0  0  0  0  0  0  0
  -21.9633   13.0744  -14.9635 C   0  0  0  0  0  0  0  0  0  0  0  0
  -21.1521   12.9494  -16.0537 C   0  0  0  0  0  0  0  0  0  0  0  0
  -20.9884   13.7661  -17.0719 N   0  0  0  0  0  0  0  0  0  0  0  0
  -20.0992   13.2446  -17.9120 C   0  0  0  0  0  0  0  0  0  0  0  0
  -19.6150   13.7601  -19.1069 C   0  0  0  0  0  0  0  0  0  0  0  0
  -16.5093    8.9420  -19.0803 H   0  0  0  0  0  0  0  0  0  0  0  0
  -19.0103   18.2749  -15.5583 C   0  0  0  0  0  0  0  0  0  0  0  0
  -19.0011   17.6232  -16.8402 N   0  0  0  0  0  0  0  0  0  0  0  0
  -18.4007   16.7704  -16.7676 H   0  0  0  0  0  0  0  0  0  0  0  0
  -19.2840   17.6825  -19.2214 O   0  0  0  0  0  0  0  0  0  0  0  0
  -19.4586   18.8622  -19.9390 C   0  0  0  0  0  0  0  0  0  0  0  0
 33 34  1  0  0  0
 34  1  1  0  0  0
  1  2  1  0  0  0
  2  3  1  0  0  0
  3  4  1  0  0  0
  4  5  1  0  0  0
  5  6  1  0  0  0
  5  7  1  0  0  0
  7 36  1  0  0  0
 36 37  1  0  0  0
  5  8  1  0  0  0
  8  9  1  0  0  0
  9 10  2  0  0  0
 10 11  1  0  0  0
 11 12  2  0  0  0
 12 13  1  0  0  0
 13 14  2  0  0  0
 14 15  1  0  0  0
 15 16  2  0  0  0
 16 17  1  0  0  0
 17 18  1  0  0  0
 18 19  1  0  0  0
 19 20  2  0  0  0
 19 21  1  0  0  0
 21 22  2  0  0  0
 22 23  1  0  0  0
 23 24  2  0  0  0
 24 25  1  0  0  0
 25 26  2  0  0  0
 26 27  1  0  0  0
 27 28  2  0  0  0
 28 29  1  0  0  0
 29 30  1  0  0  0
 30 31  2  0  0  0
  7  1  1  0  0  0
 31  8  1  0  0  0
 29  3  1  0  0  0
 14  9  1  0  0  0
 31 15  1  0  0  0
 21 16  1  0  0  0
 30 22  1  0  0  0
 28 23  1  0  0  0
 34 35  1  0  0  0
 18 32  1  0  0  0
M  END
> <minimizedAffinity>
-10.15633

> <CNNscore>
0.3502015471

> <CNNaffinity>
6.4047799110

> <CNN_VS>
2.2429637909

> <CNNaffinity_variance>
0.2307897061

$$$$
[H]c1c([H])c([H])c2c(c1[H])c1c3c(c4c5c([H])c([H])c([H])c([H])c5n5c4c1n2C1([H])O[C@@]5(C([H])([H])[H])[C@]([H])(OC([H])([H])[H])[C@]([H])(N([H])C([H])([H])[H])C1([H])[H])C([H])([H])N([H])C3=O


 37 44  0  0  0  0  0  0  0  0999 V2000
  -20.9755   16.8532  -19.8785 C   0  0  0  0  0  0  0  0  0  0  0  0
  -19.7987   16.8591  -20.7589 C   0  0  0  0  0  0  0  0  0  0  0  0
  -18.4928   16.8235  -20.0213 C   0  0  0  0  0  0  0  0  0  0  0  0
  -18.4943   16.5723  -18.7425 O   0  0  0  0  0  0  0  0  0  0  0  0
  -19.4651   15.8087  -18.1113 C   0  0  0  0  0  0  0  0  0  0  0  0
  -19.2059   16.1812  -16.6344 C   0  0  0  0  0  0  0  0  0  0  0  0
  -20.7874   16.2823  -18.4961 C   0  0  0  0  0  0  0  0  0  0  0  0
  -19.1542   14.3962  -18.3232 N   0  0  0  0  0  0  0  0  0  0  0  0
  -19.5099   13.3534  -17.5645 C   0  0  0  0  0  0  0  0  0  0  0  0
  -20.2671   13.2426  -16.4445 C   0  0  0  0  0  0  0  0  0  0  0  0
  -20.4911   12.0290  -15.8343 C   0  0  0  0  0  0  0  0  0  0  0  0
  -19.9498   10.8474  -16.3371 C   0  0  0  0  0  0  0  0  0  0  0  0
  -19.1813   10.9563  -17.4731 C   0  0  0  0  0  0  0  0  0  0  0  0
  -18.9685   12.1737  -18.0680 C   0  0  0  0  0  0  0  0  0  0  0  0
  -18.2589   12.5240  -19.1765 C   0  0  0  0  0  0  0  0  0  0  0  0
  -17.4876   11.7943  -20.0892 C   0  0  0  0  0  0  0  0  0  0  0  0
  -17.2114   10.3379  -20.1378 C   0  0  0  0  0  0  0  0  0  0  0  0
  -16.3724   10.1038  -21.2612 N   0  0  0  0  0  0  0  0  0  0  0  0
  -16.1307   11.3646  -21.8962 C   0  0  0  0  0  0  0  0  0  0  0  0
  -15.4219   11.4360  -22.9093 O   0  0  0  0  0  0  0  0  0  0  0  0
  -16.8313   12.3970  -21.1533 C   0  0  0  0  0  0  0  0  0  0  0  0
  -16.9668   13.7610  -21.2865 C   0  0  0  0  0  0  0  0  0  0  0  0
  -16.5046   14.6890  -22.1780 C   0  0  0  0  0  0  0  0  0  0  0  0
  -15.7028   14.5890  -23.2849 C   0  0  0  0  0  0  0  0  0  0  0  0
  -15.3997   15.7396  -24.0075 C   0  0  0  0  0  0  0  0  0  0  0  0
  -15.9021   16.9585  -23.6099 C   0  0  0  0  0  0  0  0  0  0  0  0
  -16.7166   17.0628  -22.4861 C   0  0  0  0  0  0  0  0  0  0  0  0
  -17.0034   15.9248  -21.7898 C   0  0  0  0  0  0  0  0  0  0  0  0
  -17.7381   15.7684  -20.7098 N   0  0  0  0  0  0  0  0  0  0  0  0
  -17.7430   14.4836  -20.3668 C   0  0  0  0  0  0  0  0  0  0  0  0
  -18.3891   13.8619  -19.3066 C   0  0  0  0  0  0  0  0  0  0  0  0
  -16.0020    9.1632  -21.5612 H   0  0  0  0  0  0  0  0  0  0  0  0
  -22.9690   17.0888  -21.2143 C   0  0  0  0  0  0  0  0  0  0  0  0
  -22.0643   16.1567  -20.5972 N   0  0  0  0  0  0  0  0  0  0  0  0
  -21.6489   15.5600  -21.3485 H   0  0  0  0  0  0  0  0  0  0  0  0
  -21.8660   15.4265  -18.3209 O   0  0  0  0  0  0  0  0  0  0  0  0
  -22.6958   15.7879  -17.2635 C   0  0  0  0  0  0  0  0  0  0  0  0
 33 34  1  0  0  0
 34  1  1  0  0  0
  1  2  1  0  0  0
  2  3  1  0  0  0
  3  4  1  0  0  0
  4  5  1  0  0  0
  5  6  1  0  0  0
  5  7  1  0  0  0
  7 36  1  0  0  0
 36 37  1  0  0  0
  5  8  1  0  0  0
  8  9  1  0  0  0
  9 10  2  0  0  0
 10 11  1  0  0  0
 11 12  2  0  0  0
 12 13  1  0  0  0
 13 14  2  0  0  0
 14 15  1  0  0  0
 15 16  2  0  0  0
 16 17  1  0  0  0
 17 18  1  0  0  0
 18 19  1  0  0  0
 19 20  2  0  0  0
 19 21  1  0  0  0
 21 22  2  0  0  0
 22 23  1  0  0  0
 23 24  2  0  0  0
 24 25  1  0  0  0
 25 26  2  0  0  0
 26 27  1  0  0  0
 27 28  2  0  0  0
 28 29  1  0  0  0
 29 30  1  0  0  0
 30 31  2  0  0  0
  7  1  1  0  0  0
 31  8  1  0  0  0
 29  3  1  0  0  0
 14  9  1  0  0  0
 31 15  1  0  0  0
 21 16  1  0  0  0
 30 22  1  0  0  0
 28 23  1  0  0  0
 34 35  1  0  0  0
 18 32  1  0  0  0
M  END
> <minimizedAffinity>
-10.29210

> <CNNscore>
0.3288549781

> <CNNaffinity>
6.6545896530

> <CNN_VS>
2.1883950233

> <CNNaffinity_variance>
0.1180224419

$$$$
[H]c1c([H])c([H])c2c(c1[H])c1c3c(c4c5c([H])c([H])c([H])c([H])c5n5c4c1n2C1([H])O[C@@]5(C([H])([H])[H])[C@]([H])(OC([H])([H])[H])[C@]([H])(N([H])C([H])([H])[H])C1([H])[H])C([H])([H])N([H])C3=O


 37 44  0  0  0  0  0  0  0  0999 V2000
  -19.9552   15.7938  -17.3413 C   0  0  0  0  0  0  0  0  0  0  0  0
  -19.4231   14.4654  -17.6760 C   0  0  0  0  0  0  0  0  0  0  0  0
  -20.2005   13.7553  -18.7448 C   0  0  0  0  0  0  0  0  0  0  0  0
  -21.0967   14.4168  -19.4214 O   0  0  0  0  0  0  0  0  0  0  0  0
  -21.0307   15.7830  -19.6519 C   0  0  0  0  0  0  0  0  0  0  0  0
  -22.4789   16.0657  -20.1097 C   0  0  0  0  0  0  0  0  0  0  0  0
  -20.7841   16.4799  -18.3971 C   0  0  0  0  0  0  0  0  0  0  0  0
  -20.1095   16.0220  -20.7614 N   0  0  0  0  0  0  0  0  0  0  0  0
  -20.0832   17.0658  -21.5977 C   0  0  0  0  0  0  0  0  0  0  0  0
  -20.8145   18.2056  -21.6743 C   0  0  0  0  0  0  0  0  0  0  0  0
  -20.5914   19.1495  -22.6515 C   0  0  0  0  0  0  0  0  0  0  0  0
  -19.5995   18.9823  -23.6159 C   0  0  0  0  0  0  0  0  0  0  0  0
  -18.8557   17.8272  -23.5409 C   0  0  0  0  0  0  0  0  0  0  0  0
  -19.0917   16.8975  -22.5605 C   0  0  0  0  0  0  0  0  0  0  0  0
  -18.4975   15.7024  -22.2892 C   0  0  0  0  0  0  0  0  0  0  0  0
  -17.4626   14.9869  -22.9035 C   0  0  0  0  0  0  0  0  0  0  0  0
  -16.6439   15.3428  -24.0879 C   0  0  0  0  0  0  0  0  0  0  0  0
  -15.7277   14.2776  -24.3044 N   0  0  0  0  0  0  0  0  0  0  0  0
  -15.9600   13.2895  -23.2940 C   0  0  0  0  0  0  0  0  0  0  0  0
  -15.2859   12.2512  -23.2592 O   0  0  0  0  0  0  0  0  0  0  0  0
  -17.0386   13.7501  -22.4377 C   0  0  0  0  0  0  0  0  0  0  0  0
  -17.6790   13.2402  -21.3302 C   0  0  0  0  0  0  0  0  0  0  0  0
  -17.5490   12.1004  -20.5862 C   0  0  0  0  0  0  0  0  0  0  0  0
  -16.7162   11.0172  -20.6915 C   0  0  0  0  0  0  0  0  0  0  0  0
  -16.8246    9.9870  -19.7615 C   0  0  0  0  0  0  0  0  0  0  0  0
  -17.7582   10.0618  -18.7521 C   0  0  0  0  0  0  0  0  0  0  0  0
  -18.6052   11.1608  -18.6429 C   0  0  0  0  0  0  0  0  0  0  0  0
  -18.4850   12.1613  -19.5631 C   0  0  0  0  0  0  0  0  0  0  0  0
  -19.1616   13.2845  -19.6698 N   0  0  0  0  0  0  0  0  0  0  0  0
  -18.7148   13.9656  -20.7209 C   0  0  0  0  0  0  0  0  0  0  0  0
  -19.1264   15.2004  -21.2046 C   0  0  0  0  0  0  0  0  0  0  0  0
  -15.0102   14.2368  -25.0760 H   0  0  0  0  0  0  0  0  0  0  0  0
  -17.6298   16.3299  -17.6862 C   0  0  0  0  0  0  0  0  0  0  0  0
  -18.8134   16.6390  -16.9301 N   0  0  0  0  0  0  0  0  0  0  0  0
  -19.0547   17.6422  -17.0986 H   0  0  0  0  0  0  0  0  0  0  0  0
  -20.2795   17.7717  -18.4538 O   0  0  0  0  0  0  0  0  0  0  0  0
  -21.1927   18.7427  -18.0535 C   0  0  0  0  0  0  0  0  0  0  0  0
 33 34  1  0  0  0
 34  1  1  0  0  0
  1  2  1  0  0  0
  2  3  1  0  0  0
  3  4  1  0  0  0
  4  5  1  0  0  0
  5  6  1  0  0  0
  5  7  1  0  0  0
  7 36  1  0  0  0
 36 37  1  0  0  0
  5  8  1  0  0  0
  8  9  1  0  0  0
  9 10  2  0  0  0
 10 11  1  0  0  0
 11 12  2  0  0  0
 12 13  1  0  0  0
 13 14  2  0  0  0
 14 15  1  0  0  0
 15 16  2  0  0  0
 16 17  1  0  0  0
 17 18  1  0  0  0
 18 19  1  0  0  0
 19 20  2  0  0  0
 19 21  1  0  0  0
 21 22  2  0  0  0
 22 23  1  0  0  0
 23 24  2  0  0  0
 24 25  1  0  0  0
 25 26  2  0  0  0
 26 27  1  0  0  0
 27 28  2  0  0  0
 28 29  1  0  0  0
 29 30  1  0  0  0
 30 31  2  0  0  0
  7  1  1  0  0  0
 31  8  1  0  0  0
 29  3  1  0  0  0
 14  9  1  0  0  0
 31 15  1  0  0  0
 21 16  1  0  0  0
 30 22  1  0  0  0
 28 23  1  0  0  0
 34 35  1  0  0  0
 18 32  1  0  0  0
M  END
> <minimizedAffinity>
-10.05235

> <CNNscore>
0.2815687656

> <CNNaffinity>
6.5612359047

> <CNN_VS>
1.8474390507

> <CNNaffinity_variance>
0.1932126284

$$$$
[H]c1c([H])c([H])c2c(c1[H])c1c3c(c4c5c([H])c([H])c([H])c([H])c5n5c4c1n2C1([H])O[C@@]5(C([H])([H])[H])[C@]([H])(OC([H])([H])[H])[C@]([H])(N([H])C([H])([H])[H])C1([H])[H])C([H])([H])N([H])C3=O


 37 44  0  0  0  0  0  0  0  0999 V2000
  -20.0175   18.4488  -19.1490 C   0  0  0  0  0  0  0  0  0  0  0  0
  -20.4224   17.3078  -18.3160 C   0  0  0  0  0  0  0  0  0  0  0  0
  -21.3337   16.3429  -19.0155 C   0  0  0  0  0  0  0  0  0  0  0  0
  -21.5061   16.4540  -20.3026 O   0  0  0  0  0  0  0  0  0  0  0  0
  -20.5532   16.9804  -21.1621 C   0  0  0  0  0  0  0  0  0  0  0  0
  -21.4138   17.2384  -22.4190 C   0  0  0  0  0  0  0  0  0  0  0  0
  -20.0760   18.2546  -20.6428 C   0  0  0  0  0  0  0  0  0  0  0  0
  -19.5639   15.9431  -21.4489 N   0  0  0  0  0  0  0  0  0  0  0  0
  -18.7723   15.8363  -22.5219 C   0  0  0  0  0  0  0  0  0  0  0  0
  -18.5881   16.6189  -23.6144 C   0  0  0  0  0  0  0  0  0  0  0  0
  -17.6936   16.2854  -24.6065 C   0  0  0  0  0  0  0  0  0  0  0  0
  -16.9286   15.1225  -24.5396 C   0  0  0  0  0  0  0  0  0  0  0  0
  -17.1130   14.3265  -23.4327 C   0  0  0  0  0  0  0  0  0  0  0  0
  -18.0086   14.6742  -22.4538 C   0  0  0  0  0  0  0  0  0  0  0  0
  -18.3564   14.0587  -21.2897 C   0  0  0  0  0  0  0  0  0  0  0  0
  -17.9532   12.8638  -20.6814 C   0  0  0  0  0  0  0  0  0  0  0  0
  -16.9576   11.8632  -21.1367 C   0  0  0  0  0  0  0  0  0  0  0  0
  -16.9175   10.8314  -20.1596 N   0  0  0  0  0  0  0  0  0  0  0  0
  -17.8514   11.1703  -19.1279 C   0  0  0  0  0  0  0  0  0  0  0  0
  -18.0089   10.4275  -18.1496 O   0  0  0  0  0  0  0  0  0  0  0  0
  -18.4808   12.4329  -19.4723 C   0  0  0  0  0  0  0  0  0  0  0  0
  -19.4303   13.2339  -18.8776 C   0  0  0  0  0  0  0  0  0  0  0  0
  -20.1533   13.1670  -17.7190 C   0  0  0  0  0  0  0  0  0  0  0  0
  -20.2019   12.2396  -16.7112 C   0  0  0  0  0  0  0  0  0  0  0  0
  -21.0587   12.4533  -15.6352 C   0  0  0  0  0  0  0  0  0  0  0  0
  -21.8441   13.5835  -15.5902 C   0  0  0  0  0  0  0  0  0  0  0  0
  -21.7968   14.5269  -16.6123 C   0  0  0  0  0  0  0  0  0  0  0  0
  -20.9512   14.3013  -17.6594 C   0  0  0  0  0  0  0  0  0  0  0  0
  -20.7323   15.0338  -18.7299 N   0  0  0  0  0  0  0  0  0  0  0  0
  -19.8272   14.4305  -19.4948 C   0  0  0  0  0  0  0  0  0  0  0  0
  -19.2892   14.8422  -20.7069 C   0  0  0  0  0  0  0  0  0  0  0  0
  -16.3038    9.9750  -20.2008 H   0  0  0  0  0  0  0  0  0  0  0  0
  -18.6576   20.1842  -18.1729 C   0  0  0  0  0  0  0  0  0  0  0  0
  -18.6617   18.8538  -18.7188 N   0  0  0  0  0  0  0  0  0  0  0  0
  -18.3296   18.1963  -17.9769 H   0  0  0  0  0  0  0  0  0  0  0  0
  -18.8597   18.7364  -21.1065 O   0  0  0  0  0  0  0  0  0  0  0  0
  -18.9813   19.8539  -21.9271 C   0  0  0  0  0  0  0  0  0  0  0  0
 33 34  1  0  0  0
 34  1  1  0  0  0
  1  2  1  0  0  0
  2  3  1  0  0  0
  3  4  1  0  0  0
  4  5  1  0  0  0
  5  6  1  0  0  0
  5  7  1  0  0  0
  7 36  1  0  0  0
 36 37  1  0  0  0
  5  8  1  0  0  0
  8  9  1  0  0  0
  9 10  2  0  0  0
 10 11  1  0  0  0
 11 12  2  0  0  0
 12 13  1  0  0  0
 13 14  2  0  0  0
 14 15  1  0  0  0
 15 16  2  0  0  0
 16 17  1  0  0  0
 17 18  1  0  0  0
 18 19  1  0  0  0
 19 20  2  0  0  0
 19 21  1  0  0  0
 21 22  2  0  0  0
 22 23  1  0  0  0
 23 24  2  0  0  0
 24 25  1  0  0  0
 25 26  2  0  0  0
 26 27  1  0  0  0
 27 28  2  0  0  0
 28 29  1  0  0  0
 29 30  1  0  0  0
 30 31  2  0  0  0
  7  1  1  0  0  0
 31  8  1  0  0  0
 29  3  1  0  0  0
 14  9  1  0  0  0
 31 15  1  0  0  0
 21 16  1  0  0  0
 30 22  1  0  0  0
 28 23  1  0  0  0
 34 35  1  0  0  0
 18 32  1  0  0  0
M  END
> <minimizedAffinity>
-9.11891

> <CNNscore>
0.2677301168

> <CNNaffinity>
6.4434280396

> <CNN_VS>
1.7250996828

> <CNNaffinity_variance>
0.2868896127

$$$$
[H]c1c([H])c([H])c2c(c1[H])c1c3c(c4c5c([H])c([H])c([H])c([H])c5n5c4c1n2C1([H])O[C@@]5(C([H])([H])[H])[C@]([H])(OC([H])([H])[H])[C@]([H])(N([H])C([H])([H])[H])C1([H])[H])C([H])([H])N([H])C3=O


 37 44  0  0  0  0  0  0  0  0999 V2000
  -16.7420   17.0492  -22.9318 C   0  0  0  0  0  0  0  0  0  0  0  0
  -18.0381   17.3504  -22.3078 C   0  0  0  0  0  0  0  0  0  0  0  0
  -19.1518   16.4565  -22.7676 C   0  0  0  0  0  0  0  0  0  0  0  0
  -18.8643   15.3957  -23.4681 O   0  0  0  0  0  0  0  0  0  0  0  0
  -17.6613   14.7126  -23.3681 C   0  0  0  0  0  0  0  0  0  0  0  0
  -17.7126   13.8545  -24.6519 C   0  0  0  0  0  0  0  0  0  0  0  0
  -16.5542   15.6533  -23.4689 C   0  0  0  0  0  0  0  0  0  0  0  0
  -17.7178   13.8435  -22.1941 N   0  0  0  0  0  0  0  0  0  0  0  0
  -17.0276   12.7198  -21.9692 C   0  0  0  0  0  0  0  0  0  0  0  0
  -16.0702   12.0679  -22.6751 C   0  0  0  0  0  0  0  0  0  0  0  0
  -15.4999   10.8997  -22.2217 C   0  0  0  0  0  0  0  0  0  0  0  0
  -15.8780   10.3244  -21.0101 C   0  0  0  0  0  0  0  0  0  0  0  0
  -16.8488   10.9832  -20.2915 C   0  0  0  0  0  0  0  0  0  0  0  0
  -17.4062   12.1462  -20.7584 C   0  0  0  0  0  0  0  0  0  0  0  0
  -18.3635   12.9613  -20.2347 C   0  0  0  0  0  0  0  0  0  0  0  0
  -19.1285   12.9091  -19.0632 C   0  0  0  0  0  0  0  0  0  0  0  0
  -19.1128   11.9061  -17.9707 C   0  0  0  0  0  0  0  0  0  0  0  0
  -20.0808   12.3104  -17.0113 N   0  0  0  0  0  0  0  0  0  0  0  0
  -20.6820   13.5224  -17.4815 C   0  0  0  0  0  0  0  0  0  0  0  0
  -21.5653   14.0865  -16.8217 O   0  0  0  0  0  0  0  0  0  0  0  0
  -20.0766   13.8742  -18.7536 C   0  0  0  0  0  0  0  0  0  0  0  0
  -20.2429   14.9053  -19.6514 C   0  0  0  0  0  0  0  0  0  0  0  0
  -21.0373   16.0172  -19.6997 C   0  0  0  0  0  0  0  0  0  0  0  0
  -21.9932   16.5086  -18.8495 C   0  0  0  0  0  0  0  0  0  0  0  0
  -22.6476   17.6924  -19.1784 C   0  0  0  0  0  0  0  0  0  0  0  0
  -22.3339   18.3555  -20.3437 C   0  0  0  0  0  0  0  0  0  0  0  0
  -21.3636   17.8585  -21.2090 C   0  0  0  0  0  0  0  0  0  0  0  0
  -20.7321   16.6970  -20.8708 C   0  0  0  0  0  0  0  0  0  0  0  0
  -19.7946   16.0369  -21.5157 N   0  0  0  0  0  0  0  0  0  0  0  0
  -19.4704   14.9493  -20.8225 C   0  0  0  0  0  0  0  0  0  0  0  0
  -18.5290   13.9715  -21.1154 C   0  0  0  0  0  0  0  0  0  0  0  0
  -20.3050   11.7986  -16.1171 H   0  0  0  0  0  0  0  0  0  0  0  0
  -16.2502   17.7896  -20.6903 C   0  0  0  0  0  0  0  0  0  0  0  0
  -15.6878   17.3874  -21.9512 N   0  0  0  0  0  0  0  0  0  0  0  0
  -15.0920   16.5439  -21.7879 H   0  0  0  0  0  0  0  0  0  0  0  0
  -15.3131   15.2577  -22.9896 O   0  0  0  0  0  0  0  0  0  0  0  0
  -14.4245   14.8813  -23.9925 C   0  0  0  0  0  0  0  0  0  0  0  0
 33 34  1  0  0  0
 34  1  1  0  0  0
  1  2  1  0  0  0
  2  3  1  0  0  0
  3  4  1  0  0  0
  4  5  1  0  0  0
  5  6  1  0  0  0
  5  7  1  0  0  0
  7 36  1  0  0  0
 36 37  1  0  0  0
  5  8  1  0  0  0
  8  9  1  0  0  0
  9 10  2  0  0  0
 10 11  1  0  0  0
 11 12  2  0  0  0
 12 13  1  0  0  0
 13 14  2  0  0  0
 14 15  1  0  0  0
 15 16  2  0  0  0
 16 17  1  0  0  0
 17 18  1  0  0  0
 18 19  1  0  0  0
 19 20  2  0  0  0
 19 21  1  0  0  0
 21 22  2  0  0  0
 22 23  1  0  0  0
 23 24  2  0  0  0
 24 25  1  0  0  0
 25 26  2  0  0  0
 26 27  1  0  0  0
 27 28  2  0  0  0
 28 29  1  0  0  0
 29 30  1  0  0  0
 30 31  2  0  0  0
  7  1  1  0  0  0
 31  8  1  0  0  0
 29  3  1  0  0  0
 14  9  1  0  0  0
 31 15  1  0  0  0
 21 16  1  0  0  0
 30 22  1  0  0  0
 28 23  1  0  0  0
 34 35  1  0  0  0
 18 32  1  0  0  0
M  END
> <minimizedAffinity>
-10.27243

> <CNNscore>
0.2092137784

> <CNNaffinity>
6.1699061394

> <CNN_VS>
1.2908294201

> <CNNaffinity_variance>
0.8982166052

$$$$
[H]c1c([H])c([H])c2c(c1[H])c1c3c(c4c5c([H])c([H])c([H])c([H])c5n5c4c1n2C1([H])O[C@@]5(C([H])([H])[H])[C@]([H])(OC([H])([H])[H])[C@]([H])(N([H])C([H])([H])[H])C1([H])[H])C([H])([H])N([H])C3=O


 37 44  0  0  0  0  0  0  0  0999 V2000
  -20.3939   16.6226  -16.6712 C   0  0  0  0  0  0  0  0  0  0  0  0
  -21.0285   15.6127  -15.8127 C   0  0  0  0  0  0  0  0  0  0  0  0
  -21.9874   14.7176  -16.5408 C   0  0  0  0  0  0  0  0  0  0  0  0
  -22.0154   14.7458  -17.8435 O   0  0  0  0  0  0  0  0  0  0  0  0
  -20.9203   15.0767  -18.6278 C   0  0  0  0  0  0  0  0  0  0  0  0
  -21.6101   15.3395  -19.9851 C   0  0  0  0  0  0  0  0  0  0  0  0
  -20.3301   16.3179  -18.1462 C   0  0  0  0  0  0  0  0  0  0  0  0
  -20.0557   13.9030  -18.7357 N   0  0  0  0  0  0  0  0  0  0  0  0
  -19.1834   13.6110  -19.7071 C   0  0  0  0  0  0  0  0  0  0  0  0
  -18.7889   14.2736  -20.8229 C   0  0  0  0  0  0  0  0  0  0  0  0
  -17.8537   13.7510  -21.6877 C   0  0  0  0  0  0  0  0  0  0  0  0
  -17.2620   12.5099  -21.4607 C   0  0  0  0  0  0  0  0  0  0  0  0
  -17.6599   11.8351  -20.3296 C   0  0  0  0  0  0  0  0  0  0  0  0
  -18.5930   12.3709  -19.4791 C   0  0  0  0  0  0  0  0  0  0  0  0
  -19.1335   11.8999  -18.3210 C   0  0  0  0  0  0  0  0  0  0  0  0
  -18.9562   10.7165  -17.5942 C   0  0  0  0  0  0  0  0  0  0  0  0
  -18.0637    9.5646  -17.8709 C   0  0  0  0  0  0  0  0  0  0  0  0
  -18.2591    8.6181  -16.8285 N   0  0  0  0  0  0  0  0  0  0  0  0
  -19.2364    9.1542  -15.9292 C   0  0  0  0  0  0  0  0  0  0  0  0
  -19.5879    8.5184  -14.9263 O   0  0  0  0  0  0  0  0  0  0  0  0
  -19.6537   10.4544  -16.4233 C   0  0  0  0  0  0  0  0  0  0  0  0
  -20.5411   11.4142  -15.9899 C   0  0  0  0  0  0  0  0  0  0  0  0
  -21.3775   11.5327  -14.9147 C   0  0  0  0  0  0  0  0  0  0  0  0
  -21.6493   10.7029  -13.8584 C   0  0  0  0  0  0  0  0  0  0  0  0
  -22.5718   11.1091  -12.8983 C   0  0  0  0  0  0  0  0  0  0  0  0
  -23.1991   12.3294  -13.0144 C   0  0  0  0  0  0  0  0  0  0  0  0
  -22.9249   13.1740  -14.0861 C   0  0  0  0  0  0  0  0  0  0  0  0
  -22.0180   12.7598  -15.0179 C   0  0  0  0  0  0  0  0  0  0  0  0
  -21.5982   13.3703  -16.1049 N   0  0  0  0  0  0  0  0  0  0  0  0
  -20.7111   12.5978  -16.7251 C   0  0  0  0  0  0  0  0  0  0  0  0
  -20.0057   12.8395  -17.8964 C   0  0  0  0  0  0  0  0  0  0  0  0
  -17.7647    7.6904  -16.7456 H   0  0  0  0  0  0  0  0  0  0  0  0
  -18.9787   18.1717  -15.4832 C   0  0  0  0  0  0  0  0  0  0  0  0
  -19.0452   16.8863  -16.1246 N   0  0  0  0  0  0  0  0  0  0  0  0
  -18.8177   16.1550  -15.4128 H   0  0  0  0  0  0  0  0  0  0  0  0
  -19.0204   16.6032  -18.5064 O   0  0  0  0  0  0  0  0  0  0  0  0
  -18.9065   17.6824  -19.3778 C   0  0  0  0  0  0  0  0  0  0  0  0
 33 34  1  0  0  0
 34  1  1  0  0  0
  1  2  1  0  0  0
  2  3  1  0  0  0
  3  4  1  0  0  0
  4  5  1  0  0  0
  5  6  1  0  0  0
  5  7  1  0  0  0
  7 36  1  0  0  0
 36 37  1  0  0  0
  5  8  1  0  0  0
  8  9  1  0  0  0
  9 10  2  0  0  0
 10 11  1  0  0  0
 11 12  2  0  0  0
 12 13  1  0  0  0
 13 14  2  0  0  0
 14 15  1  0  0  0
 15 16  2  0  0  0
 16 17  1  0  0  0
 17 18  1  0  0  0
 18 19  1  0  0  0
 19 20  2  0  0  0
 19 21  1  0  0  0
 21 22  2  0  0  0
 22 23  1  0  0  0
 23 24  2  0  0  0
 24 25  1  0  0  0
 25 26  2  0  0  0
 26 27  1  0  0  0
 27 28  2  0  0  0
 28 29  1  0  0  0
 29 30  1  0  0  0
 30 31  2  0  0  0
  7  1  1  0  0  0
 31  8  1  0  0  0
 29  3  1  0  0  0
 14  9  1  0  0  0
 31 15  1  0  0  0
 21 16  1  0  0  0
 30 22  1  0  0  0
 28 23  1  0  0  0
 34 35  1  0  0  0
 18 32  1  0  0  0
M  END
> <minimizedAffinity>
-9.72339

> <CNNscore>
0.1909817904

> <CNNaffinity>
5.8671240807

> <CNN_VS>
1.1205139160

> <CNNaffinity_variance>
0.4630655646

$$$$
[H]c1c([H])c([H])c2c(c1[H])c1c3c(c4c5c([H])c([H])c([H])c([H])c5n5c4c1n2C1([H])O[C@@]5(C([H])([H])[H])[C@]([H])(OC([H])([H])[H])[C@]([H])(N([H])C([H])([H])[H])C1([H])[H])C([H])([H])N([H])C3=O


 37 44  0  0  0  0  0  0  0  0999 V2000
  -17.6136   17.8503  -21.7927 C   0  0  0  0  0  0  0  0  0  0  0  0
  -18.8341   17.8111  -20.9749 C   0  0  0  0  0  0  0  0  0  0  0  0
  -19.9113   16.9328  -21.5396 C   0  0  0  0  0  0  0  0  0  0  0  0
  -19.6244   16.1361  -22.5303 O   0  0  0  0  0  0  0  0  0  0  0  0
  -18.3602   15.6097  -22.7506 C   0  0  0  0  0  0  0  0  0  0  0  0
  -18.5067   15.1152  -24.2070 C   0  0  0  0  0  0  0  0  0  0  0  0
  -17.3709   16.6775  -22.7083 C   0  0  0  0  0  0  0  0  0  0  0  0
  -18.1727   14.4656  -21.8603 N   0  0  0  0  0  0  0  0  0  0  0  0
  -17.3554   13.4196  -22.0268 C   0  0  0  0  0  0  0  0  0  0  0  0
  -16.4472   13.1011  -22.9826 C   0  0  0  0  0  0  0  0  0  0  0  0
  -15.7127   11.9378  -22.9301 C   0  0  0  0  0  0  0  0  0  0  0  0
  -15.8647   11.0242  -21.8889 C   0  0  0  0  0  0  0  0  0  0  0  0
  -16.7851   11.3443  -20.9176 C   0  0  0  0  0  0  0  0  0  0  0  0
  -17.5083   12.5077  -20.9859 C   0  0  0  0  0  0  0  0  0  0  0  0
  -18.4568   13.0298  -20.1595 C   0  0  0  0  0  0  0  0  0  0  0  0
  -19.0451   12.5780  -18.9721 C   0  0  0  0  0  0  0  0  0  0  0  0
  -18.7849   11.3361  -18.2040 C   0  0  0  0  0  0  0  0  0  0  0  0
  -19.6455   11.3505  -17.0726 N   0  0  0  0  0  0  0  0  0  0  0  0
  -20.4170   12.5560  -17.1258 C   0  0  0  0  0  0  0  0  0  0  0  0
  -21.2502   12.8120  -16.2460 O   0  0  0  0  0  0  0  0  0  0  0  0
  -20.0281   13.3004  -18.3104 C   0  0  0  0  0  0  0  0  0  0  0  0
  -20.4126   14.4994  -18.8684 C   0  0  0  0  0  0  0  0  0  0  0  0
  -21.3071   15.4750  -18.5252 C   0  0  0  0  0  0  0  0  0  0  0  0
  -22.1789   15.6026  -17.4755 C   0  0  0  0  0  0  0  0  0  0  0  0
  -22.9807   16.7377  -17.3957 C   0  0  0  0  0  0  0  0  0  0  0  0
  -22.8941   17.7151  -18.3618 C   0  0  0  0  0  0  0  0  0  0  0  0
  -22.0096   17.5879  -19.4288 C   0  0  0  0  0  0  0  0  0  0  0  0
  -21.2312   16.4688  -19.4912 C   0  0  0  0  0  0  0  0  0  0  0  0
  -20.3334   16.1240  -20.3888 N   0  0  0  0  0  0  0  0  0  0  0  0
  -19.8161   14.9443  -20.0587 C   0  0  0  0  0  0  0  0  0  0  0  0
  -18.8361   14.2045  -20.7072 C   0  0  0  0  0  0  0  0  0  0  0  0
  -19.6953   10.5997  -16.3338 H   0  0  0  0  0  0  0  0  0  0  0  0
  -16.6145   17.2767  -19.6745 C   0  0  0  0  0  0  0  0  0  0  0  0
  -16.4710   18.0537  -20.8760 N   0  0  0  0  0  0  0  0  0  0  0  0
  -15.5922   17.7525  -21.3557 H   0  0  0  0  0  0  0  0  0  0  0  0
  -16.0441   16.3327  -22.4915 O   0  0  0  0  0  0  0  0  0  0  0  0
  -15.2865   16.2784  -23.6578 C   0  0  0  0  0  0  0  0  0  0  0  0
 33 34  1  0  0  0
 34  1  1  0  0  0
  1  2  1  0  0  0
  2  3  1  0  0  0
  3  4  1  0  0  0
  4  5  1  0  0  0
  5  6  1  0  0  0
  5  7  1  0  0  0
  7 36  1  0  0  0
 36 37  1  0  0  0
  5  8  1  0  0  0
  8  9  1  0  0  0
  9 10  2  0  0  0
 10 11  1  0  0  0
 11 12  2  0  0  0
 12 13  1  0  0  0
 13 14  2  0  0  0
 14 15  1  0  0  0
 15 16  2  0  0  0
 16 17  1  0  0  0
 17 18  1  0  0  0
 18 19  1  0  0  0
 19 20  2  0  0  0
 19 21  1  0  0  0
 21 22  2  0  0  0
 22 23  1  0  0  0
 23 24  2  0  0  0
 24 25  1  0  0  0
 25 26  2  0  0  0
 26 27  1  0  0  0
 27 28  2  0  0  0
 28 29  1  0  0  0
 29 30  1  0  0  0
 30 31  2  0  0  0
  7  1  1  0  0  0
 31  8  1  0  0  0
 29  3  1  0  0  0
 14  9  1  0  0  0
 31 15  1  0  0  0
 21 16  1  0  0  0
 30 22  1  0  0  0
 28 23  1  0  0  0
 34 35  1  0  0  0
 18 32  1  0  0  0
M  END
> <minimizedAffinity>
-9.36516

> <CNNscore>
0.1764452159

> <CNNaffinity>
6.1863484383

> <CNN_VS>
1.0915515423

> <CNNaffinity_variance>
0.4260458946

$$$$
[H]c1nc2sc(-c3c([H])c(C([H])([H])N(C([H])([H])[H])C([H])([H])[H])c([H])c([H])c3OC([H])([H])C([H])([H])[H])c([H])c2c(N([H])c2c([H])c([H])c3c(c([H])c([H])n3[H])c2C([H])([H])[H])c1C#N


 37 41  0  0  0  0  0  0  0  0999 V2000
  -18.7675   11.4401  -18.3271 C   0  0  0  0  0  0  0  0  0  0  0  0
  -18.5891   12.2145  -19.4152 C   0  0  0  0  0  0  0  0  0  0  0  0
  -17.6215   11.9071  -20.2966 C   0  0  0  0  0  0  0  0  0  0  0  0
  -17.2570   12.5644  -21.4897 C   0  0  0  0  0  0  0  0  0  0  0  0
  -16.2311   12.0920  -22.2614 C   0  0  0  0  0  0  0  0  0  0  0  0
  -15.4930   10.9607  -21.9353 C   0  0  0  0  0  0  0  0  0  0  0  0
  -15.8488   10.3413  -20.7956 N   0  0  0  0  0  0  0  0  0  0  0  0
  -16.8634   10.7999  -20.0227 C   0  0  0  0  0  0  0  0  0  0  0  0
  -17.5224   10.2358  -18.5611 S   0  0  0  0  0  0  0  0  0  0  0  0
  -20.3916   12.5833  -16.8603 C   0  0  0  0  0  0  0  0  0  0  0  0
  -21.2595   12.5425  -15.7539 C   0  0  0  0  0  0  0  0  0  0  0  0
  -21.4011   11.3823  -15.0011 C   0  0  0  0  0  0  0  0  0  0  0  0
  -20.6823   10.2514  -15.3402 C   0  0  0  0  0  0  0  0  0  0  0  0
  -19.8541   10.3210  -16.4120 C   0  0  0  0  0  0  0  0  0  0  0  0
  -19.6839   11.4598  -17.1897 C   0  0  0  0  0  0  0  0  0  0  0  0
  -20.3114   13.7622  -17.5476 O   0  0  0  0  0  0  0  0  0  0  0  0
  -18.3511   15.1651  -17.1228 C   0  0  0  0  0  0  0  0  0  0  0  0
  -19.8546   14.9949  -17.1330 C   0  0  0  0  0  0  0  0  0  0  0  0
  -20.8679    9.0366  -14.5062 C   0  0  0  0  0  0  0  0  0  0  0  0
  -19.7046    8.2210  -14.3820 N   0  0  0  0  0  0  0  0  0  0  0  0
  -20.1049    6.8289  -14.3666 C   0  0  0  0  0  0  0  0  0  0  0  0
  -19.1002    8.5053  -13.0937 C   0  0  0  0  0  0  0  0  0  0  0  0
  -17.9533   13.7480  -21.9271 N   0  0  0  0  0  0  0  0  0  0  0  0
  -18.6346   13.6443  -22.7005 H   0  0  0  0  0  0  0  0  0  0  0  0
  -17.7461   15.0199  -21.3522 C   0  0  0  0  0  0  0  0  0  0  0  0
  -16.4618   15.5811  -21.3402 C   0  0  0  0  0  0  0  0  0  0  0  0
  -16.2799   16.8191  -20.7765 C   0  0  0  0  0  0  0  0  0  0  0  0
  -17.3490   17.5010  -20.2289 C   0  0  0  0  0  0  0  0  0  0  0  0
  -17.4177   18.7016  -19.6326 N   0  0  0  0  0  0  0  0  0  0  0  0
  -18.7004   18.9372  -19.2583 C   0  0  0  0  0  0  0  0  0  0  0  0
  -19.4330   17.8389  -19.6426 C   0  0  0  0  0  0  0  0  0  0  0  0
  -18.6013   16.9271  -20.2536 C   0  0  0  0  0  0  0  0  0  0  0  0
  -18.8206   15.6884  -20.8101 C   0  0  0  0  0  0  0  0  0  0  0  0
  -20.1970   15.1103  -20.8116 C   0  0  0  0  0  0  0  0  0  0  0  0
  -16.6225   19.3597  -19.4745 H   0  0  0  0  0  0  0  0  0  0  0  0
  -15.9210   12.8308  -23.4763 C   0  0  0  0  0  0  0  0  0  0  0  0
  -15.6918   13.4207  -24.4618 N   0  0  0  0  0  0  0  0  0  0  0  0
 17 18  1  0  0  0
 18 16  1  0  0  0
 16 10  1  0  0  0
 10 11  2  0  0  0
 11 12  1  0  0  0
 12 13  2  0  0  0
 13 19  1  0  0  0
 19 20  1  0  0  0
 20 21  1  0  0  0
 20 22  1  0  0  0
 13 14  1  0  0  0
 14 15  2  0  0  0
 15  1  1  0  0  0
  1  2  2  0  0  0
  2  3  1  0  0  0
  3  4  2  0  0  0
  4 23  1  0  0  0
 23 25  1  0  0  0
 25 26  2  0  0  0
 26 27  1  0  0  0
 27 28  2  0  0  0
 28 29  1  0  0  0
 29 30  1  0  0  0
 30 31  2  0  0  0
 31 32  1  0  0  0
 32 33  2  0  0  0
 33 34  1  0  0  0
  4  5  1  0  0  0
  5  6  2  0  0  0
  6  7  1  0  0  0
  7  8  2  0  0  0
  8  9  1  0  0  0
  5 36  1  0  0  0
 36 37  3  0  0  0
 15 10  1  0  0  0
  9  1  1  0  0  0
  8  3  1  0  0  0
 33 25  1  0  0  0
 32 28  1  0  0  0
 23 24  1  0  0  0
 29 35  1  0  0  0
M  END
> <minimizedAffinity>
-8.63984

> <CNNscore>
0.9343720675

> <CNNaffinity>
8.0562686920

> <CNN_VS>
7.5275526047

> <CNNaffinity_variance>
0.0636690259

$$$$
[H]c1nc2sc(-c3c([H])c(C([H])([H])N(C([H])([H])[H])C([H])([H])[H])c([H])c([H])c3OC([H])([H])C([H])([H])[H])c([H])c2c(N([H])c2c([H])c([H])c3c(c([H])c([H])n3[H])c2C([H])([H])[H])c1C#N


 37 41  0  0  0  0  0  0  0  0999 V2000
  -19.1381   16.0127  -21.6859 C   0  0  0  0  0  0  0  0  0  0  0  0
  -18.4853   14.9207  -22.1299 C   0  0  0  0  0  0  0  0  0  0  0  0
  -18.1169   13.9674  -21.2563 C   0  0  0  0  0  0  0  0  0  0  0  0
  -17.4342   12.7559  -21.4901 C   0  0  0  0  0  0  0  0  0  0  0  0
  -17.1466   11.9064  -20.4572 C   0  0  0  0  0  0  0  0  0  0  0  0
  -17.4966   12.1676  -19.1381 C   0  0  0  0  0  0  0  0  0  0  0  0
  -18.1473   13.3255  -18.9261 N   0  0  0  0  0  0  0  0  0  0  0  0
  -18.4378   14.1752  -19.9412 C   0  0  0  0  0  0  0  0  0  0  0  0
  -19.2329   15.6771  -19.9732 S   0  0  0  0  0  0  0  0  0  0  0  0
  -18.9097   18.3316  -22.5025 C   0  0  0  0  0  0  0  0  0  0  0  0
  -19.4844   19.4601  -23.1150 C   0  0  0  0  0  0  0  0  0  0  0  0
  -20.8124   19.4493  -23.5266 C   0  0  0  0  0  0  0  0  0  0  0  0
  -21.5821   18.3174  -23.3340 C   0  0  0  0  0  0  0  0  0  0  0  0
  -21.0003   17.2452  -22.7413 C   0  0  0  0  0  0  0  0  0  0  0  0
  -19.6780   17.2151  -22.3157 C   0  0  0  0  0  0  0  0  0  0  0  0
  -17.5981   18.4243  -22.1288 O   0  0  0  0  0  0  0  0  0  0  0  0
  -15.9987   17.6413  -20.4494 C   0  0  0  0  0  0  0  0  0  0  0  0
  -17.0497   18.6399  -20.8826 C   0  0  0  0  0  0  0  0  0  0  0  0
  -22.9947   18.3543  -23.7909 C   0  0  0  0  0  0  0  0  0  0  0  0
  -23.1624   18.6826  -25.1686 N   0  0  0  0  0  0  0  0  0  0  0  0
  -24.3134   19.5508  -25.3092 C   0  0  0  0  0  0  0  0  0  0  0  0
  -23.4639   17.4556  -25.8824 C   0  0  0  0  0  0  0  0  0  0  0  0
  -17.0222   12.3812  -22.8193 N   0  0  0  0  0  0  0  0  0  0  0  0
  -17.2615   11.4268  -23.1434 H   0  0  0  0  0  0  0  0  0  0  0  0
  -16.3180   13.2492  -23.6805 C   0  0  0  0  0  0  0  0  0  0  0  0
  -15.1345   13.8596  -23.2434 C   0  0  0  0  0  0  0  0  0  0  0  0
  -14.4636   14.7008  -24.0953 C   0  0  0  0  0  0  0  0  0  0  0  0
  -14.9495   14.9412  -25.3656 C   0  0  0  0  0  0  0  0  0  0  0  0
  -14.4781   15.7102  -26.3597 N   0  0  0  0  0  0  0  0  0  0  0  0
  -15.3143   15.6191  -27.4243 C   0  0  0  0  0  0  0  0  0  0  0  0
  -16.3274   14.7640  -27.0600 C   0  0  0  0  0  0  0  0  0  0  0  0
  -16.1151   14.3285  -25.7709 C   0  0  0  0  0  0  0  0  0  0  0  0
  -16.8138   13.4797  -24.9441 C   0  0  0  0  0  0  0  0  0  0  0  0
  -18.0719   12.8406  -25.4311 C   0  0  0  0  0  0  0  0  0  0  0  0
  -13.6104   16.2906  -26.3340 H   0  0  0  0  0  0  0  0  0  0  0  0
  -16.4395   10.6779  -20.7868 C   0  0  0  0  0  0  0  0  0  0  0  0
  -15.8528    9.7013  -21.0584 N   0  0  0  0  0  0  0  0  0  0  0  0
 17 18  1  0  0  0
 18 16  1  0  0  0
 16 10  1  0  0  0
 10 11  2  0  0  0
 11 12  1  0  0  0
 12 13  2  0  0  0
 13 19  1  0  0  0
 19 20  1  0  0  0
 20 21  1  0  0  0
 20 22  1  0  0  0
 13 14  1  0  0  0
 14 15  2  0  0  0
 15  1  1  0  0  0
  1  2  2  0  0  0
  2  3  1  0  0  0
  3  4  2  0  0  0
  4 23  1  0  0  0
 23 25  1  0  0  0
 25 26  2  0  0  0
 26 27  1  0  0  0
 27 28  2  0  0  0
 28 29  1  0  0  0
 29 30  1  0  0  0
 30 31  2  0  0  0
 31 32  1  0  0  0
 32 33  2  0  0  0
 33 34  1  0  0  0
  4  5  1  0  0  0
  5  6  2  0  0  0
  6  7  1  0  0  0
  7  8  2  0  0  0
  8  9  1  0  0  0
  5 36  1  0  0  0
 36 37  3  0  0  0
 15 10  1  0  0  0
  9  1  1  0  0  0
  8  3  1  0  0  0
 33 25  1  0  0  0
 32 28  1  0  0  0
 23 24  1  0  0  0
 29 35  1  0  0  0
M  END
> <minimizedAffinity>
-9.76637

> <CNNscore>
0.8373222351

> <CNNaffinity>
8.1330070496

> <CNN_VS>
6.8099474907

> <CNNaffinity_variance>
0.1499753594

$$$$
[H]c1nc2sc(-c3c([H])c(C([H])([H])N(C([H])([H])[H])C([H])([H])[H])c([H])c([H])c3OC([H])([H])C([H])([H])[H])c([H])c2c(N([H])c2c([H])c([H])c3c(c([H])c([H])n3[H])c2C([H])([H])[H])c1C#N


 37 41  0  0  0  0  0  0  0  0999 V2000
  -19.0583   16.1257  -21.9620 C   0  0  0  0  0  0  0  0  0  0  0  0
  -18.1203   15.1994  -22.2410 C   0  0  0  0  0  0  0  0  0  0  0  0
  -18.0775   14.0623  -21.5250 C   0  0  0  0  0  0  0  0  0  0  0  0
  -17.1963   12.9672  -21.6377 C   0  0  0  0  0  0  0  0  0  0  0  0
  -17.3148   11.8876  -20.8061 C   0  0  0  0  0  0  0  0  0  0  0  0
  -18.2856   11.7932  -19.8165 C   0  0  0  0  0  0  0  0  0  0  0  0
  -19.1209   12.8427  -19.7175 N   0  0  0  0  0  0  0  0  0  0  0  0
  -19.0134   13.9180  -20.5355 C   0  0  0  0  0  0  0  0  0  0  0  0
  -19.9080   15.3593  -20.6407 S   0  0  0  0  0  0  0  0  0  0  0  0
  -18.5380   18.4943  -22.4258 C   0  0  0  0  0  0  0  0  0  0  0  0
  -18.9246   19.7337  -22.9677 C   0  0  0  0  0  0  0  0  0  0  0  0
  -20.1648   19.8902  -23.5762 C   0  0  0  0  0  0  0  0  0  0  0  0
  -21.0328   18.8171  -23.6527 C   0  0  0  0  0  0  0  0  0  0  0  0
  -20.6320   17.6351  -23.1219 C   0  0  0  0  0  0  0  0  0  0  0  0
  -19.4025   17.4371  -22.5057 C   0  0  0  0  0  0  0  0  0  0  0  0
  -17.3020   18.4248  -21.8462 O   0  0  0  0  0  0  0  0  0  0  0  0
  -16.0379   17.2972  -20.0793 C   0  0  0  0  0  0  0  0  0  0  0  0
  -16.9525   18.4219  -20.5128 C   0  0  0  0  0  0  0  0  0  0  0  0
  -22.3455   19.0337  -24.3125 C   0  0  0  0  0  0  0  0  0  0  0  0
  -22.9349   17.8552  -24.8582 N   0  0  0  0  0  0  0  0  0  0  0  0
  -23.6187   18.1969  -26.0886 C   0  0  0  0  0  0  0  0  0  0  0  0
  -23.9438   17.3916  -23.9240 C   0  0  0  0  0  0  0  0  0  0  0  0
  -16.1502   12.9559  -22.6289 N   0  0  0  0  0  0  0  0  0  0  0  0
  -15.2002   12.6823  -22.3193 H   0  0  0  0  0  0  0  0  0  0  0  0
  -16.3668   13.2973  -23.9808 C   0  0  0  0  0  0  0  0  0  0  0  0
  -17.3684   12.6471  -24.7145 C   0  0  0  0  0  0  0  0  0  0  0  0
  -17.5642   12.9927  -26.0282 C   0  0  0  0  0  0  0  0  0  0  0  0
  -16.7837   13.9680  -26.6174 C   0  0  0  0  0  0  0  0  0  0  0  0
  -16.7874   14.4678  -27.8633 N   0  0  0  0  0  0  0  0  0  0  0  0
  -15.8239   15.4180  -27.9618 C   0  0  0  0  0  0  0  0  0  0  0  0
  -15.2164   15.4950  -26.7308 C   0  0  0  0  0  0  0  0  0  0  0  0
  -15.8058   14.5921  -25.8742 C   0  0  0  0  0  0  0  0  0  0  0  0
  -15.5816   14.2714  -24.5554 C   0  0  0  0  0  0  0  0  0  0  0  0
  -14.5092   14.9771  -23.7935 C   0  0  0  0  0  0  0  0  0  0  0  0
  -17.4220   14.1825  -28.6419 H   0  0  0  0  0  0  0  0  0  0  0  0
  -16.3641   10.8013  -20.9908 C   0  0  0  0  0  0  0  0  0  0  0  0
  -15.5852    9.9412  -21.1496 N   0  0  0  0  0  0  0  0  0  0  0  0
 17 18  1  0  0  0
 18 16  1  0  0  0
 16 10  1  0  0  0
 10 11  2  0  0  0
 11 12  1  0  0  0
 12 13  2  0  0  0
 13 19  1  0  0  0
 19 20  1  0  0  0
 20 21  1  0  0  0
 20 22  1  0  0  0
 13 14  1  0  0  0
 14 15  2  0  0  0
 15  1  1  0  0  0
  1  2  2  0  0  0
  2  3  1  0  0  0
  3  4  2  0  0  0
  4 23  1  0  0  0
 23 25  1  0  0  0
 25 26  2  0  0  0
 26 27  1  0  0  0
 27 28  2  0  0  0
 28 29  1  0  0  0
 29 30  1  0  0  0
 30 31  2  0  0  0
 31 32  1  0  0  0
 32 33  2  0  0  0
 33 34  1  0  0  0
  4  5  1  0  0  0
  5  6  2  0  0  0
  6  7  1  0  0  0
  7  8  2  0  0  0
  8  9  1  0  0  0
  5 36  1  0  0  0
 36 37  3  0  0  0
 15 10  1  0  0  0
  9  1  1  0  0  0
  8  3  1  0  0  0
 33 25  1  0  0  0
 32 28  1  0  0  0
 23 24  1  0  0  0
 29 35  1  0  0  0
M  END
> <minimizedAffinity>
-9.65177

> <CNNscore>
0.8217241168

> <CNNaffinity>
8.0492267609

> <CNN_VS>
6.6142439842

> <CNNaffinity_variance>
0.1704947054

$$$$
[H]c1nc2sc(-c3c([H])c(C([H])([H])N(C([H])([H])[H])C([H])([H])[H])c([H])c([H])c3OC([H])([H])C([H])([H])[H])c([H])c2c(N([H])c2c([H])c([H])c3c(c([H])c([H])n3[H])c2C([H])([H])[H])c1C#N


 37 41  0  0  0  0  0  0  0  0999 V2000
  -19.0912   11.4894  -18.0057 C   0  0  0  0  0  0  0  0  0  0  0  0
  -18.8404   12.1925  -19.1274 C   0  0  0  0  0  0  0  0  0  0  0  0
  -17.8464   11.8043  -19.9452 C   0  0  0  0  0  0  0  0  0  0  0  0
  -17.4092   12.3787  -21.1566 C   0  0  0  0  0  0  0  0  0  0  0  0
  -16.3671   11.8306  -21.8527 C   0  0  0  0  0  0  0  0  0  0  0  0
  -15.6816   10.6986  -21.4291 C   0  0  0  0  0  0  0  0  0  0  0  0
  -16.1065   10.1586  -20.2728 N   0  0  0  0  0  0  0  0  0  0  0  0
  -17.1378   10.6926  -19.5741 C   0  0  0  0  0  0  0  0  0  0  0  0
  -17.8776   10.2361  -18.1137 S   0  0  0  0  0  0  0  0  0  0  0  0
  -20.4534   10.5115  -16.1935 C   0  0  0  0  0  0  0  0  0  0  0  0
  -21.3842   10.6834  -15.1527 C   0  0  0  0  0  0  0  0  0  0  0  0
  -21.8964   11.9411  -14.8547 C   0  0  0  0  0  0  0  0  0  0  0  0
  -21.4887   13.0401  -15.5874 C   0  0  0  0  0  0  0  0  0  0  0  0
  -20.5902   12.8431  -16.5840 C   0  0  0  0  0  0  0  0  0  0  0  0
  -20.0547   11.6041  -16.9137 C   0  0  0  0  0  0  0  0  0  0  0  0
  -19.9984    9.2426  -16.4205 O   0  0  0  0  0  0  0  0  0  0  0  0
  -20.8368    7.1074  -15.5666 C   0  0  0  0  0  0  0  0  0  0  0  0
  -19.7973    8.2064  -15.5340 C   0  0  0  0  0  0  0  0  0  0  0  0
  -22.0636   14.3623  -15.2310 C   0  0  0  0  0  0  0  0  0  0  0  0
  -22.0451   15.3197  -16.2879 N   0  0  0  0  0  0  0  0  0  0  0  0
  -21.2547   16.4614  -15.8754 C   0  0  0  0  0  0  0  0  0  0  0  0
  -23.4041   15.7897  -16.4830 C   0  0  0  0  0  0  0  0  0  0  0  0
  -18.0465   13.5551  -21.6923 N   0  0  0  0  0  0  0  0  0  0  0  0
  -18.6973   13.4267  -22.4880 H   0  0  0  0  0  0  0  0  0  0  0  0
  -17.8218   14.8518  -21.1833 C   0  0  0  0  0  0  0  0  0  0  0  0
  -16.5487   15.4301  -21.2799 C   0  0  0  0  0  0  0  0  0  0  0  0
  -16.3495   16.6923  -20.7790 C   0  0  0  0  0  0  0  0  0  0  0  0
  -17.3904   17.3815  -20.1882 C   0  0  0  0  0  0  0  0  0  0  0  0
  -17.4385   18.6043  -19.6365 N   0  0  0  0  0  0  0  0  0  0  0  0
  -18.6969   18.8377  -19.1864 C   0  0  0  0  0  0  0  0  0  0  0  0
  -19.4358   17.7151  -19.4769 C   0  0  0  0  0  0  0  0  0  0  0  0
  -18.6323   16.7905  -20.1059 C   0  0  0  0  0  0  0  0  0  0  0  0
  -18.8684   15.5274  -20.5970 C   0  0  0  0  0  0  0  0  0  0  0  0
  -20.2324   14.9314  -20.4831 C   0  0  0  0  0  0  0  0  0  0  0  0
  -16.6451   19.2787  -19.5584 H   0  0  0  0  0  0  0  0  0  0  0  0
  -15.9806   12.4866  -23.0930 C   0  0  0  0  0  0  0  0  0  0  0  0
  -15.6642   13.0328  -24.0795 N   0  0  0  0  0  0  0  0  0  0  0  0
 17 18  1  0  0  0
 18 16  1  0  0  0
 16 10  1  0  0  0
 10 11  2  0  0  0
 11 12  1  0  0  0
 12 13  2  0  0  0
 13 19  1  0  0  0
 19 20  1  0  0  0
 20 21  1  0  0  0
 20 22  1  0  0  0
 13 14  1  0  0  0
 14 15  2  0  0  0
 15  1  1  0  0  0
  1  2  2  0  0  0
  2  3  1  0  0  0
  3  4  2  0  0  0
  4 23  1  0  0  0
 23 25  1  0  0  0
 25 26  2  0  0  0
 26 27  1  0  0  0
 27 28  2  0  0  0
 28 29  1  0  0  0
 29 30  1  0  0  0
 30 31  2  0  0  0
 31 32  1  0  0  0
 32 33  2  0  0  0
 33 34  1  0  0  0
  4  5  1  0  0  0
  5  6  2  0  0  0
  6  7  1  0  0  0
  7  8  2  0  0  0
  8  9  1  0  0  0
  5 36  1  0  0  0
 36 37  3  0  0  0
 15 10  1  0  0  0
  9  1  1  0  0  0
  8  3  1  0  0  0
 33 25  1  0  0  0
 32 28  1  0  0  0
 23 24  1  0  0  0
 29 35  1  0  0  0
M  END
> <minimizedAffinity>
-8.56295

> <CNNscore>
0.8116427064

> <CNNaffinity>
7.8246879578

> <CNN_VS>
6.3508510590

> <CNNaffinity_variance>
0.1410709023

$$$$
[H]c1nc2sc(-c3c([H])c(C([H])([H])N(C([H])([H])[H])C([H])([H])[H])c([H])c([H])c3OC([H])([H])C([H])([H])[H])c([H])c2c(N([H])c2c([H])c([H])c3c(c([H])c([H])n3[H])c2C([H])([H])[H])c1C#N


 37 41  0  0  0  0  0  0  0  0999 V2000
  -19.7956   15.2620  -20.3552 C   0  0  0  0  0  0  0  0  0  0  0  0
  -19.1061   14.3817  -21.1070 C   0  0  0  0  0  0  0  0  0  0  0  0
  -18.3651   13.4341  -20.5064 C   0  0  0  0  0  0  0  0  0  0  0  0
  -17.5717   12.4207  -21.0825 C   0  0  0  0  0  0  0  0  0  0  0  0
  -16.8833   11.5402  -20.2939 C   0  0  0  0  0  0  0  0  0  0  0  0
  -16.9145   11.5786  -18.9052 C   0  0  0  0  0  0  0  0  0  0  0  0
  -17.6742   12.5488  -18.3659 N   0  0  0  0  0  0  0  0  0  0  0  0
  -18.3606   13.4270  -19.1369 C   0  0  0  0  0  0  0  0  0  0  0  0
  -19.3798   14.7289  -18.7433 S   0  0  0  0  0  0  0  0  0  0  0  0
  -21.7024   16.7295  -19.8013 C   0  0  0  0  0  0  0  0  0  0  0  0
  -22.5196   17.8265  -20.1300 C   0  0  0  0  0  0  0  0  0  0  0  0
  -22.2966   18.5594  -21.2901 C   0  0  0  0  0  0  0  0  0  0  0  0
  -21.2596   18.2101  -22.1347 C   0  0  0  0  0  0  0  0  0  0  0  0
  -20.4888   17.1483  -21.7911 C   0  0  0  0  0  0  0  0  0  0  0  0
  -20.6781   16.3902  -20.6422 C   0  0  0  0  0  0  0  0  0  0  0  0
  -21.9884   16.0632  -18.6425 O   0  0  0  0  0  0  0  0  0  0  0  0
  -23.6230   16.3788  -16.8480 C   0  0  0  0  0  0  0  0  0  0  0  0
  -22.2159   16.5561  -17.3754 C   0  0  0  0  0  0  0  0  0  0  0  0
  -21.0611   19.0236  -23.3613 C   0  0  0  0  0  0  0  0  0  0  0  0
  -22.2665   19.3883  -24.0307 N   0  0  0  0  0  0  0  0  0  0  0  0
  -22.7302   18.2610  -24.8134 C   0  0  0  0  0  0  0  0  0  0  0  0
  -21.9497   20.4538  -24.9635 C   0  0  0  0  0  0  0  0  0  0  0  0
  -17.4649   12.2856  -22.5134 N   0  0  0  0  0  0  0  0  0  0  0  0
  -17.9522   11.4860  -22.9565 H   0  0  0  0  0  0  0  0  0  0  0  0
  -16.7349   13.1849  -23.3193 C   0  0  0  0  0  0  0  0  0  0  0  0
  -15.6683   13.9091  -22.7696 C   0  0  0  0  0  0  0  0  0  0  0  0
  -14.9702   14.7792  -23.5691 C   0  0  0  0  0  0  0  0  0  0  0  0
  -15.3155   14.9375  -24.8970 C   0  0  0  0  0  0  0  0  0  0  0  0
  -14.7914   15.7139  -25.8584 N   0  0  0  0  0  0  0  0  0  0  0  0
  -15.4808   15.5180  -27.0104 C   0  0  0  0  0  0  0  0  0  0  0  0
  -16.4567   14.5894  -26.7348 C   0  0  0  0  0  0  0  0  0  0  0  0
  -16.3681   14.2136  -25.4129 C   0  0  0  0  0  0  0  0  0  0  0  0
  -17.0900   13.3328  -24.6413 C   0  0  0  0  0  0  0  0  0  0  0  0
  -18.2220   12.5721  -25.2482 C   0  0  0  0  0  0  0  0  0  0  0  0
  -13.9843   16.3681  -25.7532 H   0  0  0  0  0  0  0  0  0  0  0  0
  -16.0890   10.5257  -20.9704 C   0  0  0  0  0  0  0  0  0  0  0  0
  -15.4684    9.6989  -21.5208 N   0  0  0  0  0  0  0  0  0  0  0  0
 17 18  1  0  0  0
 18 16  1  0  0  0
 16 10  1  0  0  0
 10 11  2  0  0  0
 11 12  1  0  0  0
 12 13  2  0  0  0
 13 19  1  0  0  0
 19 20  1  0  0  0
 20 21  1  0  0  0
 20 22  1  0  0  0
 13 14  1  0  0  0
 14 15  2  0  0  0
 15  1  1  0  0  0
  1  2  2  0  0  0
  2  3  1  0  0  0
  3  4  2  0  0  0
  4 23  1  0  0  0
 23 25  1  0  0  0
 25 26  2  0  0  0
 26 27  1  0  0  0
 27 28  2  0  0  0
 28 29  1  0  0  0
 29 30  1  0  0  0
 30 31  2  0  0  0
 31 32  1  0  0  0
 32 33  2  0  0  0
 33 34  1  0  0  0
  4  5  1  0  0  0
  5  6  2  0  0  0
  6  7  1  0  0  0
  7  8  2  0  0  0
  8  9  1  0  0  0
  5 36  1  0  0  0
 36 37  3  0  0  0
 15 10  1  0  0  0
  9  1  1  0  0  0
  8  3  1  0  0  0
 33 25  1  0  0  0
 32 28  1  0  0  0
 23 24  1  0  0  0
 29 35  1  0  0  0
M  END
> <minimizedAffinity>
-8.35570

> <CNNscore>
0.7671268582

> <CNNaffinity>
7.9798879623

> <CNN_VS>
6.1215863228

> <CNNaffinity_variance>
0.0930651426

$$$$
[H]c1nc2sc(-c3c([H])c(C([H])([H])N(C([H])([H])[H])C([H])([H])[H])c([H])c([H])c3OC([H])([H])C([H])([H])[H])c([H])c2c(N([H])c2c([H])c([H])c3c(c([H])c([H])n3[H])c2C([H])([H])[H])c1C#N


 37 41  0  0  0  0  0  0  0  0999 V2000
  -19.2705   15.8182  -21.1774 C   0  0  0  0  0  0  0  0  0  0  0  0
  -18.6287   14.7755  -21.7401 C   0  0  0  0  0  0  0  0  0  0  0  0
  -18.1512   13.7909  -20.9590 C   0  0  0  0  0  0  0  0  0  0  0  0
  -17.4564   12.6188  -21.3222 C   0  0  0  0  0  0  0  0  0  0  0  0
  -17.0476   11.7264  -20.3695 C   0  0  0  0  0  0  0  0  0  0  0  0
  -17.2808   11.9042  -19.0113 C   0  0  0  0  0  0  0  0  0  0  0  0
  -17.9442   13.0250  -18.6757 N   0  0  0  0  0  0  0  0  0  0  0  0
  -18.3542   13.9167  -19.6105 C   0  0  0  0  0  0  0  0  0  0  0  0
  -19.1947   15.3886  -19.4848 S   0  0  0  0  0  0  0  0  0  0  0  0
  -19.6520   17.4953  -22.9489 C   0  0  0  0  0  0  0  0  0  0  0  0
  -20.2912   18.6704  -23.3842 C   0  0  0  0  0  0  0  0  0  0  0  0
  -21.1662   19.3570  -22.5501 C   0  0  0  0  0  0  0  0  0  0  0  0
  -21.4149   18.8829  -21.2757 C   0  0  0  0  0  0  0  0  0  0  0  0
  -20.7844   17.7477  -20.8845 C   0  0  0  0  0  0  0  0  0  0  0  0
  -19.9035   17.0323  -21.6864 C   0  0  0  0  0  0  0  0  0  0  0  0
  -18.8078   16.8805  -23.8309 O   0  0  0  0  0  0  0  0  0  0  0  0
  -16.4770   17.2878  -23.2044 C   0  0  0  0  0  0  0  0  0  0  0  0
  -17.5561   17.2615  -24.2647 C   0  0  0  0  0  0  0  0  0  0  0  0
  -22.3574   19.6508  -20.4226 C   0  0  0  0  0  0  0  0  0  0  0  0
  -23.1736   18.8481  -19.5721 N   0  0  0  0  0  0  0  0  0  0  0  0
  -24.2910   18.3355  -20.3383 C   0  0  0  0  0  0  0  0  0  0  0  0
  -23.7225   19.7109  -18.5424 C   0  0  0  0  0  0  0  0  0  0  0  0
  -17.1589   12.3304  -22.7025 N   0  0  0  0  0  0  0  0  0  0  0  0
  -17.5743   11.4749  -23.1131 H   0  0  0  0  0  0  0  0  0  0  0  0
  -16.3380   13.1542  -23.5016 C   0  0  0  0  0  0  0  0  0  0  0  0
  -15.0792   13.5532  -23.0321 C   0  0  0  0  0  0  0  0  0  0  0  0
  -14.2950   14.3546  -23.8235 C   0  0  0  0  0  0  0  0  0  0  0  0
  -14.7421   14.7613  -25.0655 C   0  0  0  0  0  0  0  0  0  0  0  0
  -14.1659   15.5312  -26.0020 N   0  0  0  0  0  0  0  0  0  0  0  0
  -15.0069   15.6446  -27.0607 C   0  0  0  0  0  0  0  0  0  0  0  0
  -16.1319   14.9167  -26.7523 C   0  0  0  0  0  0  0  0  0  0  0  0
  -15.9835   14.3551  -25.5037 C   0  0  0  0  0  0  0  0  0  0  0  0
  -16.7962   13.5521  -24.7374 C   0  0  0  0  0  0  0  0  0  0  0  0
  -18.1331   13.1395  -25.2581 C   0  0  0  0  0  0  0  0  0  0  0  0
  -13.2240   15.9780  -25.9413 H   0  0  0  0  0  0  0  0  0  0  0  0
  -16.3368   10.5433  -20.8312 C   0  0  0  0  0  0  0  0  0  0  0  0
  -15.7563    9.6031  -21.2195 N   0  0  0  0  0  0  0  0  0  0  0  0
 17 18  1  0  0  0
 18 16  1  0  0  0
 16 10  1  0  0  0
 10 11  2  0  0  0
 11 12  1  0  0  0
 12 13  2  0  0  0
 13 19  1  0  0  0
 19 20  1  0  0  0
 20 21  1  0  0  0
 20 22  1  0  0  0
 13 14  1  0  0  0
 14 15  2  0  0  0
 15  1  1  0  0  0
  1  2  2  0  0  0
  2  3  1  0  0  0
  3  4  2  0  0  0
  4 23  1  0  0  0
 23 25  1  0  0  0
 25 26  2  0  0  0
 26 27  1  0  0  0
 27 28  2  0  0  0
 28 29  1  0  0  0
 29 30  1  0  0  0
 30 31  2  0  0  0
 31 32  1  0  0  0
 32 33  2  0  0  0
 33 34  1  0  0  0
  4  5  1  0  0  0
  5  6  2  0  0  0
  6  7  1  0  0  0
  7  8  2  0  0  0
  8  9  1  0  0  0
  5 36  1  0  0  0
 36 37  3  0  0  0
 15 10  1  0  0  0
  9  1  1  0  0  0
  8  3  1  0  0  0
 33 25  1  0  0  0
 32 28  1  0  0  0
 23 24  1  0  0  0
 29 35  1  0  0  0
M  END
> <minimizedAffinity>
-8.90818

> <CNNscore>
0.7489936948

> <CNNaffinity>
7.9390501976

> <CNN_VS>
5.9462985992

> <CNNaffinity_variance>
0.1485526860

$$$$
[H]c1nc2sc(-c3c([H])c(C([H])([H])N(C([H])([H])[H])C([H])([H])[H])c([H])c([H])c3OC([H])([H])C([H])([H])[H])c([H])c2c(N([H])c2c([H])c([H])c3c(c([H])c([H])n3[H])c2C([H])([H])[H])c1C#N


 37 41  0  0  0  0  0  0  0  0999 V2000
  -17.7676   13.6846  -21.7922 C   0  0  0  0  0  0  0  0  0  0  0  0
  -18.5008   13.5783  -20.6667 C   0  0  0  0  0  0  0  0  0  0  0  0
  -18.3828   12.4806  -19.8995 C   0  0  0  0  0  0  0  0  0  0  0  0
  -19.0406   12.1565  -18.6950 C   0  0  0  0  0  0  0  0  0  0  0  0
  -18.7825   10.9756  -18.0548 C   0  0  0  0  0  0  0  0  0  0  0  0
  -17.8779   10.0345  -18.5310 C   0  0  0  0  0  0  0  0  0  0  0  0
  -17.2560   10.3533  -19.6802 N   0  0  0  0  0  0  0  0  0  0  0  0
  -17.5035   11.5202  -20.3238 C   0  0  0  0  0  0  0  0  0  0  0  0
  -16.8813   12.1783  -21.7620 S   0  0  0  0  0  0  0  0  0  0  0  0
  -17.9165   16.0106  -22.6068 C   0  0  0  0  0  0  0  0  0  0  0  0
  -17.7680   16.9365  -23.6555 C   0  0  0  0  0  0  0  0  0  0  0  0
  -17.3405   16.5267  -24.9133 C   0  0  0  0  0  0  0  0  0  0  0  0
  -17.0561   15.1934  -25.1416 C   0  0  0  0  0  0  0  0  0  0  0  0
  -17.2083   14.3246  -24.1113 C   0  0  0  0  0  0  0  0  0  0  0  0
  -17.6328   14.6929  -22.8406 C   0  0  0  0  0  0  0  0  0  0  0  0
  -18.3402   16.4958  -21.4011 O   0  0  0  0  0  0  0  0  0  0  0  0
  -16.4508   17.1017  -19.9678 C   0  0  0  0  0  0  0  0  0  0  0  0
  -17.7800   17.4627  -20.5940 C   0  0  0  0  0  0  0  0  0  0  0  0
  -16.6024   14.8047  -26.5013 C   0  0  0  0  0  0  0  0  0  0  0  0
  -15.6948   15.7230  -27.1070 N   0  0  0  0  0  0  0  0  0  0  0  0
  -15.5414   15.3801  -28.5060 C   0  0  0  0  0  0  0  0  0  0  0  0
  -14.3988   15.5436  -26.4792 C   0  0  0  0  0  0  0  0  0  0  0  0
  -19.9996   13.0579  -18.1078 N   0  0  0  0  0  0  0  0  0  0  0  0
  -20.9449   12.6856  -17.9052 H   0  0  0  0  0  0  0  0  0  0  0  0
  -19.7054   14.4041  -17.8039 C   0  0  0  0  0  0  0  0  0  0  0  0
  -18.6465   14.7102  -16.9383 C   0  0  0  0  0  0  0  0  0  0  0  0
  -18.3755   16.0254  -16.6545 C   0  0  0  0  0  0  0  0  0  0  0  0
  -19.1370   17.0320  -17.2154 C   0  0  0  0  0  0  0  0  0  0  0  0
  -19.0651   18.3665  -17.0906 N   0  0  0  0  0  0  0  0  0  0  0  0
  -20.0395   18.9347  -17.8446 C   0  0  0  0  0  0  0  0  0  0  0  0
  -20.7248   17.9059  -18.4466 C   0  0  0  0  0  0  0  0  0  0  0  0
  -20.1723   16.7042  -18.0633 C   0  0  0  0  0  0  0  0  0  0  0  0
  -20.4725   15.3973  -18.3701 C   0  0  0  0  0  0  0  0  0  0  0  0
  -21.6048   15.0948  -19.2947 C   0  0  0  0  0  0  0  0  0  0  0  0
  -18.3770   18.8971  -16.5114 H   0  0  0  0  0  0  0  0  0  0  0  0
  -19.5052   10.7208  -16.8176 C   0  0  0  0  0  0  0  0  0  0  0  0
  -20.0704   10.5255  -15.8106 N   0  0  0  0  0  0  0  0  0  0  0  0
 17 18  1  0  0  0
 18 16  1  0  0  0
 16 10  1  0  0  0
 10 11  2  0  0  0
 11 12  1  0  0  0
 12 13  2  0  0  0
 13 19  1  0  0  0
 19 20  1  0  0  0
 20 21  1  0  0  0
 20 22  1  0  0  0
 13 14  1  0  0  0
 14 15  2  0  0  0
 15  1  1  0  0  0
  1  2  2  0  0  0
  2  3  1  0  0  0
  3  4  2  0  0  0
  4 23  1  0  0  0
 23 25  1  0  0  0
 25 26  2  0  0  0
 26 27  1  0  0  0
 27 28  2  0  0  0
 28 29  1  0  0  0
 29 30  1  0  0  0
 30 31  2  0  0  0
 31 32  1  0  0  0
 32 33  2  0  0  0
 33 34  1  0  0  0
  4  5  1  0  0  0
  5  6  2  0  0  0
  6  7  1  0  0  0
  7  8  2  0  0  0
  8  9  1  0  0  0
  5 36  1  0  0  0
 36 37  3  0  0  0
 15 10  1  0  0  0
  9  1  1  0  0  0
  8  3  1  0  0  0
 33 25  1  0  0  0
 32 28  1  0  0  0
 23 24  1  0  0  0
 29 35  1  0  0  0
M  END
> <minimizedAffinity>
-8.11914

> <CNNscore>
0.7450115681

> <CNNaffinity>
8.0468721390

> <CNN_VS>
5.9950127602

> <CNNaffinity_variance>
0.1107616648

$$$$
[H]c1nc2sc(-c3c([H])c(C([H])([H])N(C([H])([H])[H])C([H])([H])[H])c([H])c([H])c3OC([H])([H])C([H])([H])[H])c([H])c2c(N([H])c2c([H])c([H])c3c(c([H])c([H])n3[H])c2C([H])([H])[H])c1C#N


 37 41  0  0  0  0  0  0  0  0999 V2000
  -20.2233   14.6348  -19.1633 C   0  0  0  0  0  0  0  0  0  0  0  0
  -19.5155   13.9653  -20.0941 C   0  0  0  0  0  0  0  0  0  0  0  0
  -18.6057   13.0542  -19.7070 C   0  0  0  0  0  0  0  0  0  0  0  0
  -17.7606   12.2444  -20.4934 C   0  0  0  0  0  0  0  0  0  0  0  0
  -16.8911   11.3666  -19.9065 C   0  0  0  0  0  0  0  0  0  0  0  0
  -16.7798   11.2126  -18.5300 C   0  0  0  0  0  0  0  0  0  0  0  0
  -17.5902   11.9895  -17.7892 N   0  0  0  0  0  0  0  0  0  0  0  0
  -18.4557   12.8629  -18.3592 C   0  0  0  0  0  0  0  0  0  0  0  0
  -19.5779   13.9501  -17.6903 S   0  0  0  0  0  0  0  0  0  0  0  0
  -21.9301   16.0469  -18.0729 C   0  0  0  0  0  0  0  0  0  0  0  0
  -22.9202   17.0414  -18.1722 C   0  0  0  0  0  0  0  0  0  0  0  0
  -23.2208   17.6285  -19.3960 C   0  0  0  0  0  0  0  0  0  0  0  0
  -22.5408   17.2338  -20.5329 C   0  0  0  0  0  0  0  0  0  0  0  0
  -21.5917   16.2733  -20.4057 C   0  0  0  0  0  0  0  0  0  0  0  0
  -21.2614   15.6618  -19.2025 C   0  0  0  0  0  0  0  0  0  0  0  0
  -21.6950   15.5218  -16.8329 O   0  0  0  0  0  0  0  0  0  0  0  0
  -22.4862   14.1484  -14.9677 C   0  0  0  0  0  0  0  0  0  0  0  0
  -22.5233   15.4530  -15.7332 C   0  0  0  0  0  0  0  0  0  0  0  0
  -22.8972   17.8905  -21.8164 C   0  0  0  0  0  0  0  0  0  0  0  0
  -21.7807   18.3463  -22.5776 N   0  0  0  0  0  0  0  0  0  0  0  0
  -21.4794   19.7121  -22.2003 C   0  0  0  0  0  0  0  0  0  0  0  0
  -22.1756   18.3667  -23.9738 C   0  0  0  0  0  0  0  0  0  0  0  0
  -17.7901   12.3194  -21.9324 N   0  0  0  0  0  0  0  0  0  0  0  0
  -18.4914   11.7398  -22.4277 H   0  0  0  0  0  0  0  0  0  0  0  0
  -16.9157   13.1376  -22.6787 C   0  0  0  0  0  0  0  0  0  0  0  0
  -15.6548   12.6540  -23.0539 C   0  0  0  0  0  0  0  0  0  0  0  0
  -14.8181   13.4645  -23.7796 C   0  0  0  0  0  0  0  0  0  0  0  0
  -15.2150   14.7390  -24.1344 C   0  0  0  0  0  0  0  0  0  0  0  0
  -14.5835   15.6986  -24.8288 N   0  0  0  0  0  0  0  0  0  0  0  0
  -15.3907   16.7856  -24.9163 C   0  0  0  0  0  0  0  0  0  0  0  0
  -16.5519   16.4711  -24.2506 C   0  0  0  0  0  0  0  0  0  0  0  0
  -16.4597   15.1903  -23.7532 C   0  0  0  0  0  0  0  0  0  0  0  0
  -17.3242   14.4058  -23.0256 C   0  0  0  0  0  0  0  0  0  0  0  0
  -18.6623   14.9418  -22.6372 C   0  0  0  0  0  0  0  0  0  0  0  0
  -13.6264   15.6348  -25.2414 H   0  0  0  0  0  0  0  0  0  0  0  0
  -16.0555   10.5694  -20.7920 C   0  0  0  0  0  0  0  0  0  0  0  0
  -15.3660    9.9415  -21.5005 N   0  0  0  0  0  0  0  0  0  0  0  0
 17 18  1  0  0  0
 18 16  1  0  0  0
 16 10  1  0  0  0
 10 11  2  0  0  0
 11 12  1  0  0  0
 12 13  2  0  0  0
 13 19  1  0  0  0
 19 20  1  0  0  0
 20 21  1  0  0  0
 20 22  1  0  0  0
 13 14  1  0  0  0
 14 15  2  0  0  0
 15  1  1  0  0  0
  1  2  2  0  0  0
  2  3  1  0  0  0
  3  4  2  0  0  0
  4 23  1  0  0  0
 23 25  1  0  0  0
 25 26  2  0  0  0
 26 27  1  0  0  0
 27 28  2  0  0  0
 28 29  1  0  0  0
 29 30  1  0  0  0
 30 31  2  0  0  0
 31 32  1  0  0  0
 32 33  2  0  0  0
 33 34  1  0  0  0
  4  5  1  0  0  0
  5  6  2  0  0  0
  6  7  1  0  0  0
  7  8  2  0  0  0
  8  9  1  0  0  0
  5 36  1  0  0  0
 36 37  3  0  0  0
 15 10  1  0  0  0
  9  1  1  0  0  0
  8  3  1  0  0  0
 33 25  1  0  0  0
 32 28  1  0  0  0
 23 24  1  0  0  0
 29 35  1  0  0  0
M  END
> <minimizedAffinity>
-7.85845

> <CNNscore>
0.6793777347

> <CNNaffinity>
7.6843376160

> <CNN_VS>
5.2205677032

> <CNNaffinity_variance>
0.0729607940

$$$$
[H]c1nc2sc(-c3c([H])c(C([H])([H])N(C([H])([H])[H])C([H])([H])[H])c([H])c([H])c3OC([H])([H])C([H])([H])[H])c([H])c2c(N([H])c2c([H])c([H])c3c(c([H])c([H])n3[H])c2C([H])([H])[H])c1C#N


 37 41  0  0  0  0  0  0  0  0999 V2000
  -17.4851   14.1461  -21.9951 C   0  0  0  0  0  0  0  0  0  0  0  0
  -18.1712   13.8647  -20.8701 C   0  0  0  0  0  0  0  0  0  0  0  0
  -18.0128   12.6678  -20.2785 C   0  0  0  0  0  0  0  0  0  0  0  0
  -18.6184   12.1605  -19.1105 C   0  0  0  0  0  0  0  0  0  0  0  0
  -18.3244   10.9021  -18.6621 C   0  0  0  0  0  0  0  0  0  0  0  0
  -17.4316   10.0546  -19.3067 C   0  0  0  0  0  0  0  0  0  0  0  0
  -16.8595   10.5481  -20.4195 N   0  0  0  0  0  0  0  0  0  0  0  0
  -17.1429   11.7933  -20.8737 C   0  0  0  0  0  0  0  0  0  0  0  0
  -16.5852   12.6649  -22.2219 S   0  0  0  0  0  0  0  0  0  0  0  0
  -16.8332   15.2048  -24.1283 C   0  0  0  0  0  0  0  0  0  0  0  0
  -16.7813   16.3499  -24.9439 C   0  0  0  0  0  0  0  0  0  0  0  0
  -17.2970   17.5633  -24.5029 C   0  0  0  0  0  0  0  0  0  0  0  0
  -17.8695   17.6510  -23.2478 C   0  0  0  0  0  0  0  0  0  0  0  0
  -17.9053   16.5303  -22.4848 C   0  0  0  0  0  0  0  0  0  0  0  0
  -17.4016   15.2996  -22.8875 C   0  0  0  0  0  0  0  0  0  0  0  0
  -16.3050   14.0514  -24.6374 O   0  0  0  0  0  0  0  0  0  0  0  0
  -17.9448   12.5902  -25.7180 C   0  0  0  0  0  0  0  0  0  0  0  0
  -16.6416   13.3566  -25.7795 C   0  0  0  0  0  0  0  0  0  0  0  0
  -18.4068   18.9684  -22.8220 C   0  0  0  0  0  0  0  0  0  0  0  0
  -19.3540   19.5399  -23.7220 N   0  0  0  0  0  0  0  0  0  0  0  0
  -19.4517   20.9617  -23.4628 C   0  0  0  0  0  0  0  0  0  0  0  0
  -20.6515   18.9619  -23.4247 C   0  0  0  0  0  0  0  0  0  0  0  0
  -19.5607   12.9516  -18.3600 N   0  0  0  0  0  0  0  0  0  0  0  0
  -19.8972   12.5677  -17.4586 H   0  0  0  0  0  0  0  0  0  0  0  0
  -20.0340   14.2065  -18.7984 C   0  0  0  0  0  0  0  0  0  0  0  0
  -21.0955   14.2737  -19.7111 C   0  0  0  0  0  0  0  0  0  0  0  0
  -21.5419   15.5034  -20.1260 C   0  0  0  0  0  0  0  0  0  0  0  0
  -20.9519   16.6577  -19.6496 C   0  0  0  0  0  0  0  0  0  0  0  0
  -21.2096   17.9503  -19.9041 N   0  0  0  0  0  0  0  0  0  0  0  0
  -20.3528   18.7217  -19.1887 C   0  0  0  0  0  0  0  0  0  0  0  0
  -19.5484   17.8638  -18.4762 C   0  0  0  0  0  0  0  0  0  0  0  0
  -19.9100   16.5642  -18.7529 C   0  0  0  0  0  0  0  0  0  0  0  0
  -19.4366   15.3490  -18.3153 C   0  0  0  0  0  0  0  0  0  0  0  0
  -18.3050   15.3016  -17.3428 C   0  0  0  0  0  0  0  0  0  0  0  0
  -21.9462   18.3190  -20.5458 H   0  0  0  0  0  0  0  0  0  0  0  0
  -18.9942   10.4574  -17.4490 C   0  0  0  0  0  0  0  0  0  0  0  0
  -19.5522   10.1087  -16.4802 N   0  0  0  0  0  0  0  0  0  0  0  0
 17 18  1  0  0  0
 18 16  1  0  0  0
 16 10  1  0  0  0
 10 11  2  0  0  0
 11 12  1  0  0  0
 12 13  2  0  0  0
 13 19  1  0  0  0
 19 20  1  0  0  0
 20 21  1  0  0  0
 20 22  1  0  0  0
 13 14  1  0  0  0
 14 15  2  0  0  0
 15  1  1  0  0  0
  1  2  2  0  0  0
  2  3  1  0  0  0
  3  4  2  0  0  0
  4 23  1  0  0  0
 23 25  1  0  0  0
 25 26  2  0  0  0
 26 27  1  0  0  0
 27 28  2  0  0  0
 28 29  1  0  0  0
 29 30  1  0  0  0
 30 31  2  0  0  0
 31 32  1  0  0  0
 32 33  2  0  0  0
 33 34  1  0  0  0
  4  5  1  0  0  0
  5  6  2  0  0  0
  6  7  1  0  0  0
  7  8  2  0  0  0
  8  9  1  0  0  0
  5 36  1  0  0  0
 36 37  3  0  0  0
 15 10  1  0  0  0
  9  1  1  0  0  0
  8  3  1  0  0  0
 33 25  1  0  0  0
 32 28  1  0  0  0
 23 24  1  0  0  0
 29 35  1  0  0  0
M  END
> <minimizedAffinity>
-8.26439

> <CNNscore>
0.6053892970

> <CNNaffinity>
7.7839379311

> <CNN_VS>
4.7123126984

> <CNNaffinity_variance>
0.1025866047

$$$$
[H]c1nc2c(c([H])c1N([H])C([H])([H])c1c([H])c(N([H])C(=O)c3c([H])c(-n4c([H])nc(C([H])([H])[H])c4[H])c([H])c(C(F)(F)F)c3[H])c([H])c([H])c1C([H])([H])[H])c([H])c(C(=O)OC([H])([H])[H])n2[H]


 44 48  0  0  0  0  0  0  0  0999 V2000
  -15.8714   14.7039  -23.8124 C   0  0  0  0  0  0  0  0  0  0  0  0
  -17.1091   15.1920  -23.4944 C   0  0  0  0  0  0  0  0  0  0  0  0
  -17.6210   16.3419  -24.0488 C   0  0  0  0  0  0  0  0  0  0  0  0
  -16.7812   17.0104  -24.9781 C   0  0  0  0  0  0  0  0  0  0  0  0
  -15.5600   16.5623  -25.3112 C   0  0  0  0  0  0  0  0  0  0  0  0
  -15.0786   15.4368  -24.7653 C   0  0  0  0  0  0  0  0  0  0  0  0
  -13.7476   14.8847  -25.1345 C   0  0  0  0  0  0  0  0  0  0  0  0
  -18.8766   16.8606  -23.7900 N   0  0  0  0  0  0  0  0  0  0  0  0
  -19.4247   17.5660  -22.7034 C   0  0  0  0  0  0  0  0  0  0  0  0
  -18.7865   17.8903  -21.6695 O   0  0  0  0  0  0  0  0  0  0  0  0
  -19.5932   16.6953  -24.6104 H   0  0  0  0  0  0  0  0  0  0  0  0
  -20.8563   17.9725  -22.7434 C   0  0  0  0  0  0  0  0  0  0  0  0
  -21.5670   18.1773  -21.6033 C   0  0  0  0  0  0  0  0  0  0  0  0
  -22.8894   18.5444  -21.6621 C   0  0  0  0  0  0  0  0  0  0  0  0
  -23.4512   18.6923  -22.9361 C   0  0  0  0  0  0  0  0  0  0  0  0
  -22.7642   18.4907  -24.0935 C   0  0  0  0  0  0  0  0  0  0  0  0
  -21.4385   18.1235  -23.9944 C   0  0  0  0  0  0  0  0  0  0  0  0
  -23.7497   18.7264  -20.5541 N   0  0  0  0  0  0  0  0  0  0  0  0
  -24.4254   19.8068  -20.2129 C   0  0  0  0  0  0  0  0  0  0  0  0
  -25.0934   19.6014  -19.0411 N   0  0  0  0  0  0  0  0  0  0  0  0
  -24.8372   18.3397  -18.6189 C   0  0  0  0  0  0  0  0  0  0  0  0
  -25.3701   17.7030  -17.3671 C   0  0  0  0  0  0  0  0  0  0  0  0
  -24.0010   17.8232  -19.5788 C   0  0  0  0  0  0  0  0  0  0  0  0
  -23.3555   18.6261  -25.4465 C   0  0  0  0  0  0  0  0  0  0  0  0
  -23.3432   17.4039  -26.0859 F   0  0  0  0  0  0  0  0  0  0  0  0
  -22.5937   19.5174  -26.2195 F   0  0  0  0  0  0  0  0  0  0  0  0
  -24.6586   19.1029  -25.3952 F   0  0  0  0  0  0  0  0  0  0  0  0
  -15.2334   13.5357  -23.2993 C   0  0  0  0  0  0  0  0  0  0  0  0
  -15.7196   12.2227  -23.4365 N   0  0  0  0  0  0  0  0  0  0  0  0
  -15.8123   11.6741  -24.2931 H   0  0  0  0  0  0  0  0  0  0  0  0
  -18.5193   11.1103  -18.2693 C   0  0  0  0  0  0  0  0  0  0  0  0
  -18.6298   11.9346  -19.3830 C   0  0  0  0  0  0  0  0  0  0  0  0
  -17.6076   11.5955  -20.2291 C   0  0  0  0  0  0  0  0  0  0  0  0
  -17.2025   12.0956  -21.4725 C   0  0  0  0  0  0  0  0  0  0  0  0
  -16.1201   11.6193  -22.1453 C   0  0  0  0  0  0  0  0  0  0  0  0
  -15.4141   10.6041  -21.5600 C   0  0  0  0  0  0  0  0  0  0  0  0
  -15.7714   10.0768  -20.3422 N   0  0  0  0  0  0  0  0  0  0  0  0
  -16.8612   10.5765  -19.6837 C   0  0  0  0  0  0  0  0  0  0  0  0
  -17.4586   10.3221  -18.4899 N   0  0  0  0  0  0  0  0  0  0  0  0
  -17.1404    9.5912  -17.8057 H   0  0  0  0  0  0  0  0  0  0  0  0
  -19.4113   11.1622  -17.0897 C   0  0  0  0  0  0  0  0  0  0  0  0
  -19.9879   10.1169  -16.7269 O   0  0  0  0  0  0  0  0  0  0  0  0
  -19.0473   13.5697  -16.7273 C   0  0  0  0  0  0  0  0  0  0  0  0
  -19.5929   12.3294  -16.3946 O   0  0  0  0  0  0  0  0  0  0  0  0
 43 44  1  0  0  0
 44 41  1  0  0  0
 41 42  2  0  0  0
 41 31  1  0  0  0
 31 32  2  0  0  0
 32 33  1  0  0  0
 33 34  2  0  0  0
 34 35  1  0  0  0
 35 29  1  0  0  0
 29 28  1  0  0  0
 28  1  1  0  0  0
  1  2  2  0  0  0
  2  3  1  0  0  0
  3  8  1  0  0  0
  8  9  1  0  0  0
  9 10  2  0  0  0
  9 12  1  0  0  0
 12 13  2  0  0  0
 13 14  1  0  0  0
 14 15  2  0  0  0
 15 16  1  0  0  0
 16 17  2  0  0  0
 16 24  1  0  0  0
 24 25  1  0  0  0
 24 26  1  0  0  0
 24 27  1  0  0  0
 14 18  1  0  0  0
 18 19  1  0  0  0
 19 20  2  0  0  0
 20 21  1  0  0  0
 21 22  1  0  0  0
 21 23  2  0  0  0
  3  4  2  0  0  0
  4  5  1  0  0  0
  5  6  2  0  0  0
  6  7  1  0  0  0
 35 36  2  0  0  0
 36 37  1  0  0  0
 37 38  2  0  0  0
 38 39  1  0  0  0
 39 31  1  0  0  0
 38 33  1  0  0  0
  6  1  1  0  0  0
 17 12  1  0  0  0
 23 18  1  0  0  0
 29 30  1  0  0  0
  8 11  1  0  0  0
 39 40  1  0  0  0
M  END
> <minimizedAffinity>
-9.80533

> <CNNscore>
0.7700044513

> <CNNaffinity>
7.9153223038

> <CNN_VS>
6.0948333740

> <CNNaffinity_variance>
0.0259311907

$$$$
[H]c1nc2c(c([H])c1N([H])C([H])([H])c1c([H])c(N([H])C(=O)c3c([H])c(-n4c([H])nc(C([H])([H])[H])c4[H])c([H])c(C(F)(F)F)c3[H])c([H])c([H])c1C([H])([H])[H])c([H])c(C(=O)OC([H])([H])[H])n2[H]


 44 48  0  0  0  0  0  0  0  0999 V2000
  -19.7540   18.7219  -17.7946 C   0  0  0  0  0  0  0  0  0  0  0  0
  -19.2895   17.8713  -18.7600 C   0  0  0  0  0  0  0  0  0  0  0  0
  -18.8447   16.6001  -18.4810 C   0  0  0  0  0  0  0  0  0  0  0  0
  -18.8870   16.2132  -17.1156 C   0  0  0  0  0  0  0  0  0  0  0  0
  -19.3331   17.0226  -16.1417 C   0  0  0  0  0  0  0  0  0  0  0  0
  -19.7680   18.2567  -16.4319 C   0  0  0  0  0  0  0  0  0  0  0  0
  -20.3058   19.1717  -15.3895 C   0  0  0  0  0  0  0  0  0  0  0  0
  -18.3981   15.6884  -19.4201 N   0  0  0  0  0  0  0  0  0  0  0  0
  -19.0479   14.7370  -20.2272 C   0  0  0  0  0  0  0  0  0  0  0  0
  -20.2901   14.5416  -20.2388 O   0  0  0  0  0  0  0  0  0  0  0  0
  -17.3078   15.7218  -19.5750 H   0  0  0  0  0  0  0  0  0  0  0  0
  -18.2422   13.8830  -21.1427 C   0  0  0  0  0  0  0  0  0  0  0  0
  -18.0959   14.1949  -22.4574 C   0  0  0  0  0  0  0  0  0  0  0  0
  -17.3547   13.3893  -23.2871 C   0  0  0  0  0  0  0  0  0  0  0  0
  -16.7711   12.2530  -22.7136 C   0  0  0  0  0  0  0  0  0  0  0  0
  -16.9037   11.9153  -21.4019 C   0  0  0  0  0  0  0  0  0  0  0  0
  -17.6548   12.7486  -20.5999 C   0  0  0  0  0  0  0  0  0  0  0  0
  -17.1788   13.5704  -24.6789 N   0  0  0  0  0  0  0  0  0  0  0  0
  -17.4279   12.7155  -25.6522 C   0  0  0  0  0  0  0  0  0  0  0  0
  -17.0661   13.2449  -26.8564 N   0  0  0  0  0  0  0  0  0  0  0  0
  -16.5694   14.4876  -26.6448 C   0  0  0  0  0  0  0  0  0  0  0  0
  -16.0498   15.4216  -27.7003 C   0  0  0  0  0  0  0  0  0  0  0  0
  -16.6529   14.6599  -25.2843 C   0  0  0  0  0  0  0  0  0  0  0  0
  -16.3056   10.7042  -20.7899 C   0  0  0  0  0  0  0  0  0  0  0  0
  -15.1672   10.3454  -21.4813 F   0  0  0  0  0  0  0  0  0  0  0  0
  -17.2059    9.6292  -20.8671 F   0  0  0  0  0  0  0  0  0  0  0  0
  -15.9855   10.9052  -19.4538 F   0  0  0  0  0  0  0  0  0  0  0  0
  -20.2287   20.0569  -17.9597 C   0  0  0  0  0  0  0  0  0  0  0  0
  -21.1739   20.4663  -18.9179 N   0  0  0  0  0  0  0  0  0  0  0  0
  -21.0561   21.1582  -19.6599 H   0  0  0  0  0  0  0  0  0  0  0  0
  -26.3702   18.4164  -16.7796 C   0  0  0  0  0  0  0  0  0  0  0  0
  -25.3621   19.3132  -16.4456 C   0  0  0  0  0  0  0  0  0  0  0  0
  -24.4565   19.2908  -17.4727 C   0  0  0  0  0  0  0  0  0  0  0  0
  -23.2411   19.9550  -17.6779 C   0  0  0  0  0  0  0  0  0  0  0  0
  -22.4708   19.7651  -18.7832 C   0  0  0  0  0  0  0  0  0  0  0  0
  -22.9280   18.8821  -19.7227 C   0  0  0  0  0  0  0  0  0  0  0  0
  -24.1151   18.2066  -19.5701 N   0  0  0  0  0  0  0  0  0  0  0  0
  -24.8690   18.4116  -18.4473 C   0  0  0  0  0  0  0  0  0  0  0  0
  -26.0375   17.9056  -17.9726 N   0  0  0  0  0  0  0  0  0  0  0  0
  -26.6286   17.1956  -18.4728 H   0  0  0  0  0  0  0  0  0  0  0  0
  -27.5405   18.1075  -15.9283 C   0  0  0  0  0  0  0  0  0  0  0  0
  -28.6835   18.2186  -16.4161 O   0  0  0  0  0  0  0  0  0  0  0  0
  -28.3666   17.1183  -13.8309 C   0  0  0  0  0  0  0  0  0  0  0  0
  -27.3788   17.6915  -14.6324 O   0  0  0  0  0  0  0  0  0  0  0  0
 43 44  1  0  0  0
 44 41  1  0  0  0
 41 42  2  0  0  0
 41 31  1  0  0  0
 31 32  2  0  0  0
 32 33  1  0  0  0
 33 34  2  0  0  0
 34 35  1  0  0  0
 35 29  1  0  0  0
 29 28  1  0  0  0
 28  1  1  0  0  0
  1  2  2  0  0  0
  2  3  1  0  0  0
  3  8  1  0  0  0
  8  9  1  0  0  0
  9 10  2  0  0  0
  9 12  1  0  0  0
 12 13  2  0  0  0
 13 14  1  0  0  0
 14 15  2  0  0  0
 15 16  1  0  0  0
 16 17  2  0  0  0
 16 24  1  0  0  0
 24 25  1  0  0  0
 24 26  1  0  0  0
 24 27  1  0  0  0
 14 18  1  0  0  0
 18 19  1  0  0  0
 19 20  2  0  0  0
 20 21  1  0  0  0
 21 22  1  0  0  0
 21 23  2  0  0  0
  3  4  2  0  0  0
  4  5  1  0  0  0
  5  6  2  0  0  0
  6  7  1  0  0  0
 35 36  2  0  0  0
 36 37  1  0  0  0
 37 38  2  0  0  0
 38 39  1  0  0  0
 39 31  1  0  0  0
 38 33  1  0  0  0
  6  1  1  0  0  0
 17 12  1  0  0  0
 23 18  1  0  0  0
 29 30  1  0  0  0
  8 11  1  0  0  0
 39 40  1  0  0  0
M  END
> <minimizedAffinity>
-8.21205

> <CNNscore>
0.1565508395

> <CNNaffinity>
6.3742656708

> <CNN_VS>
0.9978966713

> <CNNaffinity_variance>
0.1446586698

$$$$
[H]c1nc2c(c([H])c1N([H])C([H])([H])c1c([H])c(N([H])C(=O)c3c([H])c(-n4c([H])nc(C([H])([H])[H])c4[H])c([H])c(C(F)(F)F)c3[H])c([H])c([H])c1C([H])([H])[H])c([H])c(C(=O)OC([H])([H])[H])n2[H]


 44 48  0  0  0  0  0  0  0  0999 V2000
  -21.9678   18.8426  -20.2528 C   0  0  0  0  0  0  0  0  0  0  0  0
  -21.0941   17.9605  -20.8270 C   0  0  0  0  0  0  0  0  0  0  0  0
  -20.7889   16.7426  -20.2656 C   0  0  0  0  0  0  0  0  0  0  0  0
  -21.4333   16.4470  -19.0355 C   0  0  0  0  0  0  0  0  0  0  0  0
  -22.2934   17.2899  -18.4417 C   0  0  0  0  0  0  0  0  0  0  0  0
  -22.5836   18.4707  -19.0053 C   0  0  0  0  0  0  0  0  0  0  0  0
  -23.5593   19.4174  -18.4013 C   0  0  0  0  0  0  0  0  0  0  0  0
  -19.9413   15.8002  -20.8190 N   0  0  0  0  0  0  0  0  0  0  0  0
  -18.9058   15.0062  -20.2938 C   0  0  0  0  0  0  0  0  0  0  0  0
  -18.5427   15.0137  -19.0898 O   0  0  0  0  0  0  0  0  0  0  0  0
  -20.1224   15.6290  -21.8922 H   0  0  0  0  0  0  0  0  0  0  0  0
  -18.1647   14.0819  -21.1953 C   0  0  0  0  0  0  0  0  0  0  0  0
  -18.0378   14.3381  -22.5240 C   0  0  0  0  0  0  0  0  0  0  0  0
  -17.3566   13.4682  -23.3401 C   0  0  0  0  0  0  0  0  0  0  0  0
  -16.8121   12.3272  -22.7382 C   0  0  0  0  0  0  0  0  0  0  0  0
  -16.9266   12.0444  -21.4119 C   0  0  0  0  0  0  0  0  0  0  0  0
  -17.6172   12.9414  -20.6242 C   0  0  0  0  0  0  0  0  0  0  0  0
  -17.2082   13.5896  -24.7416 N   0  0  0  0  0  0  0  0  0  0  0  0
  -17.5328   12.7172  -25.6764 C   0  0  0  0  0  0  0  0  0  0  0  0
  -17.1736   13.1817  -26.9078 N   0  0  0  0  0  0  0  0  0  0  0  0
  -16.6000   14.3996  -26.7543 C   0  0  0  0  0  0  0  0  0  0  0  0
  -16.0559   15.2637  -27.8560 C   0  0  0  0  0  0  0  0  0  0  0  0
  -16.6365   14.6243  -25.3995 C   0  0  0  0  0  0  0  0  0  0  0  0
  -16.3701   10.8295  -20.7691 C   0  0  0  0  0  0  0  0  0  0  0  0
  -17.2849    9.7999  -20.8460 F   0  0  0  0  0  0  0  0  0  0  0  0
  -16.1197   11.0743  -19.4091 F   0  0  0  0  0  0  0  0  0  0  0  0
  -15.1802   10.4301  -21.3628 F   0  0  0  0  0  0  0  0  0  0  0  0
  -22.3528   20.1298  -20.7320 C   0  0  0  0  0  0  0  0  0  0  0  0
  -23.4732   20.3891  -21.5423 N   0  0  0  0  0  0  0  0  0  0  0  0
  -24.4319   20.5792  -21.2454 H   0  0  0  0  0  0  0  0  0  0  0  0
  -21.2179   21.7604  -26.9096 C   0  0  0  0  0  0  0  0  0  0  0  0
  -21.0932   22.1336  -25.5765 C   0  0  0  0  0  0  0  0  0  0  0  0
  -21.9357   21.3264  -24.8593 C   0  0  0  0  0  0  0  0  0  0  0  0
  -22.2506   21.2595  -23.4967 C   0  0  0  0  0  0  0  0  0  0  0  0
  -23.1533   20.3780  -22.9877 C   0  0  0  0  0  0  0  0  0  0  0  0
  -23.7653   19.5278  -23.8676 C   0  0  0  0  0  0  0  0  0  0  0  0
  -23.4899   19.5517  -25.2139 N   0  0  0  0  0  0  0  0  0  0  0  0
  -22.5817   20.4508  -25.7014 C   0  0  0  0  0  0  0  0  0  0  0  0
  -22.1095   20.7608  -26.9374 N   0  0  0  0  0  0  0  0  0  0  0  0
  -22.3973   20.2791  -27.8255 H   0  0  0  0  0  0  0  0  0  0  0  0
  -20.5017   22.4006  -28.0353 C   0  0  0  0  0  0  0  0  0  0  0  0
  -20.6355   23.6286  -28.2110 O   0  0  0  0  0  0  0  0  0  0  0  0
  -18.5774   22.1492  -29.5497 C   0  0  0  0  0  0  0  0  0  0  0  0
  -19.6926   21.6673  -28.8636 O   0  0  0  0  0  0  0  0  0  0  0  0
 43 44  1  0  0  0
 44 41  1  0  0  0
 41 42  2  0  0  0
 41 31  1  0  0  0
 31 32  2  0  0  0
 32 33  1  0  0  0
 33 34  2  0  0  0
 34 35  1  0  0  0
 35 29  1  0  0  0
 29 28  1  0  0  0
 28  1  1  0  0  0
  1  2  2  0  0  0
  2  3  1  0  0  0
  3  8  1  0  0  0
  8  9  1  0  0  0
  9 10  2  0  0  0
  9 12  1  0  0  0
 12 13  2  0  0  0
 13 14  1  0  0  0
 14 15  2  0  0  0
 15 16  1  0  0  0
 16 17  2  0  0  0
 16 24  1  0  0  0
 24 25  1  0  0  0
 24 26  1  0  0  0
 24 27  1  0  0  0
 14 18  1  0  0  0
 18 19  1  0  0  0
 19 20  2  0  0  0
 20 21  1  0  0  0
 21 22  1  0  0  0
 21 23  2  0  0  0
  3  4  2  0  0  0
  4  5  1  0  0  0
  5  6  2  0  0  0
  6  7  1  0  0  0
 35 36  2  0  0  0
 36 37  1  0  0  0
 37 38  2  0  0  0
 38 39  1  0  0  0
 39 31  1  0  0  0
 38 33  1  0  0  0
  6  1  1  0  0  0
 17 12  1  0  0  0
 23 18  1  0  0  0
 29 30  1  0  0  0
  8 11  1  0  0  0
 39 40  1  0  0  0
M  END
> <minimizedAffinity>
-9.61448

> <CNNscore>
0.1562859118

> <CNNaffinity>
6.4866995811

> <CNN_VS>
1.0137797594

> <CNNaffinity_variance>
0.6768534184

$$$$
[H]c1nc2c(c([H])c1N([H])C([H])([H])c1c([H])c(N([H])C(=O)c3c([H])c(-n4c([H])nc(C([H])([H])[H])c4[H])c([H])c(C(F)(F)F)c3[H])c([H])c([H])c1C([H])([H])[H])c([H])c(C(=O)OC([H])([H])[H])n2[H]


 44 48  0  0  0  0  0  0  0  0999 V2000
  -18.1485   11.3321  -18.4748 C   0  0  0  0  0  0  0  0  0  0  0  0
  -18.5174   12.6228  -18.7381 C   0  0  0  0  0  0  0  0  0  0  0  0
  -19.6008   13.2241  -18.1411 C   0  0  0  0  0  0  0  0  0  0  0  0
  -20.3321   12.4199  -17.2277 C   0  0  0  0  0  0  0  0  0  0  0  0
  -20.0010   11.1491  -16.9479 C   0  0  0  0  0  0  0  0  0  0  0  0
  -18.9389   10.5802  -17.5348 C   0  0  0  0  0  0  0  0  0  0  0  0
  -18.5146    9.1884  -17.2250 C   0  0  0  0  0  0  0  0  0  0  0  0
  -19.9972   14.5334  -18.3440 N   0  0  0  0  0  0  0  0  0  0  0  0
  -19.4366   15.7765  -17.9987 C   0  0  0  0  0  0  0  0  0  0  0  0
  -18.3482   15.9218  -17.3858 O   0  0  0  0  0  0  0  0  0  0  0  0
  -20.9440   14.6201  -18.9007 H   0  0  0  0  0  0  0  0  0  0  0  0
  -20.1531   17.0286  -18.3664 C   0  0  0  0  0  0  0  0  0  0  0  0
  -20.8090   17.1481  -19.5507 C   0  0  0  0  0  0  0  0  0  0  0  0
  -21.4574   18.3151  -19.8743 C   0  0  0  0  0  0  0  0  0  0  0  0
  -21.4052   19.3520  -18.9347 C   0  0  0  0  0  0  0  0  0  0  0  0
  -20.7536   19.2607  -17.7434 C   0  0  0  0  0  0  0  0  0  0  0  0
  -20.1146   18.0734  -17.4535 C   0  0  0  0  0  0  0  0  0  0  0  0
  -22.1199   18.5849  -21.0946 N   0  0  0  0  0  0  0  0  0  0  0  0
  -23.0699   19.4693  -21.3306 C   0  0  0  0  0  0  0  0  0  0  0  0
  -23.4938   19.3802  -22.6243 N   0  0  0  0  0  0  0  0  0  0  0  0
  -22.7849   18.4032  -23.2398 C   0  0  0  0  0  0  0  0  0  0  0  0
  -22.9361   17.9714  -24.6706 C   0  0  0  0  0  0  0  0  0  0  0  0
  -21.9413   17.9294  -22.2645 C   0  0  0  0  0  0  0  0  0  0  0  0
  -20.6765   20.3596  -16.7508 C   0  0  0  0  0  0  0  0  0  0  0  0
  -21.9221   20.9293  -16.5872 F   0  0  0  0  0  0  0  0  0  0  0  0
  -19.8072   21.3633  -17.2079 F   0  0  0  0  0  0  0  0  0  0  0  0
  -20.2124   19.9127  -15.5207 F   0  0  0  0  0  0  0  0  0  0  0  0
  -17.0587   10.6021  -19.0355 C   0  0  0  0  0  0  0  0  0  0  0  0
  -17.0416   10.0373  -20.3238 N   0  0  0  0  0  0  0  0  0  0  0  0
  -17.3696    9.1127  -20.6081 H   0  0  0  0  0  0  0  0  0  0  0  0
  -16.3468   14.4780  -24.2700 C   0  0  0  0  0  0  0  0  0  0  0  0
  -17.2506   14.0410  -23.3087 C   0  0  0  0  0  0  0  0  0  0  0  0
  -16.7117   12.9172  -22.7409 C   0  0  0  0  0  0  0  0  0  0  0  0
  -17.1746   12.0413  -21.7516 C   0  0  0  0  0  0  0  0  0  0  0  0
  -16.4748   10.9480  -21.3441 C   0  0  0  0  0  0  0  0  0  0  0  0
  -15.2660   10.7179  -21.9419 C   0  0  0  0  0  0  0  0  0  0  0  0
  -14.7659   11.5482  -22.9163 N   0  0  0  0  0  0  0  0  0  0  0  0
  -15.4912   12.6384  -23.3117 C   0  0  0  0  0  0  0  0  0  0  0  0
  -15.3199   13.6182  -24.2376 N   0  0  0  0  0  0  0  0  0  0  0  0
  -14.4815   13.7090  -24.8640 H   0  0  0  0  0  0  0  0  0  0  0  0
  -16.5502   15.6528  -25.1467 C   0  0  0  0  0  0  0  0  0  0  0  0
  -17.4166   16.4937  -24.8320 O   0  0  0  0  0  0  0  0  0  0  0  0
  -16.0398   15.2476  -27.5206 C   0  0  0  0  0  0  0  0  0  0  0  0
  -15.7937   15.8283  -26.2760 O   0  0  0  0  0  0  0  0  0  0  0  0
 43 44  1  0  0  0
 44 41  1  0  0  0
 41 42  2  0  0  0
 41 31  1  0  0  0
 31 32  2  0  0  0
 32 33  1  0  0  0
 33 34  2  0  0  0
 34 35  1  0  0  0
 35 29  1  0  0  0
 29 28  1  0  0  0
 28  1  1  0  0  0
  1  2  2  0  0  0
  2  3  1  0  0  0
  3  8  1  0  0  0
  8  9  1  0  0  0
  9 10  2  0  0  0
  9 12  1  0  0  0
 12 13  2  0  0  0
 13 14  1  0  0  0
 14 15  2  0  0  0
 15 16  1  0  0  0
 16 17  2  0  0  0
 16 24  1  0  0  0
 24 25  1  0  0  0
 24 26  1  0  0  0
 24 27  1  0  0  0
 14 18  1  0  0  0
 18 19  1  0  0  0
 19 20  2  0  0  0
 20 21  1  0  0  0
 21 22  1  0  0  0
 21 23  2  0  0  0
  3  4  2  0  0  0
  4  5  1  0  0  0
  5  6  2  0  0  0
  6  7  1  0  0  0
 35 36  2  0  0  0
 36 37  1  0  0  0
 37 38  2  0  0  0
 38 39  1  0  0  0
 39 31  1  0  0  0
 38 33  1  0  0  0
  6  1  1  0  0  0
 17 12  1  0  0  0
 23 18  1  0  0  0
 29 30  1  0  0  0
  8 11  1  0  0  0
 39 40  1  0  0  0
M  END
> <minimizedAffinity>
-8.97972

> <CNNscore>
0.1480075121

> <CNNaffinity>
7.3901457787

> <CNN_VS>
1.0937970877

> <CNNaffinity_variance>
0.0425171815

$$$$
[H]c1nc2c(c([H])c1N([H])C([H])([H])c1c([H])c(N([H])C(=O)c3c([H])c(-n4c([H])nc(C([H])([H])[H])c4[H])c([H])c(C(F)(F)F)c3[H])c([H])c([H])c1C([H])([H])[H])c([H])c(C(=O)OC([H])([H])[H])n2[H]


 44 48  0  0  0  0  0  0  0  0999 V2000
  -20.0064   13.2622  -18.7045 C   0  0  0  0  0  0  0  0  0  0  0  0
  -19.8890   12.7545  -17.4396 C   0  0  0  0  0  0  0  0  0  0  0  0
  -20.5858   13.2598  -16.3669 C   0  0  0  0  0  0  0  0  0  0  0  0
  -21.4418   14.3581  -16.6441 C   0  0  0  0  0  0  0  0  0  0  0  0
  -21.5790   14.8840  -17.8719 C   0  0  0  0  0  0  0  0  0  0  0  0
  -20.8963   14.3759  -18.9073 C   0  0  0  0  0  0  0  0  0  0  0  0
  -21.0475   14.9032  -20.2901 C   0  0  0  0  0  0  0  0  0  0  0  0
  -20.5315   12.7643  -15.0769 N   0  0  0  0  0  0  0  0  0  0  0  0
  -20.4829   11.4636  -14.5434 C   0  0  0  0  0  0  0  0  0  0  0  0
  -20.4678   10.4112  -15.2317 O   0  0  0  0  0  0  0  0  0  0  0  0
  -20.5121   13.5533  -14.3081 H   0  0  0  0  0  0  0  0  0  0  0  0
  -20.4473   11.2804  -13.0664 C   0  0  0  0  0  0  0  0  0  0  0  0
  -19.3975   10.6734  -12.4527 C   0  0  0  0  0  0  0  0  0  0  0  0
  -19.3877   10.5072  -11.0892 C   0  0  0  0  0  0  0  0  0  0  0  0
  -20.4969   10.9884  -10.3829 C   0  0  0  0  0  0  0  0  0  0  0  0
  -21.5624   11.5969  -10.9718 C   0  0  0  0  0  0  0  0  0  0  0  0
  -21.5361   11.7462  -12.3426 C   0  0  0  0  0  0  0  0  0  0  0  0
  -18.3887    9.8405  -10.3421 N   0  0  0  0  0  0  0  0  0  0  0  0
  -17.5429   10.3525   -9.4688 C   0  0  0  0  0  0  0  0  0  0  0  0
  -16.6924    9.3905   -9.0078 N   0  0  0  0  0  0  0  0  0  0  0  0
  -17.0090    8.2175   -9.6074 C   0  0  0  0  0  0  0  0  0  0  0  0
  -16.3191    6.9010   -9.3898 C   0  0  0  0  0  0  0  0  0  0  0  0
  -18.0650    8.5298  -10.4289 C   0  0  0  0  0  0  0  0  0  0  0  0
  -22.7498   12.0922  -10.2346 C   0  0  0  0  0  0  0  0  0  0  0  0
  -22.4046   13.1937   -9.4795 F   0  0  0  0  0  0  0  0  0  0  0  0
  -23.2187   11.1038   -9.3541 F   0  0  0  0  0  0  0  0  0  0  0  0
  -23.7860   12.4327  -11.0939 F   0  0  0  0  0  0  0  0  0  0  0  0
  -19.3325   12.8317  -19.8858 C   0  0  0  0  0  0  0  0  0  0  0  0
  -18.1796   12.0260  -19.9109 N   0  0  0  0  0  0  0  0  0  0  0  0
  -17.8988   11.3111  -19.2375 H   0  0  0  0  0  0  0  0  0  0  0  0
  -15.7211   14.5461  -24.7462 C   0  0  0  0  0  0  0  0  0  0  0  0
  -16.6578   14.8292  -23.7591 C   0  0  0  0  0  0  0  0  0  0  0  0
  -16.6815   13.7508  -22.9153 C   0  0  0  0  0  0  0  0  0  0  0  0
  -17.4383   13.4580  -21.7742 C   0  0  0  0  0  0  0  0  0  0  0  0
  -17.3172   12.2915  -21.0845 C   0  0  0  0  0  0  0  0  0  0  0  0
  -16.4060   11.3814  -21.5458 C   0  0  0  0  0  0  0  0  0  0  0  0
  -15.6373   11.6212  -22.6596 N   0  0  0  0  0  0  0  0  0  0  0  0
  -15.7815   12.8000  -23.3383 C   0  0  0  0  0  0  0  0  0  0  0  0
  -15.2269   13.3346  -24.4578 N   0  0  0  0  0  0  0  0  0  0  0  0
  -14.4899   12.8666  -25.0421 H   0  0  0  0  0  0  0  0  0  0  0  0
  -15.3991   15.4361  -25.8838 C   0  0  0  0  0  0  0  0  0  0  0  0
  -14.2829   15.9927  -25.9131 O   0  0  0  0  0  0  0  0  0  0  0  0
  -16.0265   15.5360  -28.2621 C   0  0  0  0  0  0  0  0  0  0  0  0
  -16.2993   15.6373  -26.8975 O   0  0  0  0  0  0  0  0  0  0  0  0
 43 44  1  0  0  0
 44 41  1  0  0  0
 41 42  2  0  0  0
 41 31  1  0  0  0
 31 32  2  0  0  0
 32 33  1  0  0  0
 33 34  2  0  0  0
 34 35  1  0  0  0
 35 29  1  0  0  0
 29 28  1  0  0  0
 28  1  1  0  0  0
  1  2  2  0  0  0
  2  3  1  0  0  0
  3  8  1  0  0  0
  8  9  1  0  0  0
  9 10  2  0  0  0
  9 12  1  0  0  0
 12 13  2  0  0  0
 13 14  1  0  0  0
 14 15  2  0  0  0
 15 16  1  0  0  0
 16 17  2  0  0  0
 16 24  1  0  0  0
 24 25  1  0  0  0
 24 26  1  0  0  0
 24 27  1  0  0  0
 14 18  1  0  0  0
 18 19  1  0  0  0
 19 20  2  0  0  0
 20 21  1  0  0  0
 21 22  1  0  0  0
 21 23  2  0  0  0
  3  4  2  0  0  0
  4  5  1  0  0  0
  5  6  2  0  0  0
  6  7  1  0  0  0
 35 36  2  0  0  0
 36 37  1  0  0  0
 37 38  2  0  0  0
 38 39  1  0  0  0
 39 31  1  0  0  0
 38 33  1  0  0  0
  6  1  1  0  0  0
 17 12  1  0  0  0
 23 18  1  0  0  0
 29 30  1  0  0  0
  8 11  1  0  0  0
 39 40  1  0  0  0
M  END
> <minimizedAffinity>
-9.18100

> <CNNscore>
0.1423625499

> <CNNaffinity>
6.6333479881

> <CNN_VS>
0.9443403482

> <CNNaffinity_variance>
0.0803490803

$$$$
[H]c1nc2c(c([H])c1N([H])C([H])([H])c1c([H])c(N([H])C(=O)c3c([H])c(-n4c([H])nc(C([H])([H])[H])c4[H])c([H])c(C(F)(F)F)c3[H])c([H])c([H])c1C([H])([H])[H])c([H])c(C(=O)OC([H])([H])[H])n2[H]


 44 48  0  0  0  0  0  0  0  0999 V2000
  -20.2922   19.5925  -19.3884 C   0  0  0  0  0  0  0  0  0  0  0  0
  -19.5860   18.5757  -19.9704 C   0  0  0  0  0  0  0  0  0  0  0  0
  -19.9277   17.2518  -19.8222 C   0  0  0  0  0  0  0  0  0  0  0  0
  -21.0661   16.9909  -19.0148 C   0  0  0  0  0  0  0  0  0  0  0  0
  -21.7805   17.9632  -18.4256 C   0  0  0  0  0  0  0  0  0  0  0  0
  -21.4367   19.2487  -18.5849 C   0  0  0  0  0  0  0  0  0  0  0  0
  -22.2224   20.3586  -17.9818 C   0  0  0  0  0  0  0  0  0  0  0  0
  -19.2713   16.1884  -20.4147 N   0  0  0  0  0  0  0  0  0  0  0  0
  -18.5566   15.0895  -19.9044 C   0  0  0  0  0  0  0  0  0  0  0  0
  -18.3846   14.8576  -18.6804 O   0  0  0  0  0  0  0  0  0  0  0  0
  -19.3293   16.1996  -21.5149 H   0  0  0  0  0  0  0  0  0  0  0  0
  -17.9462   14.1130  -20.8479 C   0  0  0  0  0  0  0  0  0  0  0  0
  -17.8535   14.3757  -22.1781 C   0  0  0  0  0  0  0  0  0  0  0  0
  -17.2938   13.4578  -23.0331 C   0  0  0  0  0  0  0  0  0  0  0  0
  -16.8341   12.2618  -22.4682 C   0  0  0  0  0  0  0  0  0  0  0  0
  -16.9171   11.9715  -21.1411 C   0  0  0  0  0  0  0  0  0  0  0  0
  -17.4848   12.9177  -20.3139 C   0  0  0  0  0  0  0  0  0  0  0  0
  -17.1956   13.5854  -24.4384 N   0  0  0  0  0  0  0  0  0  0  0  0
  -17.5846   12.7315  -25.3656 C   0  0  0  0  0  0  0  0  0  0  0  0
  -17.2580   13.1938  -26.6070 N   0  0  0  0  0  0  0  0  0  0  0  0
  -16.6391   14.3910  -26.4677 C   0  0  0  0  0  0  0  0  0  0  0  0
  -16.1095   15.2456  -27.5839 C   0  0  0  0  0  0  0  0  0  0  0  0
  -16.6159   14.6060  -25.1110 C   0  0  0  0  0  0  0  0  0  0  0  0
  -16.4508   10.7002  -20.5367 C   0  0  0  0  0  0  0  0  0  0  0  0
  -15.1898   10.3953  -21.0054 F   0  0  0  0  0  0  0  0  0  0  0  0
  -17.3061    9.6486  -20.9038 F   0  0  0  0  0  0  0  0  0  0  0  0
  -16.4199   10.7685  -19.1502 F   0  0  0  0  0  0  0  0  0  0  0  0
  -20.0303   20.9928  -19.4611 C   0  0  0  0  0  0  0  0  0  0  0  0
  -18.8705   21.5711  -20.0083 N   0  0  0  0  0  0  0  0  0  0  0  0
  -17.9271   21.5762  -19.6169 H   0  0  0  0  0  0  0  0  0  0  0  0
  -19.9982   22.5342  -25.8029 C   0  0  0  0  0  0  0  0  0  0  0  0
  -19.9550   21.4896  -24.8869 C   0  0  0  0  0  0  0  0  0  0  0  0
  -19.6471   22.0415  -23.6718 C   0  0  0  0  0  0  0  0  0  0  0  0
  -19.4436   21.4846  -22.4034 C   0  0  0  0  0  0  0  0  0  0  0  0
  -19.1152   22.2280  -21.3123 C   0  0  0  0  0  0  0  0  0  0  0  0
  -18.9864   23.5785  -21.4886 C   0  0  0  0  0  0  0  0  0  0  0  0
  -19.1776   24.1745  -22.7122 N   0  0  0  0  0  0  0  0  0  0  0  0
  -19.5026   23.4042  -23.7949 C   0  0  0  0  0  0  0  0  0  0  0  0
  -19.7244   23.6495  -25.1129 N   0  0  0  0  0  0  0  0  0  0  0  0
  -19.6922   24.6006  -25.5578 H   0  0  0  0  0  0  0  0  0  0  0  0
  -20.2694   22.3772  -27.2491 C   0  0  0  0  0  0  0  0  0  0  0  0
  -21.2857   22.9169  -27.7313 O   0  0  0  0  0  0  0  0  0  0  0  0
  -19.4764   21.5964  -29.4449 C   0  0  0  0  0  0  0  0  0  0  0  0
  -19.4161   21.6669  -28.0528 O   0  0  0  0  0  0  0  0  0  0  0  0
 43 44  1  0  0  0
 44 41  1  0  0  0
 41 42  2  0  0  0
 41 31  1  0  0  0
 31 32  2  0  0  0
 32 33  1  0  0  0
 33 34  2  0  0  0
 34 35  1  0  0  0
 35 29  1  0  0  0
 29 28  1  0  0  0
 28  1  1  0  0  0
  1  2  2  0  0  0
  2  3  1  0  0  0
  3  8  1  0  0  0
  8  9  1  0  0  0
  9 10  2  0  0  0
  9 12  1  0  0  0
 12 13  2  0  0  0
 13 14  1  0  0  0
 14 15  2  0  0  0
 15 16  1  0  0  0
 16 17  2  0  0  0
 16 24  1  0  0  0
 24 25  1  0  0  0
 24 26  1  0  0  0
 24 27  1  0  0  0
 14 18  1  0  0  0
 18 19  1  0  0  0
 19 20  2  0  0  0
 20 21  1  0  0  0
 21 22  1  0  0  0
 21 23  2  0  0  0
  3  4  2  0  0  0
  4  5  1  0  0  0
  5  6  2  0  0  0
  6  7  1  0  0  0
 35 36  2  0  0  0
 36 37  1  0  0  0
 37 38  2  0  0  0
 38 39  1  0  0  0
 39 31  1  0  0  0
 38 33  1  0  0  0
  6  1  1  0  0  0
 17 12  1  0  0  0
 23 18  1  0  0  0
 29 30  1  0  0  0
  8 11  1  0  0  0
 39 40  1  0  0  0
M  END
> <minimizedAffinity>
-9.40808

> <CNNscore>
0.1299535483

> <CNNaffinity>
6.5532937050

> <CNN_VS>
0.8516237736

> <CNNaffinity_variance>
0.4531836510

$$$$
[H]c1nc2c(c([H])c1N([H])C([H])([H])c1c([H])c(N([H])C(=O)c3c([H])c(-n4c([H])nc(C([H])([H])[H])c4[H])c([H])c(C(F)(F)F)c3[H])c([H])c([H])c1C([H])([H])[H])c([H])c(C(=O)OC([H])([H])[H])n2[H]


 44 48  0  0  0  0  0  0  0  0999 V2000
  -19.9061   13.0592  -18.6108 C   0  0  0  0  0  0  0  0  0  0  0  0
  -19.7906   12.5447  -17.3486 C   0  0  0  0  0  0  0  0  0  0  0  0
  -20.4976   13.0367  -16.2764 C   0  0  0  0  0  0  0  0  0  0  0  0
  -21.3623   14.1288  -16.5512 C   0  0  0  0  0  0  0  0  0  0  0  0
  -21.4980   14.6611  -17.7764 C   0  0  0  0  0  0  0  0  0  0  0  0
  -20.8053   14.1659  -18.8114 C   0  0  0  0  0  0  0  0  0  0  0  0
  -20.9542   14.7005  -20.1916 C   0  0  0  0  0  0  0  0  0  0  0  0
  -20.4455   12.5336  -14.9892 N   0  0  0  0  0  0  0  0  0  0  0  0
  -20.3257   11.2339  -14.4647 C   0  0  0  0  0  0  0  0  0  0  0  0
  -20.2229   10.1914  -15.1604 O   0  0  0  0  0  0  0  0  0  0  0  0
  -20.4986   13.3149  -14.2141 H   0  0  0  0  0  0  0  0  0  0  0  0
  -20.3176   11.0395  -12.9887 C   0  0  0  0  0  0  0  0  0  0  0  0
  -21.1266   11.7664  -12.1737 C   0  0  0  0  0  0  0  0  0  0  0  0
  -21.0982   11.5771  -10.8135 C   0  0  0  0  0  0  0  0  0  0  0  0
  -20.2075   10.6134  -10.3251 C   0  0  0  0  0  0  0  0  0  0  0  0
  -19.3843    9.8740  -11.1174 C   0  0  0  0  0  0  0  0  0  0  0  0
  -19.4415   10.0918  -12.4781 C   0  0  0  0  0  0  0  0  0  0  0  0
  -21.8416   12.3093   -9.8585 N   0  0  0  0  0  0  0  0  0  0  0  0
  -22.9354   11.9428   -9.2185 C   0  0  0  0  0  0  0  0  0  0  0  0
  -23.3860   12.9567   -8.4246 N   0  0  0  0  0  0  0  0  0  0  0  0
  -22.5456   14.0109   -8.5600 C   0  0  0  0  0  0  0  0  0  0  0  0
  -22.6746   15.3369   -7.8660 C   0  0  0  0  0  0  0  0  0  0  0  0
  -21.5984   13.5777   -9.4559 C   0  0  0  0  0  0  0  0  0  0  0  0
  -18.4244    8.8652  -10.6080 C   0  0  0  0  0  0  0  0  0  0  0  0
  -19.0924    7.9253   -9.8510 F   0  0  0  0  0  0  0  0  0  0  0  0
  -17.4724    9.4800   -9.7785 F   0  0  0  0  0  0  0  0  0  0  0  0
  -17.7502    8.2264  -11.6403 F   0  0  0  0  0  0  0  0  0  0  0  0
  -19.2222   12.6425  -19.7913 C   0  0  0  0  0  0  0  0  0  0  0  0
  -18.0776   11.8250  -19.8165 N   0  0  0  0  0  0  0  0  0  0  0  0
  -17.8067   11.1036  -19.1461 H   0  0  0  0  0  0  0  0  0  0  0  0
  -15.6864   14.2509  -24.7331 C   0  0  0  0  0  0  0  0  0  0  0  0
  -16.6637   14.5194  -23.7819 C   0  0  0  0  0  0  0  0  0  0  0  0
  -16.6324   13.4886  -22.8807 C   0  0  0  0  0  0  0  0  0  0  0  0
  -17.3938   13.2043  -21.7406 C   0  0  0  0  0  0  0  0  0  0  0  0
  -17.2081   12.0879  -20.9856 C   0  0  0  0  0  0  0  0  0  0  0  0
  -16.2250   11.2212  -21.3779 C   0  0  0  0  0  0  0  0  0  0  0  0
  -15.4487   11.4550  -22.4876 N   0  0  0  0  0  0  0  0  0  0  0  0
  -15.6585   12.5827  -23.2329 C   0  0  0  0  0  0  0  0  0  0  0  0
  -15.1161   13.0947  -24.3687 N   0  0  0  0  0  0  0  0  0  0  0  0
  -14.3346   12.6495  -24.9116 H   0  0  0  0  0  0  0  0  0  0  0  0
  -15.4003   15.0995  -25.9112 C   0  0  0  0  0  0  0  0  0  0  0  0
  -14.4103   15.8582  -25.8782 O   0  0  0  0  0  0  0  0  0  0  0  0
  -15.8794   15.5784  -28.2779 C   0  0  0  0  0  0  0  0  0  0  0  0
  -16.1944   15.0465  -27.0271 O   0  0  0  0  0  0  0  0  0  0  0  0
 43 44  1  0  0  0
 44 41  1  0  0  0
 41 42  2  0  0  0
 41 31  1  0  0  0
 31 32  2  0  0  0
 32 33  1  0  0  0
 33 34  2  0  0  0
 34 35  1  0  0  0
 35 29  1  0  0  0
 29 28  1  0  0  0
 28  1  1  0  0  0
  1  2  2  0  0  0
  2  3  1  0  0  0
  3  8  1  0  0  0
  8  9  1  0  0  0
  9 10  2  0  0  0
  9 12  1  0  0  0
 12 13  2  0  0  0
 13 14  1  0  0  0
 14 15  2  0  0  0
 15 16  1  0  0  0
 16 17  2  0  0  0
 16 24  1  0  0  0
 24 25  1  0  0  0
 24 26  1  0  0  0
 24 27  1  0  0  0
 14 18  1  0  0  0
 18 19  1  0  0  0
 19 20  2  0  0  0
 20 21  1  0  0  0
 21 22  1  0  0  0
 21 23  2  0  0  0
  3  4  2  0  0  0
  4  5  1  0  0  0
  5  6  2  0  0  0
  6  7  1  0  0  0
 35 36  2  0  0  0
 36 37  1  0  0  0
 37 38  2  0  0  0
 38 39  1  0  0  0
 39 31  1  0  0  0
 38 33  1  0  0  0
  6  1  1  0  0  0
 17 12  1  0  0  0
 23 18  1  0  0  0
 29 30  1  0  0  0
  8 11  1  0  0  0
 39 40  1  0  0  0
M  END
> <minimizedAffinity>
-8.63347

> <CNNscore>
0.1280255616

> <CNNaffinity>
6.6337037086

> <CNN_VS>
0.8492836356

> <CNNaffinity_variance>
0.1572676897

$$$$
[H]c1nc2c(c([H])c1N([H])C([H])([H])c1c([H])c(N([H])C(=O)c3c([H])c(-n4c([H])nc(C([H])([H])[H])c4[H])c([H])c(C(F)(F)F)c3[H])c([H])c([H])c1C([H])([H])[H])c([H])c(C(=O)OC([H])([H])[H])n2[H]


 44 48  0  0  0  0  0  0  0  0999 V2000
  -20.0809   10.7628  -16.9936 C   0  0  0  0  0  0  0  0  0  0  0  0
  -19.6474   11.7662  -17.8160 C   0  0  0  0  0  0  0  0  0  0  0  0
  -18.4989   11.6699  -18.5665 C   0  0  0  0  0  0  0  0  0  0  0  0
  -17.7714   10.4577  -18.4356 C   0  0  0  0  0  0  0  0  0  0  0  0
  -18.1651    9.4536  -17.6358 C   0  0  0  0  0  0  0  0  0  0  0  0
  -19.2899    9.5620  -16.9152 C   0  0  0  0  0  0  0  0  0  0  0  0
  -19.7825    8.4595  -16.0464 C   0  0  0  0  0  0  0  0  0  0  0  0
  -18.0335   12.6373  -19.4384 N   0  0  0  0  0  0  0  0  0  0  0  0
  -17.8124   12.6594  -20.8275 C   0  0  0  0  0  0  0  0  0  0  0  0
  -18.0378   11.6933  -21.6003 O   0  0  0  0  0  0  0  0  0  0  0  0
  -17.7966   13.5923  -18.9427 H   0  0  0  0  0  0  0  0  0  0  0  0
  -17.2736   13.8936  -21.4621 C   0  0  0  0  0  0  0  0  0  0  0  0
  -16.7871   13.8835  -22.7311 C   0  0  0  0  0  0  0  0  0  0  0  0
  -16.2871   15.0317  -23.2956 C   0  0  0  0  0  0  0  0  0  0  0  0
  -16.3070   16.1880  -22.5062 C   0  0  0  0  0  0  0  0  0  0  0  0
  -16.7851   16.2259  -21.2325 C   0  0  0  0  0  0  0  0  0  0  0  0
  -17.2792   15.0536  -20.7000 C   0  0  0  0  0  0  0  0  0  0  0  0
  -15.6990   15.1375  -24.5776 N   0  0  0  0  0  0  0  0  0  0  0  0
  -14.4175   15.1779  -24.8880 C   0  0  0  0  0  0  0  0  0  0  0  0
  -14.2574   15.3470  -26.2323 N   0  0  0  0  0  0  0  0  0  0  0  0
  -15.4842   15.4140  -26.8035 C   0  0  0  0  0  0  0  0  0  0  0  0
  -15.7670   15.6012  -28.2669 C   0  0  0  0  0  0  0  0  0  0  0  0
  -16.3570   15.2808  -25.7510 C   0  0  0  0  0  0  0  0  0  0  0  0
  -16.7926   17.4407  -20.3823 C   0  0  0  0  0  0  0  0  0  0  0  0
  -17.4160   17.1672  -19.1826 F   0  0  0  0  0  0  0  0  0  0  0  0
  -17.5154   18.4667  -21.0123 F   0  0  0  0  0  0  0  0  0  0  0  0
  -15.5078   17.9059  -20.1350 F   0  0  0  0  0  0  0  0  0  0  0  0
  -21.2419   10.7512  -16.1648 C   0  0  0  0  0  0  0  0  0  0  0  0
  -21.7428   11.8605  -15.4593 N   0  0  0  0  0  0  0  0  0  0  0  0
  -22.2543   12.6623  -15.8318 H   0  0  0  0  0  0  0  0  0  0  0  0
  -19.4600   10.3613  -10.1379 C   0  0  0  0  0  0  0  0  0  0  0  0
  -19.2453   10.1283  -11.4913 C   0  0  0  0  0  0  0  0  0  0  0  0
  -20.1767   10.8660  -12.1724 C   0  0  0  0  0  0  0  0  0  0  0  0
  -20.4603   11.0064  -13.5363 C   0  0  0  0  0  0  0  0  0  0  0  0
  -21.4679   11.7905  -14.0063 C   0  0  0  0  0  0  0  0  0  0  0  0
  -22.2218   12.4635  -13.0842 C   0  0  0  0  0  0  0  0  0  0  0  0
  -21.9832   12.3614  -11.7345 N   0  0  0  0  0  0  0  0  0  0  0  0
  -20.9669   11.5626  -11.2872 C   0  0  0  0  0  0  0  0  0  0  0  0
  -20.4887   11.2164  -10.0632 N   0  0  0  0  0  0  0  0  0  0  0  0
  -20.8683   11.5719   -9.1505 H   0  0  0  0  0  0  0  0  0  0  0  0
  -18.6891    9.7342   -9.0414 C   0  0  0  0  0  0  0  0  0  0  0  0
  -19.2849    8.9849   -8.2412 O   0  0  0  0  0  0  0  0  0  0  0  0
  -16.3308    9.0774   -9.3000 C   0  0  0  0  0  0  0  0  0  0  0  0
  -17.3428    9.9554   -8.9107 O   0  0  0  0  0  0  0  0  0  0  0  0
 43 44  1  0  0  0
 44 41  1  0  0  0
 41 42  2  0  0  0
 41 31  1  0  0  0
 31 32  2  0  0  0
 32 33  1  0  0  0
 33 34  2  0  0  0
 34 35  1  0  0  0
 35 29  1  0  0  0
 29 28  1  0  0  0
 28  1  1  0  0  0
  1  2  2  0  0  0
  2  3  1  0  0  0
  3  8  1  0  0  0
  8  9  1  0  0  0
  9 10  2  0  0  0
  9 12  1  0  0  0
 12 13  2  0  0  0
 13 14  1  0  0  0
 14 15  2  0  0  0
 15 16  1  0  0  0
 16 17  2  0  0  0
 16 24  1  0  0  0
 24 25  1  0  0  0
 24 26  1  0  0  0
 24 27  1  0  0  0
 14 18  1  0  0  0
 18 19  1  0  0  0
 19 20  2  0  0  0
 20 21  1  0  0  0
 21 22  1  0  0  0
 21 23  2  0  0  0
  3  4  2  0  0  0
  4  5  1  0  0  0
  5  6  2  0  0  0
  6  7  1  0  0  0
 35 36  2  0  0  0
 36 37  1  0  0  0
 37 38  2  0  0  0
 38 39  1  0  0  0
 39 31  1  0  0  0
 38 33  1  0  0  0
  6  1  1  0  0  0
 17 12  1  0  0  0
 23 18  1  0  0  0
 29 30  1  0  0  0
  8 11  1  0  0  0
 39 40  1  0  0  0
M  END
> <minimizedAffinity>
-10.62768

> <CNNscore>
0.1235452890

> <CNNaffinity>
6.4712305069

> <CNN_VS>
0.7994900346

> <CNNaffinity_variance>
0.0863438696

$$$$
[H]c1nc2c(c([H])c1N([H])C([H])([H])c1c([H])c(N([H])C(=O)c3c([H])c(-n4c([H])nc(C([H])([H])[H])c4[H])c([H])c(C(F)(F)F)c3[H])c([H])c([H])c1C([H])([H])[H])c([H])c(C(=O)OC([H])([H])[H])n2[H]


 44 48  0  0  0  0  0  0  0  0999 V2000
  -22.1829   14.4414  -15.1495 C   0  0  0  0  0  0  0  0  0  0  0  0
  -21.4333   13.9037  -16.1595 C   0  0  0  0  0  0  0  0  0  0  0  0
  -20.6346   14.6651  -16.9805 C   0  0  0  0  0  0  0  0  0  0  0  0
  -20.6342   16.0617  -16.7251 C   0  0  0  0  0  0  0  0  0  0  0  0
  -21.3598   16.6241  -15.7452 C   0  0  0  0  0  0  0  0  0  0  0  0
  -22.1288   15.8666  -14.9509 C   0  0  0  0  0  0  0  0  0  0  0  0
  -22.9184   16.4436  -13.8299 C   0  0  0  0  0  0  0  0  0  0  0  0
  -19.8314   14.1708  -17.9921 N   0  0  0  0  0  0  0  0  0  0  0  0
  -20.0722   13.8240  -19.3338 C   0  0  0  0  0  0  0  0  0  0  0  0
  -21.1863   13.9279  -19.9078 O   0  0  0  0  0  0  0  0  0  0  0  0
  -18.7827   14.0293  -17.6852 H   0  0  0  0  0  0  0  0  0  0  0  0
  -18.9558   13.2922  -20.1628 C   0  0  0  0  0  0  0  0  0  0  0  0
  -18.5757   13.9033  -21.3157 C   0  0  0  0  0  0  0  0  0  0  0  0
  -17.5481   13.3919  -22.0702 C   0  0  0  0  0  0  0  0  0  0  0  0
  -16.9279   12.2303  -21.5942 C   0  0  0  0  0  0  0  0  0  0  0  0
  -17.2900   11.5963  -20.4456 C   0  0  0  0  0  0  0  0  0  0  0  0
  -18.3256   12.1396  -19.7146 C   0  0  0  0  0  0  0  0  0  0  0  0
  -17.1011   13.8969  -23.3136 N   0  0  0  0  0  0  0  0  0  0  0  0
  -17.7777   14.0107  -24.4403 C   0  0  0  0  0  0  0  0  0  0  0  0
  -16.9731   14.4869  -25.4339 N   0  0  0  0  0  0  0  0  0  0  0  0
  -15.7352   14.6884  -24.9214 C   0  0  0  0  0  0  0  0  0  0  0  0
  -14.5413   15.2022  -25.6746 C   0  0  0  0  0  0  0  0  0  0  0  0
  -15.8472   14.3132  -23.6045 C   0  0  0  0  0  0  0  0  0  0  0  0
  -16.6522   10.3554  -19.9436 C   0  0  0  0  0  0  0  0  0  0  0  0
  -15.5461   10.6735  -19.1832 F   0  0  0  0  0  0  0  0  0  0  0  0
  -16.2148    9.5673  -21.0205 F   0  0  0  0  0  0  0  0  0  0  0  0
  -17.5294    9.5962  -19.1805 F   0  0  0  0  0  0  0  0  0  0  0  0
  -23.0508   13.7594  -14.2458 C   0  0  0  0  0  0  0  0  0  0  0  0
  -22.9675   12.3933  -13.9205 N   0  0  0  0  0  0  0  0  0  0  0  0
  -23.3862   11.6037  -14.4150 H   0  0  0  0  0  0  0  0  0  0  0  0
  -18.8211   10.2927  -10.1561 C   0  0  0  0  0  0  0  0  0  0  0  0
  -19.1466   10.2582  -11.5070 C   0  0  0  0  0  0  0  0  0  0  0  0
  -20.2629   11.0357  -11.6649 C   0  0  0  0  0  0  0  0  0  0  0  0
  -21.0493   11.3476  -12.7806 C   0  0  0  0  0  0  0  0  0  0  0  0
  -22.1542   12.1384  -12.7100 C   0  0  0  0  0  0  0  0  0  0  0  0
  -22.4891   12.6409  -11.4825 C   0  0  0  0  0  0  0  0  0  0  0  0
  -21.7494   12.3666  -10.3571 N   0  0  0  0  0  0  0  0  0  0  0  0
  -20.6453   11.5648  -10.4538 C   0  0  0  0  0  0  0  0  0  0  0  0
  -19.7349   11.0780   -9.5702 N   0  0  0  0  0  0  0  0  0  0  0  0
  -19.7305   11.2861   -8.5405 H   0  0  0  0  0  0  0  0  0  0  0  0
  -17.6919    9.5598   -9.5415 C   0  0  0  0  0  0  0  0  0  0  0  0
  -16.7059   10.2077   -9.1355 O   0  0  0  0  0  0  0  0  0  0  0  0
  -16.9034    7.2876  -10.0660 C   0  0  0  0  0  0  0  0  0  0  0  0
  -17.7286    8.1968   -9.4033 O   0  0  0  0  0  0  0  0  0  0  0  0
 43 44  1  0  0  0
 44 41  1  0  0  0
 41 42  2  0  0  0
 41 31  1  0  0  0
 31 32  2  0  0  0
 32 33  1  0  0  0
 33 34  2  0  0  0
 34 35  1  0  0  0
 35 29  1  0  0  0
 29 28  1  0  0  0
 28  1  1  0  0  0
  1  2  2  0  0  0
  2  3  1  0  0  0
  3  8  1  0  0  0
  8  9  1  0  0  0
  9 10  2  0  0  0
  9 12  1  0  0  0
 12 13  2  0  0  0
 13 14  1  0  0  0
 14 15  2  0  0  0
 15 16  1  0  0  0
 16 17  2  0  0  0
 16 24  1  0  0  0
 24 25  1  0  0  0
 24 26  1  0  0  0
 24 27  1  0  0  0
 14 18  1  0  0  0
 18 19  1  0  0  0
 19 20  2  0  0  0
 20 21  1  0  0  0
 21 22  1  0  0  0
 21 23  2  0  0  0
  3  4  2  0  0  0
  4  5  1  0  0  0
  5  6  2  0  0  0
  6  7  1  0  0  0
 35 36  2  0  0  0
 36 37  1  0  0  0
 37 38  2  0  0  0
 38 39  1  0  0  0
 39 31  1  0  0  0
 38 33  1  0  0  0
  6  1  1  0  0  0
 17 12  1  0  0  0
 23 18  1  0  0  0
 29 30  1  0  0  0
  8 11  1  0  0  0
 39 40  1  0  0  0
M  END
> <minimizedAffinity>
-9.43581

> <CNNscore>
0.1201522052

> <CNNaffinity>
6.0136461258

> <CNN_VS>
0.7225528359

> <CNNaffinity_variance>
0.3776531816

$$$$
[H]c1nc(N([H])[H])c([H])c(-n2c(N([H])c3c([H])c(N([H])C(=O)c4c([H])c(N5C([H])([H])C([H])([H])N(C([H])([H])C([H])([H])[H])C([H])([H])C5([H])[H])c([H])c(C(F)(F)F)c4[H])c([H])c([H])c3C([H])([H])[H])nc3c([H])c([H])c([H])c([H])c32)n1


 49 54  0  0  0  0  0  0  0  0999 V2000
  -17.9773   11.2140  -19.0762 C   0  0  0  0  0  0  0  0  0  0  0  0
  -16.8988   10.3253  -19.2992 C   0  0  0  0  0  0  0  0  0  0  0  0
  -16.1143   10.4164  -20.3941 C   0  0  0  0  0  0  0  0  0  0  0  0
  -16.3472   11.3733  -21.3140 C   0  0  0  0  0  0  0  0  0  0  0  0
  -15.4796   11.4188  -22.5354 C   0  0  0  0  0  0  0  0  0  0  0  0
  -17.4074   12.3181  -21.1841 C   0  0  0  0  0  0  0  0  0  0  0  0
  -18.1743   12.1759  -20.0452 C   0  0  0  0  0  0  0  0  0  0  0  0
  -19.1377    9.8889  -17.1706 C   0  0  0  0  0  0  0  0  0  0  0  0
  -18.9318    8.7243  -17.4784 O   0  0  0  0  0  0  0  0  0  0  0  0
  -18.7106   10.9943  -17.9176 N   0  0  0  0  0  0  0  0  0  0  0  0
  -19.1035   11.9475  -17.4816 H   0  0  0  0  0  0  0  0  0  0  0  0
  -21.5807   11.2685  -14.5702 C   0  0  0  0  0  0  0  0  0  0  0  0
  -20.9709   11.0240  -15.7969 C   0  0  0  0  0  0  0  0  0  0  0  0
  -19.8859   10.2086  -15.9047 C   0  0  0  0  0  0  0  0  0  0  0  0
  -19.3937    9.6132  -14.7290 C   0  0  0  0  0  0  0  0  0  0  0  0
  -19.9570    9.8245  -13.5132 C   0  0  0  0  0  0  0  0  0  0  0  0
  -21.0504   10.6523  -13.4450 C   0  0  0  0  0  0  0  0  0  0  0  0
  -24.4508   13.3703  -12.6232 N   0  0  0  0  0  0  0  0  0  0  0  0
  -24.4510   11.9435  -12.7717 C   0  0  0  0  0  0  0  0  0  0  0  0
  -24.0412   11.5085  -14.1940 C   0  0  0  0  0  0  0  0  0  0  0  0
  -22.7067   12.0921  -14.3669 N   0  0  0  0  0  0  0  0  0  0  0  0
  -22.6259   13.5419  -14.2556 C   0  0  0  0  0  0  0  0  0  0  0  0
  -23.2044   13.9893  -12.9310 C   0  0  0  0  0  0  0  0  0  0  0  0
  -25.6003   15.4812  -12.9434 C   0  0  0  0  0  0  0  0  0  0  0  0
  -25.5666   13.9943  -13.2807 C   0  0  0  0  0  0  0  0  0  0  0  0
  -19.3965    9.1813  -12.2595 C   0  0  0  0  0  0  0  0  0  0  0  0
  -18.9842   10.0989  -11.3542 F   0  0  0  0  0  0  0  0  0  0  0  0
  -20.4195    8.4381  -11.7332 F   0  0  0  0  0  0  0  0  0  0  0  0
  -18.3943    8.3130  -12.6628 F   0  0  0  0  0  0  0  0  0  0  0  0
  -17.5082   13.2481  -22.2053 N   0  0  0  0  0  0  0  0  0  0  0  0
  -17.1356   12.9204  -23.1725 H   0  0  0  0  0  0  0  0  0  0  0  0
  -17.9906   14.5654  -22.2278 C   0  0  0  0  0  0  0  0  0  0  0  0
  -18.9857   15.1691  -21.5460 N   0  0  0  0  0  0  0  0  0  0  0  0
  -19.1002   16.4629  -21.9063 C   0  0  0  0  0  0  0  0  0  0  0  0
  -19.9012   17.5405  -21.5582 C   0  0  0  0  0  0  0  0  0  0  0  0
  -19.7438   18.7998  -22.1382 C   0  0  0  0  0  0  0  0  0  0  0  0
  -18.7775   19.0227  -23.0922 C   0  0  0  0  0  0  0  0  0  0  0  0
  -17.9861   17.9651  -23.4456 C   0  0  0  0  0  0  0  0  0  0  0  0
  -18.1470   16.7075  -22.8592 C   0  0  0  0  0  0  0  0  0  0  0  0
  -17.4778   15.5474  -23.0458 N   0  0  0  0  0  0  0  0  0  0  0  0
  -16.4307   15.4248  -23.9684 C   0  0  0  0  0  0  0  0  0  0  0  0
  -16.5326   15.6871  -25.3169 C   0  0  0  0  0  0  0  0  0  0  0  0
  -15.4858   15.5327  -26.1744 C   0  0  0  0  0  0  0  0  0  0  0  0
  -15.4957   15.7758  -27.5661 N   0  0  0  0  0  0  0  0  0  0  0  0
  -14.2656   15.0887  -25.6923 N   0  0  0  0  0  0  0  0  0  0  0  0
  -14.1762   14.8405  -24.3906 C   0  0  0  0  0  0  0  0  0  0  0  0
  -15.1988   14.9996  -23.5726 N   0  0  0  0  0  0  0  0  0  0  0  0
  -16.0289   16.5219  -28.0302 H   0  0  0  0  0  0  0  0  0  0  0  0
  -14.9288   15.1477  -28.1781 H   0  0  0  0  0  0  0  0  0  0  0  0
 24 25  1  0  0  0
 25 18  1  0  0  0
 18 19  1  0  0  0
 19 20  1  0  0  0
 20 21  1  0  0  0
 21 22  1  0  0  0
 22 23  1  0  0  0
 21 12  1  0  0  0
 12 13  2  0  0  0
 13 14  1  0  0  0
 14 15  2  0  0  0
 15 16  1  0  0  0
 16 17  2  0  0  0
 16 26  1  0  0  0
 26 27  1  0  0  0
 26 28  1  0  0  0
 26 29  1  0  0  0
 14  8  1  0  0  0
  8  9  2  0  0  0
  8 10  1  0  0  0
 10  1  1  0  0  0
  1  2  2  0  0  0
  2  3  1  0  0  0
  3  4  2  0  0  0
  4  5  1  0  0  0
  4  6  1  0  0  0
  6 30  1  0  0  0
 30 32  1  0  0  0
 32 33  2  0  0  0
 33 34  1  0  0  0
 34 35  2  0  0  0
 35 36  1  0  0  0
 36 37  2  0  0  0
 37 38  1  0  0  0
 38 39  2  0  0  0
 39 40  1  0  0  0
 40 41  1  0  0  0
 41 42  2  0  0  0
 42 43  1  0  0  0
 43 44  1  0  0  0
 43 45  2  0  0  0
 45 46  1  0  0  0
 46 47  2  0  0  0
  6  7  2  0  0  0
 23 18  1  0  0  0
 17 12  1  0  0  0
  7  1  1  0  0  0
 40 32  1  0  0  0
 47 41  1  0  0  0
 39 34  1  0  0  0
 10 11  1  0  0  0
 30 31  1  0  0  0
 44 48  1  0  0  0
 44 49  1  0  0  0
M  END
> <minimizedAffinity>
-9.89137

> <CNNscore>
0.1935918629

> <CNNaffinity>
7.0653495789

> <CNN_VS>
1.3677941561

> <CNNaffinity_variance>
0.2405139506

$$$$
[H]c1nc(N([H])[H])c([H])c(-n2c(N([H])c3c([H])c(N([H])C(=O)c4c([H])c(N5C([H])([H])C([H])([H])N(C([H])([H])C([H])([H])[H])C([H])([H])C5([H])[H])c([H])c(C(F)(F)F)c4[H])c([H])c([H])c3C([H])([H])[H])nc3c([H])c([H])c([H])c([H])c32)n1


 49 54  0  0  0  0  0  0  0  0999 V2000
  -18.2527   11.0711  -18.8380 C   0  0  0  0  0  0  0  0  0  0  0  0
  -17.2299   10.1105  -19.0226 C   0  0  0  0  0  0  0  0  0  0  0  0
  -16.3722   10.1732  -20.0632 C   0  0  0  0  0  0  0  0  0  0  0  0
  -16.4748   11.1702  -20.9640 C   0  0  0  0  0  0  0  0  0  0  0  0
  -15.5295   11.1845  -22.1271 C   0  0  0  0  0  0  0  0  0  0  0  0
  -17.4693   12.1879  -20.8693 C   0  0  0  0  0  0  0  0  0  0  0  0
  -18.3161   12.0718  -19.7853 C   0  0  0  0  0  0  0  0  0  0  0  0
  -20.0695   11.5913  -17.0597 C   0  0  0  0  0  0  0  0  0  0  0  0
  -20.4298   12.7212  -17.3548 O   0  0  0  0  0  0  0  0  0  0  0  0
  -19.0730   10.8747  -17.7349 N   0  0  0  0  0  0  0  0  0  0  0  0
  -18.8574    9.9057  -17.2178 H   0  0  0  0  0  0  0  0  0  0  0  0
  -22.5464    9.9135  -14.6758 C   0  0  0  0  0  0  0  0  0  0  0  0
  -22.0415   10.5661  -15.7963 C   0  0  0  0  0  0  0  0  0  0  0  0
  -20.7199   10.8740  -15.9078 C   0  0  0  0  0  0  0  0  0  0  0  0
  -19.8700   10.5094  -14.8478 C   0  0  0  0  0  0  0  0  0  0  0  0
  -20.3200    9.8729  -13.7376 C   0  0  0  0  0  0  0  0  0  0  0  0
  -21.6590    9.5785  -13.6622 C   0  0  0  0  0  0  0  0  0  0  0  0
  -26.4893   10.2773  -13.7997 N   0  0  0  0  0  0  0  0  0  0  0  0
  -25.4416   10.2373  -12.8206 C   0  0  0  0  0  0  0  0  0  0  0  0
  -24.3810    9.1663  -13.1497 C   0  0  0  0  0  0  0  0  0  0  0  0
  -23.8950    9.5528  -14.4785 N   0  0  0  0  0  0  0  0  0  0  0  0
  -24.8952    9.5931  -15.5361 C   0  0  0  0  0  0  0  0  0  0  0  0
  -26.0352   10.5021  -15.1318 C   0  0  0  0  0  0  0  0  0  0  0  0
  -28.0317    9.1457  -12.3098 C   0  0  0  0  0  0  0  0  0  0  0  0
  -27.3886    9.1610  -13.6925 C   0  0  0  0  0  0  0  0  0  0  0  0
  -19.3836    9.5047  -12.6030 C   0  0  0  0  0  0  0  0  0  0  0  0
  -18.3873    8.6832  -13.0080 F   0  0  0  0  0  0  0  0  0  0  0  0
  -18.8566   10.6874  -12.1567 F   0  0  0  0  0  0  0  0  0  0  0  0
  -20.1644    8.9698  -11.5904 F   0  0  0  0  0  0  0  0  0  0  0  0
  -17.4359   13.1510  -21.8638 N   0  0  0  0  0  0  0  0  0  0  0  0
  -16.8242   12.9068  -22.7287 H   0  0  0  0  0  0  0  0  0  0  0  0
  -18.0362   14.4151  -21.9635 C   0  0  0  0  0  0  0  0  0  0  0  0
  -19.0822   14.9664  -21.3141 N   0  0  0  0  0  0  0  0  0  0  0  0
  -19.3139   16.2200  -21.7516 C   0  0  0  0  0  0  0  0  0  0  0  0
  -20.2098   17.2396  -21.4650 C   0  0  0  0  0  0  0  0  0  0  0  0
  -20.1677   18.4703  -22.1212 C   0  0  0  0  0  0  0  0  0  0  0  0
  -19.2257   18.7215  -23.0923 C   0  0  0  0  0  0  0  0  0  0  0  0
  -18.3413   17.7207  -23.3853 C   0  0  0  0  0  0  0  0  0  0  0  0
  -18.3871   16.4917  -22.7228 C   0  0  0  0  0  0  0  0  0  0  0  0
  -17.6150   15.3880  -22.8424 N   0  0  0  0  0  0  0  0  0  0  0  0
  -16.5610   15.3052  -23.7617 C   0  0  0  0  0  0  0  0  0  0  0  0
  -16.6579   15.6074  -25.1022 C   0  0  0  0  0  0  0  0  0  0  0  0
  -15.6043   15.4907  -25.9574 C   0  0  0  0  0  0  0  0  0  0  0  0
  -15.6085   15.7760  -27.3410 N   0  0  0  0  0  0  0  0  0  0  0  0
  -14.3821   15.0455  -25.4813 N   0  0  0  0  0  0  0  0  0  0  0  0
  -14.2977   14.7588  -24.1873 C   0  0  0  0  0  0  0  0  0  0  0  0
  -15.3269   14.8816  -23.3713 N   0  0  0  0  0  0  0  0  0  0  0  0
  -16.1472   16.5301  -27.7855 H   0  0  0  0  0  0  0  0  0  0  0  0
  -15.0310   15.1732  -27.9683 H   0  0  0  0  0  0  0  0  0  0  0  0
 24 25  1  0  0  0
 25 18  1  0  0  0
 18 19  1  0  0  0
 19 20  1  0  0  0
 20 21  1  0  0  0
 21 22  1  0  0  0
 22 23  1  0  0  0
 21 12  1  0  0  0
 12 13  2  0  0  0
 13 14  1  0  0  0
 14 15  2  0  0  0
 15 16  1  0  0  0
 16 17  2  0  0  0
 16 26  1  0  0  0
 26 27  1  0  0  0
 26 28  1  0  0  0
 26 29  1  0  0  0
 14  8  1  0  0  0
  8  9  2  0  0  0
  8 10  1  0  0  0
 10  1  1  0  0  0
  1  2  2  0  0  0
  2  3  1  0  0  0
  3  4  2  0  0  0
  4  5  1  0  0  0
  4  6  1  0  0  0
  6 30  1  0  0  0
 30 32  1  0  0  0
 32 33  2  0  0  0
 33 34  1  0  0  0
 34 35  2  0  0  0
 35 36  1  0  0  0
 36 37  2  0  0  0
 37 38  1  0  0  0
 38 39  2  0  0  0
 39 40  1  0  0  0
 40 41  1  0  0  0
 41 42  2  0  0  0
 42 43  1  0  0  0
 43 44  1  0  0  0
 43 45  2  0  0  0
 45 46  1  0  0  0
 46 47  2  0  0  0
  6  7  2  0  0  0
 23 18  1  0  0  0
 17 12  1  0  0  0
  7  1  1  0  0  0
 40 32  1  0  0  0
 47 41  1  0  0  0
 39 34  1  0  0  0
 10 11  1  0  0  0
 30 31  1  0  0  0
 44 48  1  0  0  0
 44 49  1  0  0  0
M  END
> <minimizedAffinity>
-9.57479

> <CNNscore>
0.1764204204

> <CNNaffinity>
6.9438157082

> <CNN_VS>
1.2250308990

> <CNNaffinity_variance>
0.1829168200

$$$$
[H]c1nc(N([H])[H])c([H])c(-n2c(N([H])c3c([H])c(N([H])C(=O)c4c([H])c(N5C([H])([H])C([H])([H])N(C([H])([H])C([H])([H])[H])C([H])([H])C5([H])[H])c([H])c(C(F)(F)F)c4[H])c([H])c([H])c3C([H])([H])[H])nc3c([H])c([H])c([H])c([H])c32)n1


 49 54  0  0  0  0  0  0  0  0999 V2000
  -18.3088   11.6933  -18.5242 C   0  0  0  0  0  0  0  0  0  0  0  0
  -17.1418   10.9575  -18.2091 C   0  0  0  0  0  0  0  0  0  0  0  0
  -16.2466   10.6009  -19.1545 C   0  0  0  0  0  0  0  0  0  0  0  0
  -16.4504   10.9446  -20.4415 C   0  0  0  0  0  0  0  0  0  0  0  0
  -15.4545   10.4973  -21.4685 C   0  0  0  0  0  0  0  0  0  0  0  0
  -17.5933   11.6854  -20.8641 C   0  0  0  0  0  0  0  0  0  0  0  0
  -18.4719   12.0219  -19.8540 C   0  0  0  0  0  0  0  0  0  0  0  0
  -20.3012   12.7442  -17.2359 C   0  0  0  0  0  0  0  0  0  0  0  0
  -20.8396   13.4431  -18.0815 O   0  0  0  0  0  0  0  0  0  0  0  0
  -19.1501   11.9770  -17.4564 N   0  0  0  0  0  0  0  0  0  0  0  0
  -18.7972   11.5032  -16.5057 H   0  0  0  0  0  0  0  0  0  0  0  0
  -22.3157   13.3109  -14.0337 C   0  0  0  0  0  0  0  0  0  0  0  0
  -21.8567   13.4629  -15.3385 C   0  0  0  0  0  0  0  0  0  0  0  0
  -20.8848   12.6591  -15.8514 C   0  0  0  0  0  0  0  0  0  0  0  0
  -20.3523   11.6597  -15.0169 C   0  0  0  0  0  0  0  0  0  0  0  0
  -20.7700   11.4771  -13.7392 C   0  0  0  0  0  0  0  0  0  0  0  0
  -21.7525   12.3068  -13.2580 C   0  0  0  0  0  0  0  0  0  0  0  0
  -24.0571   15.9623  -11.5071 N   0  0  0  0  0  0  0  0  0  0  0  0
  -23.6737   14.6284  -11.1443 C   0  0  0  0  0  0  0  0  0  0  0  0
  -24.0333   13.6035  -12.2400 C   0  0  0  0  0  0  0  0  0  0  0  0
  -23.3181   14.0923  -13.4236 N   0  0  0  0  0  0  0  0  0  0  0  0
  -23.6694   15.4325  -13.8721 C   0  0  0  0  0  0  0  0  0  0  0  0
  -23.4968   16.4170  -12.7362 C   0  0  0  0  0  0  0  0  0  0  0  0
  -25.9492   15.9552   -9.9907 C   0  0  0  0  0  0  0  0  0  0  0  0
  -25.4770   16.1708  -11.4246 C   0  0  0  0  0  0  0  0  0  0  0  0
  -20.1678   10.4010  -12.8566 C   0  0  0  0  0  0  0  0  0  0  0  0
  -19.9690   10.8310  -11.5889 F   0  0  0  0  0  0  0  0  0  0  0  0
  -21.0687    9.3694  -12.8602 F   0  0  0  0  0  0  0  0  0  0  0  0
  -19.0095    9.9658  -13.4811 F   0  0  0  0  0  0  0  0  0  0  0  0
  -17.6524   11.9734  -22.2174 N   0  0  0  0  0  0  0  0  0  0  0  0
  -18.3032   11.3290  -22.8030 H   0  0  0  0  0  0  0  0  0  0  0  0
  -17.0062   12.9443  -22.9972 C   0  0  0  0  0  0  0  0  0  0  0  0
  -16.2048   12.8411  -24.0773 N   0  0  0  0  0  0  0  0  0  0  0  0
  -15.7992   14.0572  -24.4938 C   0  0  0  0  0  0  0  0  0  0  0  0
  -15.0063   14.5621  -25.5138 C   0  0  0  0  0  0  0  0  0  0  0  0
  -14.7906   15.9310  -25.6774 C   0  0  0  0  0  0  0  0  0  0  0  0
  -15.3611   16.8436  -24.8200 C   0  0  0  0  0  0  0  0  0  0  0  0
  -16.1405   16.3552  -23.8083 C   0  0  0  0  0  0  0  0  0  0  0  0
  -16.3547   14.9837  -23.6516 C   0  0  0  0  0  0  0  0  0  0  0  0
  -17.0871   14.2960  -22.7466 N   0  0  0  0  0  0  0  0  0  0  0  0
  -17.7925   14.9290  -21.7148 C   0  0  0  0  0  0  0  0  0  0  0  0
  -17.2161   15.5172  -20.6105 C   0  0  0  0  0  0  0  0  0  0  0  0
  -17.9513   16.1033  -19.6251 C   0  0  0  0  0  0  0  0  0  0  0  0
  -17.4510   16.7284  -18.4612 N   0  0  0  0  0  0  0  0  0  0  0  0
  -19.3334   16.1118  -19.7151 N   0  0  0  0  0  0  0  0  0  0  0  0
  -19.8800   15.5444  -20.7843 C   0  0  0  0  0  0  0  0  0  0  0  0
  -19.1532   14.9849  -21.7323 N   0  0  0  0  0  0  0  0  0  0  0  0
  -16.5786   17.2696  -18.4116 H   0  0  0  0  0  0  0  0  0  0  0  0
  -17.9979   16.6295  -17.5772 H   0  0  0  0  0  0  0  0  0  0  0  0
 24 25  1  0  0  0
 25 18  1  0  0  0
 18 19  1  0  0  0
 19 20  1  0  0  0
 20 21  1  0  0  0
 21 22  1  0  0  0
 22 23  1  0  0  0
 21 12  1  0  0  0
 12 13  2  0  0  0
 13 14  1  0  0  0
 14 15  2  0  0  0
 15 16  1  0  0  0
 16 17  2  0  0  0
 16 26  1  0  0  0
 26 27  1  0  0  0
 26 28  1  0  0  0
 26 29  1  0  0  0
 14  8  1  0  0  0
  8  9  2  0  0  0
  8 10  1  0  0  0
 10  1  1  0  0  0
  1  2  2  0  0  0
  2  3  1  0  0  0
  3  4  2  0  0  0
  4  5  1  0  0  0
  4  6  1  0  0  0
  6 30  1  0  0  0
 30 32  1  0  0  0
 32 33  2  0  0  0
 33 34  1  0  0  0
 34 35  2  0  0  0
 35 36  1  0  0  0
 36 37  2  0  0  0
 37 38  1  0  0  0
 38 39  2  0  0  0
 39 40  1  0  0  0
 40 41  1  0  0  0
 41 42  2  0  0  0
 42 43  1  0  0  0
 43 44  1  0  0  0
 43 45  2  0  0  0
 45 46  1  0  0  0
 46 47  2  0  0  0
  6  7  2  0  0  0
 23 18  1  0  0  0
 17 12  1  0  0  0
  7  1  1  0  0  0
 40 32  1  0  0  0
 47 41  1  0  0  0
 39 34  1  0  0  0
 10 11  1  0  0  0
 30 31  1  0  0  0
 44 48  1  0  0  0
 44 49  1  0  0  0
M  END
> <minimizedAffinity>
-9.45047

> <CNNscore>
0.1757137030

> <CNNaffinity>
7.0565061569

> <CNN_VS>
1.2399247885

> <CNNaffinity_variance>
0.1881284118

$$$$
[H]c1nc(N([H])[H])c([H])c(-n2c(N([H])c3c([H])c(N([H])C(=O)c4c([H])c(N5C([H])([H])C([H])([H])N(C([H])([H])C([H])([H])[H])C([H])([H])C5([H])[H])c([H])c(C(F)(F)F)c4[H])c([H])c([H])c3C([H])([H])[H])nc3c([H])c([H])c([H])c([H])c32)n1


 49 54  0  0  0  0  0  0  0  0999 V2000
  -18.3522   11.7129  -18.7669 C   0  0  0  0  0  0  0  0  0  0  0  0
  -17.1948   11.0020  -18.3699 C   0  0  0  0  0  0  0  0  0  0  0  0
  -16.2441   10.6355  -19.2556 C   0  0  0  0  0  0  0  0  0  0  0  0
  -16.3811   10.9449  -20.5600 C   0  0  0  0  0  0  0  0  0  0  0  0
  -15.3242   10.4872  -21.5193 C   0  0  0  0  0  0  0  0  0  0  0  0
  -17.5086   11.6586  -21.0631 C   0  0  0  0  0  0  0  0  0  0  0  0
  -18.4459   12.0068  -20.1115 C   0  0  0  0  0  0  0  0  0  0  0  0
  -19.8865   11.3210  -16.7112 C   0  0  0  0  0  0  0  0  0  0  0  0
  -19.7559   10.1258  -16.4925 O   0  0  0  0  0  0  0  0  0  0  0  0
  -19.2548   12.0102  -17.7544 N   0  0  0  0  0  0  0  0  0  0  0  0
  -19.6080   13.0713  -17.8042 H   0  0  0  0  0  0  0  0  0  0  0  0
  -22.0499   12.6428  -13.8466 C   0  0  0  0  0  0  0  0  0  0  0  0
  -21.2240   11.8018  -14.5861 C   0  0  0  0  0  0  0  0  0  0  0  0
  -20.7653   12.1548  -15.8185 C   0  0  0  0  0  0  0  0  0  0  0  0
  -21.1533   13.4071  -16.3285 C   0  0  0  0  0  0  0  0  0  0  0  0
  -21.9571   14.2573  -15.6420 C   0  0  0  0  0  0  0  0  0  0  0  0
  -22.3986   13.8663  -14.4021 C   0  0  0  0  0  0  0  0  0  0  0  0
  -24.7171   11.6540  -10.9561 N   0  0  0  0  0  0  0  0  0  0  0  0
  -24.6421   12.9418  -11.5838 C   0  0  0  0  0  0  0  0  0  0  0  0
  -23.1850   13.4181  -11.7577 C   0  0  0  0  0  0  0  0  0  0  0  0
  -22.5661   12.3615  -12.5652 N   0  0  0  0  0  0  0  0  0  0  0  0
  -22.5791   11.0258  -11.9851 C   0  0  0  0  0  0  0  0  0  0  0  0
  -23.9974   10.6297  -11.6372 C   0  0  0  0  0  0  0  0  0  0  0  0
  -25.5880   12.3524   -8.8036 C   0  0  0  0  0  0  0  0  0  0  0  0
  -24.4249   11.7071   -9.5496 C   0  0  0  0  0  0  0  0  0  0  0  0
  -22.3719   15.5955  -16.2225 C   0  0  0  0  0  0  0  0  0  0  0  0
  -23.6891   15.6331  -16.5310 F   0  0  0  0  0  0  0  0  0  0  0  0
  -22.0962   16.5230  -15.2533 F   0  0  0  0  0  0  0  0  0  0  0  0
  -21.5428   15.8420  -17.3054 F   0  0  0  0  0  0  0  0  0  0  0  0
  -17.4967   11.9127  -22.4244 N   0  0  0  0  0  0  0  0  0  0  0  0
  -18.0657   11.2151  -23.0337 H   0  0  0  0  0  0  0  0  0  0  0  0
  -16.8630   12.9061  -23.1859 C   0  0  0  0  0  0  0  0  0  0  0  0
  -16.0603   12.8333  -24.2676 N   0  0  0  0  0  0  0  0  0  0  0  0
  -15.6705   14.0620  -24.6615 C   0  0  0  0  0  0  0  0  0  0  0  0
  -14.8842   14.5959  -25.6718 C   0  0  0  0  0  0  0  0  0  0  0  0
  -14.6861   15.9702  -25.8099 C   0  0  0  0  0  0  0  0  0  0  0  0
  -15.2683   16.8594  -24.9359 C   0  0  0  0  0  0  0  0  0  0  0  0
  -16.0413   16.3423  -23.9336 C   0  0  0  0  0  0  0  0  0  0  0  0
  -16.2378   14.9655  -23.8023 C   0  0  0  0  0  0  0  0  0  0  0  0
  -16.9613   14.2518  -22.9103 N   0  0  0  0  0  0  0  0  0  0  0  0
  -17.6746   14.8564  -21.8671 C   0  0  0  0  0  0  0  0  0  0  0  0
  -17.1090   15.3890  -20.7296 C   0  0  0  0  0  0  0  0  0  0  0  0
  -17.8521   15.9493  -19.7352 C   0  0  0  0  0  0  0  0  0  0  0  0
  -17.3630   16.5179  -18.5380 N   0  0  0  0  0  0  0  0  0  0  0  0
  -19.2319   15.9876  -19.8503 N   0  0  0  0  0  0  0  0  0  0  0  0
  -19.7681   15.4738  -20.9514 C   0  0  0  0  0  0  0  0  0  0  0  0
  -19.0335   14.9388  -21.9076 N   0  0  0  0  0  0  0  0  0  0  0  0
  -16.4819   17.0399  -18.4505 H   0  0  0  0  0  0  0  0  0  0  0  0
  -17.9285   16.3942  -17.6689 H   0  0  0  0  0  0  0  0  0  0  0  0
 24 25  1  0  0  0
 25 18  1  0  0  0
 18 19  1  0  0  0
 19 20  1  0  0  0
 20 21  1  0  0  0
 21 22  1  0  0  0
 22 23  1  0  0  0
 21 12  1  0  0  0
 12 13  2  0  0  0
 13 14  1  0  0  0
 14 15  2  0  0  0
 15 16  1  0  0  0
 16 17  2  0  0  0
 16 26  1  0  0  0
 26 27  1  0  0  0
 26 28  1  0  0  0
 26 29  1  0  0  0
 14  8  1  0  0  0
  8  9  2  0  0  0
  8 10  1  0  0  0
 10  1  1  0  0  0
  1  2  2  0  0  0
  2  3  1  0  0  0
  3  4  2  0  0  0
  4  5  1  0  0  0
  4  6  1  0  0  0
  6 30  1  0  0  0
 30 32  1  0  0  0
 32 33  2  0  0  0
 33 34  1  0  0  0
 34 35  2  0  0  0
 35 36  1  0  0  0
 36 37  2  0  0  0
 37 38  1  0  0  0
 38 39  2  0  0  0
 39 40  1  0  0  0
 40 41  1  0  0  0
 41 42  2  0  0  0
 42 43  1  0  0  0
 43 44  1  0  0  0
 43 45  2  0  0  0
 45 46  1  0  0  0
 46 47  2  0  0  0
  6  7  2  0  0  0
 23 18  1  0  0  0
 17 12  1  0  0  0
  7  1  1  0  0  0
 40 32  1  0  0  0
 47 41  1  0  0  0
 39 34  1  0  0  0
 10 11  1  0  0  0
 30 31  1  0  0  0
 44 48  1  0  0  0
 44 49  1  0  0  0
M  END
> <minimizedAffinity>
-9.11458

> <CNNscore>
0.1410691589

> <CNNaffinity>
6.9410772324

> <CNN_VS>
0.9791719317

> <CNNaffinity_variance>
0.2922411561

$$$$
[H]c1nc(N([H])[H])c([H])c(-n2c(N([H])c3c([H])c(N([H])C(=O)c4c([H])c(N5C([H])([H])C([H])([H])N(C([H])([H])C([H])([H])[H])C([H])([H])C5([H])[H])c([H])c(C(F)(F)F)c4[H])c([H])c([H])c3C([H])([H])[H])nc3c([H])c([H])c([H])c([H])c32)n1


 49 54  0  0  0  0  0  0  0  0999 V2000
  -18.2069   11.0842  -18.6499 C   0  0  0  0  0  0  0  0  0  0  0  0
  -17.3581   10.0335  -19.0720 C   0  0  0  0  0  0  0  0  0  0  0  0
  -16.5757   10.1447  -20.1665 C   0  0  0  0  0  0  0  0  0  0  0  0
  -16.5878   11.2798  -20.8928 C   0  0  0  0  0  0  0  0  0  0  0  0
  -15.7350   11.3516  -22.1234 C   0  0  0  0  0  0  0  0  0  0  0  0
  -17.4063   12.3971  -20.5532 C   0  0  0  0  0  0  0  0  0  0  0  0
  -18.1831   12.2250  -19.4252 C   0  0  0  0  0  0  0  0  0  0  0  0
  -19.8121   11.5507  -16.6652 C   0  0  0  0  0  0  0  0  0  0  0  0
  -20.0384   12.7473  -16.7679 O   0  0  0  0  0  0  0  0  0  0  0  0
  -18.9685   10.8269  -17.5176 N   0  0  0  0  0  0  0  0  0  0  0  0
  -18.8487    9.7727  -17.1610 H   0  0  0  0  0  0  0  0  0  0  0  0
  -20.6496    9.7514  -13.3949 C   0  0  0  0  0  0  0  0  0  0  0  0
  -19.9637   10.5198  -14.3306 C   0  0  0  0  0  0  0  0  0  0  0  0
  -20.4716   10.7543  -15.5719 C   0  0  0  0  0  0  0  0  0  0  0  0
  -21.7227   10.1926  -15.8853 C   0  0  0  0  0  0  0  0  0  0  0  0
  -22.4247    9.4371  -15.0040 C   0  0  0  0  0  0  0  0  0  0  0  0
  -21.8801    9.2238  -13.7618 C   0  0  0  0  0  0  0  0  0  0  0  0
  -18.1094    9.1872  -10.2845 N   0  0  0  0  0  0  0  0  0  0  0  0
  -18.3111    8.2453  -11.3475 C   0  0  0  0  0  0  0  0  0  0  0  0
  -19.8016    8.1007  -11.7189 C   0  0  0  0  0  0  0  0  0  0  0  0
  -20.2028    9.4620  -12.0895 N   0  0  0  0  0  0  0  0  0  0  0  0
  -20.0519   10.4750  -11.0542 C   0  0  0  0  0  0  0  0  0  0  0  0
  -18.6247   10.4888  -10.5520 C   0  0  0  0  0  0  0  0  0  0  0  0
  -17.9506    7.2704   -8.8079 C   0  0  0  0  0  0  0  0  0  0  0  0
  -18.5167    8.6726   -9.0055 C   0  0  0  0  0  0  0  0  0  0  0  0
  -23.7648    8.8313  -15.3738 C   0  0  0  0  0  0  0  0  0  0  0  0
  -23.6346    7.7651  -16.1972 F   0  0  0  0  0  0  0  0  0  0  0  0
  -24.3339    8.4373  -14.1920 F   0  0  0  0  0  0  0  0  0  0  0  0
  -24.5373    9.8510  -15.9071 F   0  0  0  0  0  0  0  0  0  0  0  0
  -17.2960   13.4953  -21.3896 N   0  0  0  0  0  0  0  0  0  0  0  0
  -16.4307   13.4949  -22.0477 H   0  0  0  0  0  0  0  0  0  0  0  0
  -18.0917   14.6409  -21.5405 C   0  0  0  0  0  0  0  0  0  0  0  0
  -18.9714   15.2391  -20.7111 N   0  0  0  0  0  0  0  0  0  0  0  0
  -19.5187   16.3254  -21.2918 C   0  0  0  0  0  0  0  0  0  0  0  0
  -20.4391   17.3018  -20.9406 C   0  0  0  0  0  0  0  0  0  0  0  0
  -20.7898   18.3371  -21.8080 C   0  0  0  0  0  0  0  0  0  0  0  0
  -20.2309   18.4281  -23.0621 C   0  0  0  0  0  0  0  0  0  0  0  0
  -19.3262   17.4671  -23.4193 C   0  0  0  0  0  0  0  0  0  0  0  0
  -18.9774   16.4347  -22.5453 C   0  0  0  0  0  0  0  0  0  0  0  0
  -18.1106   15.4063  -22.6852 N   0  0  0  0  0  0  0  0  0  0  0  0
  -17.3779   15.1966  -23.8607 C   0  0  0  0  0  0  0  0  0  0  0  0
  -16.3178   15.9709  -24.2783 C   0  0  0  0  0  0  0  0  0  0  0  0
  -15.6512   15.7339  -25.4421 C   0  0  0  0  0  0  0  0  0  0  0  0
  -14.5578   16.4704  -25.9501 N   0  0  0  0  0  0  0  0  0  0  0  0
  -16.0442   14.6831  -26.2544 N   0  0  0  0  0  0  0  0  0  0  0  0
  -17.0656   13.9408  -25.8426 C   0  0  0  0  0  0  0  0  0  0  0  0
  -17.6978   14.1811  -24.7100 N   0  0  0  0  0  0  0  0  0  0  0  0
  -13.8196   16.8994  -25.3780 H   0  0  0  0  0  0  0  0  0  0  0  0
  -14.4928   16.6024  -26.9839 H   0  0  0  0  0  0  0  0  0  0  0  0
 24 25  1  0  0  0
 25 18  1  0  0  0
 18 19  1  0  0  0
 19 20  1  0  0  0
 20 21  1  0  0  0
 21 22  1  0  0  0
 22 23  1  0  0  0
 21 12  1  0  0  0
 12 13  2  0  0  0
 13 14  1  0  0  0
 14 15  2  0  0  0
 15 16  1  0  0  0
 16 17  2  0  0  0
 16 26  1  0  0  0
 26 27  1  0  0  0
 26 28  1  0  0  0
 26 29  1  0  0  0
 14  8  1  0  0  0
  8  9  2  0  0  0
  8 10  1  0  0  0
 10  1  1  0  0  0
  1  2  2  0  0  0
  2  3  1  0  0  0
  3  4  2  0  0  0
  4  5  1  0  0  0
  4  6  1  0  0  0
  6 30  1  0  0  0
 30 32  1  0  0  0
 32 33  2  0  0  0
 33 34  1  0  0  0
 34 35  2  0  0  0
 35 36  1  0  0  0
 36 37  2  0  0  0
 37 38  1  0  0  0
 38 39  2  0  0  0
 39 40  1  0  0  0
 40 41  1  0  0  0
 41 42  2  0  0  0
 42 43  1  0  0  0
 43 44  1  0  0  0
 43 45  2  0  0  0
 45 46  1  0  0  0
 46 47  2  0  0  0
  6  7  2  0  0  0
 23 18  1  0  0  0
 17 12  1  0  0  0
  7  1  1  0  0  0
 40 32  1  0  0  0
 47 41  1  0  0  0
 39 34  1  0  0  0
 10 11  1  0  0  0
 30 31  1  0  0  0
 44 48  1  0  0  0
 44 49  1  0  0  0
M  END
> <minimizedAffinity>
-10.13785

> <CNNscore>
0.1406755745

> <CNNaffinity>
7.0535736084

> <CNN_VS>
0.9922655225

> <CNNaffinity_variance>
0.1507671773

$$$$
[H]c1nc(N([H])[H])c([H])c(-n2c(N([H])c3c([H])c(N([H])C(=O)c4c([H])c(N5C([H])([H])C([H])([H])N(C([H])([H])C([H])([H])[H])C([H])([H])C5([H])[H])c([H])c(C(F)(F)F)c4[H])c([H])c([H])c3C([H])([H])[H])nc3c([H])c([H])c([H])c([H])c32)n1


 49 54  0  0  0  0  0  0  0  0999 V2000
  -18.4666   11.7666  -18.6308 C   0  0  0  0  0  0  0  0  0  0  0  0
  -17.3093   11.0623  -18.2218 C   0  0  0  0  0  0  0  0  0  0  0  0
  -16.3535   10.6902  -19.0995 C   0  0  0  0  0  0  0  0  0  0  0  0
  -16.4849   10.9874  -20.4074 C   0  0  0  0  0  0  0  0  0  0  0  0
  -15.4223   10.5238  -21.3574 C   0  0  0  0  0  0  0  0  0  0  0  0
  -17.6117   11.6937  -20.9223 C   0  0  0  0  0  0  0  0  0  0  0  0
  -18.5545   12.0481  -19.9785 C   0  0  0  0  0  0  0  0  0  0  0  0
  -20.1144   11.3666  -16.6666 C   0  0  0  0  0  0  0  0  0  0  0  0
  -20.1139   10.1502  -16.5486 O   0  0  0  0  0  0  0  0  0  0  0  0
  -19.3748   12.0708  -17.6254 N   0  0  0  0  0  0  0  0  0  0  0  0
  -19.6169   13.1632  -17.5939 H   0  0  0  0  0  0  0  0  0  0  0  0
  -22.1864   14.1510  -15.0581 C   0  0  0  0  0  0  0  0  0  0  0  0
  -21.4472   13.4445  -16.0020 C   0  0  0  0  0  0  0  0  0  0  0  0
  -20.9401   12.2099  -15.7330 C   0  0  0  0  0  0  0  0  0  0  0  0
  -21.1874   11.6623  -14.4611 C   0  0  0  0  0  0  0  0  0  0  0  0
  -21.9020   12.3164  -13.5115 C   0  0  0  0  0  0  0  0  0  0  0  0
  -22.3979   13.5589  -13.8204 C   0  0  0  0  0  0  0  0  0  0  0  0
  -22.4880   18.1929  -15.1927 N   0  0  0  0  0  0  0  0  0  0  0  0
  -22.5207   17.4173  -13.9864 C   0  0  0  0  0  0  0  0  0  0  0  0
  -23.3811   16.1457  -14.1378 C   0  0  0  0  0  0  0  0  0  0  0  0
  -22.7512   15.4282  -15.2513 N   0  0  0  0  0  0  0  0  0  0  0  0
  -22.7009   16.1398  -16.5208 C   0  0  0  0  0  0  0  0  0  0  0  0
  -22.0205   17.4783  -16.3339 C   0  0  0  0  0  0  0  0  0  0  0  0
  -23.9827   19.8817  -14.3020 C   0  0  0  0  0  0  0  0  0  0  0  0
  -23.7203   18.8930  -15.4330 C   0  0  0  0  0  0  0  0  0  0  0  0
  -22.1408   11.7083  -12.1429 C   0  0  0  0  0  0  0  0  0  0  0  0
  -23.4498   11.4455  -11.9212 F   0  0  0  0  0  0  0  0  0  0  0  0
  -21.4242   10.5414  -12.1239 F   0  0  0  0  0  0  0  0  0  0  0  0
  -21.5849   12.5725  -11.2129 F   0  0  0  0  0  0  0  0  0  0  0  0
  -17.5938   11.9356  -22.2858 N   0  0  0  0  0  0  0  0  0  0  0  0
  -18.1638   11.2350  -22.8908 H   0  0  0  0  0  0  0  0  0  0  0  0
  -16.9531   12.9193  -23.0539 C   0  0  0  0  0  0  0  0  0  0  0  0
  -16.1462   12.8332  -24.1315 N   0  0  0  0  0  0  0  0  0  0  0  0
  -15.7499   14.0566  -24.5352 C   0  0  0  0  0  0  0  0  0  0  0  0
  -14.9573   14.5779  -25.5471 C   0  0  0  0  0  0  0  0  0  0  0  0
  -14.7532   15.9501  -25.6972 C   0  0  0  0  0  0  0  0  0  0  0  0
  -15.3354   16.8498  -24.8340 C   0  0  0  0  0  0  0  0  0  0  0  0
  -16.1146   16.3451  -23.8302 C   0  0  0  0  0  0  0  0  0  0  0  0
  -16.3171   14.9703  -23.6869 C   0  0  0  0  0  0  0  0  0  0  0  0
  -17.0472   14.2679  -22.7913 N   0  0  0  0  0  0  0  0  0  0  0  0
  -17.7624   14.8851  -21.7568 C   0  0  0  0  0  0  0  0  0  0  0  0
  -17.1972   15.4502  -20.6348 C   0  0  0  0  0  0  0  0  0  0  0  0
  -17.9420   16.0215  -19.6479 C   0  0  0  0  0  0  0  0  0  0  0  0
  -17.4534   16.6228  -18.4666 N   0  0  0  0  0  0  0  0  0  0  0  0
  -19.3229   16.0380  -19.7547 N   0  0  0  0  0  0  0  0  0  0  0  0
  -19.8587   15.4929  -20.8409 C   0  0  0  0  0  0  0  0  0  0  0  0
  -19.1226   14.9475  -21.7901 N   0  0  0  0  0  0  0  0  0  0  0  0
  -16.5793   17.1589  -18.3963 H   0  0  0  0  0  0  0  0  0  0  0  0
  -18.0117   16.5102  -17.5913 H   0  0  0  0  0  0  0  0  0  0  0  0
 24 25  1  0  0  0
 25 18  1  0  0  0
 18 19  1  0  0  0
 19 20  1  0  0  0
 20 21  1  0  0  0
 21 22  1  0  0  0
 22 23  1  0  0  0
 21 12  1  0  0  0
 12 13  2  0  0  0
 13 14  1  0  0  0
 14 15  2  0  0  0
 15 16  1  0  0  0
 16 17  2  0  0  0
 16 26  1  0  0  0
 26 27  1  0  0  0
 26 28  1  0  0  0
 26 29  1  0  0  0
 14  8  1  0  0  0
  8  9  2  0  0  0
  8 10  1  0  0  0
 10  1  1  0  0  0
  1  2  2  0  0  0
  2  3  1  0  0  0
  3  4  2  0  0  0
  4  5  1  0  0  0
  4  6  1  0  0  0
  6 30  1  0  0  0
 30 32  1  0  0  0
 32 33  2  0  0  0
 33 34  1  0  0  0
 34 35  2  0  0  0
 35 36  1  0  0  0
 36 37  2  0  0  0
 37 38  1  0  0  0
 38 39  2  0  0  0
 39 40  1  0  0  0
 40 41  1  0  0  0
 41 42  2  0  0  0
 42 43  1  0  0  0
 43 44  1  0  0  0
 43 45  2  0  0  0
 45 46  1  0  0  0
 46 47  2  0  0  0
  6  7  2  0  0  0
 23 18  1  0  0  0
 17 12  1  0  0  0
  7  1  1  0  0  0
 40 32  1  0  0  0
 47 41  1  0  0  0
 39 34  1  0  0  0
 10 11  1  0  0  0
 30 31  1  0  0  0
 44 48  1  0  0  0
 44 49  1  0  0  0
M  END
> <minimizedAffinity>
-9.37830

> <CNNscore>
0.1405580044

> <CNNaffinity>
7.0608010292

> <CNN_VS>
0.9924520850

> <CNNaffinity_variance>
0.3045843244

$$$$
[H]c1nc(N([H])[H])c([H])c(-n2c(N([H])c3c([H])c(N([H])C(=O)c4c([H])c(N5C([H])([H])C([H])([H])N(C([H])([H])C([H])([H])[H])C([H])([H])C5([H])[H])c([H])c(C(F)(F)F)c4[H])c([H])c([H])c3C([H])([H])[H])nc3c([H])c([H])c([H])c([H])c32)n1


 49 54  0  0  0  0  0  0  0  0999 V2000
  -18.1235   11.2548  -19.0914 C   0  0  0  0  0  0  0  0  0  0  0  0
  -17.0218   10.3890  -19.2894 C   0  0  0  0  0  0  0  0  0  0  0  0
  -16.2178   10.4932  -20.3688 C   0  0  0  0  0  0  0  0  0  0  0  0
  -16.4530   11.4414  -21.2970 C   0  0  0  0  0  0  0  0  0  0  0  0
  -15.5624   11.5013  -22.5012 C   0  0  0  0  0  0  0  0  0  0  0  0
  -17.5358   12.3634  -21.1921 C   0  0  0  0  0  0  0  0  0  0  0  0
  -18.3220   12.2087  -20.0680 C   0  0  0  0  0  0  0  0  0  0  0  0
  -19.5236   11.7957  -16.9746 C   0  0  0  0  0  0  0  0  0  0  0  0
  -19.5124   13.0172  -16.9403 O   0  0  0  0  0  0  0  0  0  0  0  0
  -18.8749   11.0234  -17.9468 N   0  0  0  0  0  0  0  0  0  0  0  0
  -18.9520    9.9326  -17.7078 H   0  0  0  0  0  0  0  0  0  0  0  0
  -21.6535   10.7476  -13.9748 C   0  0  0  0  0  0  0  0  0  0  0  0
  -20.9993   11.5543  -14.9009 C   0  0  0  0  0  0  0  0  0  0  0  0
  -20.2833   11.0234  -15.9301 C   0  0  0  0  0  0  0  0  0  0  0  0
  -20.2232    9.6217  -16.0327 C   0  0  0  0  0  0  0  0  0  0  0  0
  -20.8451    8.7984  -15.1519 C   0  0  0  0  0  0  0  0  0  0  0  0
  -21.5583    9.3712  -14.1280 C   0  0  0  0  0  0  0  0  0  0  0  0
  -22.7076   11.5596  -10.1440 N   0  0  0  0  0  0  0  0  0  0  0  0
  -22.7744   10.2586  -10.7448 C   0  0  0  0  0  0  0  0  0  0  0  0
  -23.3387   10.3110  -12.1797 C   0  0  0  0  0  0  0  0  0  0  0  0
  -22.4183   11.2097  -12.8844 N   0  0  0  0  0  0  0  0  0  0  0  0
  -22.3123   12.5602  -12.3500 C   0  0  0  0  0  0  0  0  0  0  0  0
  -21.9410   12.5059  -10.8842 C   0  0  0  0  0  0  0  0  0  0  0  0
  -23.8452   13.3809   -9.0177 C   0  0  0  0  0  0  0  0  0  0  0  0
  -24.0003   12.0585   -9.7613 C   0  0  0  0  0  0  0  0  0  0  0  0
  -20.7512    7.2900  -15.2779 C   0  0  0  0  0  0  0  0  0  0  0  0
  -20.8568    6.8763  -16.5621 F   0  0  0  0  0  0  0  0  0  0  0  0
  -19.5206    6.9510  -14.7814 F   0  0  0  0  0  0  0  0  0  0  0  0
  -21.7176    6.7526  -14.4423 F   0  0  0  0  0  0  0  0  0  0  0  0
  -17.6363   13.2873  -22.2188 N   0  0  0  0  0  0  0  0  0  0  0  0
  -17.2950   12.9420  -23.1915 H   0  0  0  0  0  0  0  0  0  0  0  0
  -18.0849   14.6164  -22.2419 C   0  0  0  0  0  0  0  0  0  0  0  0
  -19.0749   15.2419  -21.5723 N   0  0  0  0  0  0  0  0  0  0  0  0
  -19.1511   16.5398  -21.9275 C   0  0  0  0  0  0  0  0  0  0  0  0
  -19.9300   17.6356  -21.5860 C   0  0  0  0  0  0  0  0  0  0  0  0
  -19.7319   18.8934  -22.1569 C   0  0  0  0  0  0  0  0  0  0  0  0
  -18.7456   19.0963  -23.0948 C   0  0  0  0  0  0  0  0  0  0  0  0
  -17.9758   18.0208  -23.4415 C   0  0  0  0  0  0  0  0  0  0  0  0
  -18.1775   16.7648  -22.8643 C   0  0  0  0  0  0  0  0  0  0  0  0
  -17.5350   15.5891  -23.0467 N   0  0  0  0  0  0  0  0  0  0  0  0
  -16.4771   15.4445  -23.9538 C   0  0  0  0  0  0  0  0  0  0  0  0
  -16.5546   15.7053  -25.3042 C   0  0  0  0  0  0  0  0  0  0  0  0
  -15.4986   15.5291  -26.1461 C   0  0  0  0  0  0  0  0  0  0  0  0
  -15.4838   15.7688  -27.5383 N   0  0  0  0  0  0  0  0  0  0  0  0
  -14.2940   15.0634  -25.6454 N   0  0  0  0  0  0  0  0  0  0  0  0
  -14.2281   14.8170  -24.3420 C   0  0  0  0  0  0  0  0  0  0  0  0
  -15.2592   14.9973  -23.5392 N   0  0  0  0  0  0  0  0  0  0  0  0
  -15.9961   16.5236  -28.0118 H   0  0  0  0  0  0  0  0  0  0  0  0
  -14.9200   15.1286  -28.1406 H   0  0  0  0  0  0  0  0  0  0  0  0
 24 25  1  0  0  0
 25 18  1  0  0  0
 18 19  1  0  0  0
 19 20  1  0  0  0
 20 21  1  0  0  0
 21 22  1  0  0  0
 22 23  1  0  0  0
 21 12  1  0  0  0
 12 13  2  0  0  0
 13 14  1  0  0  0
 14 15  2  0  0  0
 15 16  1  0  0  0
 16 17  2  0  0  0
 16 26  1  0  0  0
 26 27  1  0  0  0
 26 28  1  0  0  0
 26 29  1  0  0  0
 14  8  1  0  0  0
  8  9  2  0  0  0
  8 10  1  0  0  0
 10  1  1  0  0  0
  1  2  2  0  0  0
  2  3  1  0  0  0
  3  4  2  0  0  0
  4  5  1  0  0  0
  4  6  1  0  0  0
  6 30  1  0  0  0
 30 32  1  0  0  0
 32 33  2  0  0  0
 33 34  1  0  0  0
 34 35  2  0  0  0
 35 36  1  0  0  0
 36 37  2  0  0  0
 37 38  1  0  0  0
 38 39  2  0  0  0
 39 40  1  0  0  0
 40 41  1  0  0  0
 41 42  2  0  0  0
 42 43  1  0  0  0
 43 44  1  0  0  0
 43 45  2  0  0  0
 45 46  1  0  0  0
 46 47  2  0  0  0
  6  7  2  0  0  0
 23 18  1  0  0  0
 17 12  1  0  0  0
  7  1  1  0  0  0
 40 32  1  0  0  0
 47 41  1  0  0  0
 39 34  1  0  0  0
 10 11  1  0  0  0
 30 31  1  0  0  0
 44 48  1  0  0  0
 44 49  1  0  0  0
M  END
> <minimizedAffinity>
-9.52892

> <CNNscore>
0.1369616538

> <CNNaffinity>
6.8689193726

> <CNN_VS>
0.9407785535

> <CNNaffinity_variance>
0.2530123591

$$$$
[H]c1nc(N([H])[H])c([H])c(-n2c(N([H])c3c([H])c(N([H])C(=O)c4c([H])c(N5C([H])([H])C([H])([H])N(C([H])([H])C([H])([H])[H])C([H])([H])C5([H])[H])c([H])c(C(F)(F)F)c4[H])c([H])c([H])c3C([H])([H])[H])nc3c([H])c([H])c([H])c([H])c32)n1


 49 54  0  0  0  0  0  0  0  0999 V2000
  -17.9628   11.2776  -19.1918 C   0  0  0  0  0  0  0  0  0  0  0  0
  -16.8845   10.3857  -19.4022 C   0  0  0  0  0  0  0  0  0  0  0  0
  -16.0871   10.4743  -20.4880 C   0  0  0  0  0  0  0  0  0  0  0  0
  -16.3065   11.4318  -21.4106 C   0  0  0  0  0  0  0  0  0  0  0  0
  -15.4246   11.4745  -22.6218 C   0  0  0  0  0  0  0  0  0  0  0  0
  -17.3653   12.3798  -21.2930 C   0  0  0  0  0  0  0  0  0  0  0  0
  -18.1457   12.2400  -20.1630 C   0  0  0  0  0  0  0  0  0  0  0  0
  -19.5702   11.8044  -17.2239 C   0  0  0  0  0  0  0  0  0  0  0  0
  -19.8323   12.9864  -17.3898 O   0  0  0  0  0  0  0  0  0  0  0  0
  -18.7102   11.0602  -18.0418 N   0  0  0  0  0  0  0  0  0  0  0  0
  -18.5572   10.0309  -17.6292 H   0  0  0  0  0  0  0  0  0  0  0  0
  -20.9210    9.0964  -14.8839 C   0  0  0  0  0  0  0  0  0  0  0  0
  -20.3010    9.6963  -15.9757 C   0  0  0  0  0  0  0  0  0  0  0  0
  -20.1997   11.0497  -16.0843 C   0  0  0  0  0  0  0  0  0  0  0  0
  -20.7443   11.8331  -15.0506 C   0  0  0  0  0  0  0  0  0  0  0  0
  -21.3574   11.2900  -13.9692 C   0  0  0  0  0  0  0  0  0  0  0  0
  -21.4392    9.9214  -13.8949 C   0  0  0  0  0  0  0  0  0  0  0  0
  -22.7189    5.4918  -14.4150 N   0  0  0  0  0  0  0  0  0  0  0  0
  -22.6364    6.4955  -13.3935 C   0  0  0  0  0  0  0  0  0  0  0  0
  -21.2429    7.1556  -13.3403 C   0  0  0  0  0  0  0  0  0  0  0  0
  -21.0665    7.7079  -14.6876 N   0  0  0  0  0  0  0  0  0  0  0  0
  -21.1123    6.7474  -15.7813 C   0  0  0  0  0  0  0  0  0  0  0  0
  -22.4046    5.9626  -15.7230 C   0  0  0  0  0  0  0  0  0  0  0  0
  -22.3374    3.1889  -15.0716 C   0  0  0  0  0  0  0  0  0  0  0  0
  -22.0142    4.2886  -14.0656 C   0  0  0  0  0  0  0  0  0  0  0  0
  -21.9491   12.1590  -12.8763 C   0  0  0  0  0  0  0  0  0  0  0  0
  -22.1566   13.4308  -13.2901 F   0  0  0  0  0  0  0  0  0  0  0  0
  -23.1445   11.5784  -12.5454 F   0  0  0  0  0  0  0  0  0  0  0  0
  -21.1046   12.0644  -11.7814 F   0  0  0  0  0  0  0  0  0  0  0  0
  -17.4514   13.3099  -22.3154 N   0  0  0  0  0  0  0  0  0  0  0  0
  -17.0677   12.9813  -23.2780 H   0  0  0  0  0  0  0  0  0  0  0  0
  -17.9306   14.6283  -22.3439 C   0  0  0  0  0  0  0  0  0  0  0  0
  -18.9263   15.2367  -21.6673 N   0  0  0  0  0  0  0  0  0  0  0  0
  -19.0366   16.5295  -22.0323 C   0  0  0  0  0  0  0  0  0  0  0  0
  -19.8361   17.6102  -21.6903 C   0  0  0  0  0  0  0  0  0  0  0  0
  -19.6739   18.8672  -22.2741 C   0  0  0  0  0  0  0  0  0  0  0  0
  -18.7041   19.0845  -23.2258 C   0  0  0  0  0  0  0  0  0  0  0  0
  -17.9141   18.0238  -23.5731 C   0  0  0  0  0  0  0  0  0  0  0  0
  -18.0799   16.7686  -22.9830 C   0  0  0  0  0  0  0  0  0  0  0  0
  -17.4129   15.6063  -23.1636 N   0  0  0  0  0  0  0  0  0  0  0  0
  -16.3632   15.4781  -24.0825 C   0  0  0  0  0  0  0  0  0  0  0  0
  -16.4606   15.7351  -25.4323 C   0  0  0  0  0  0  0  0  0  0  0  0
  -15.4114   15.5754  -26.2860 C   0  0  0  0  0  0  0  0  0  0  0  0
  -15.4166   15.8129  -27.6787 N   0  0  0  0  0  0  0  0  0  0  0  0
  -14.1935   15.1310  -25.7984 N   0  0  0  0  0  0  0  0  0  0  0  0
  -14.1085   14.8880  -24.4955 C   0  0  0  0  0  0  0  0  0  0  0  0
  -15.1333   15.0522  -23.6813 N   0  0  0  0  0  0  0  0  0  0  0  0
  -15.9470   16.5581  -28.1474 H   0  0  0  0  0  0  0  0  0  0  0  0
  -14.8489   15.1813  -28.2864 H   0  0  0  0  0  0  0  0  0  0  0  0
 24 25  1  0  0  0
 25 18  1  0  0  0
 18 19  1  0  0  0
 19 20  1  0  0  0
 20 21  1  0  0  0
 21 22  1  0  0  0
 22 23  1  0  0  0
 21 12  1  0  0  0
 12 13  2  0  0  0
 13 14  1  0  0  0
 14 15  2  0  0  0
 15 16  1  0  0  0
 16 17  2  0  0  0
 16 26  1  0  0  0
 26 27  1  0  0  0
 26 28  1  0  0  0
 26 29  1  0  0  0
 14  8  1  0  0  0
  8  9  2  0  0  0
  8 10  1  0  0  0
 10  1  1  0  0  0
  1  2  2  0  0  0
  2  3  1  0  0  0
  3  4  2  0  0  0
  4  5  1  0  0  0
  4  6  1  0  0  0
  6 30  1  0  0  0
 30 32  1  0  0  0
 32 33  2  0  0  0
 33 34  1  0  0  0
 34 35  2  0  0  0
 35 36  1  0  0  0
 36 37  2  0  0  0
 37 38  1  0  0  0
 38 39  2  0  0  0
 39 40  1  0  0  0
 40 41  1  0  0  0
 41 42  2  0  0  0
 42 43  1  0  0  0
 43 44  1  0  0  0
 43 45  2  0  0  0
 45 46  1  0  0  0
 46 47  2  0  0  0
  6  7  2  0  0  0
 23 18  1  0  0  0
 17 12  1  0  0  0
  7  1  1  0  0  0
 40 32  1  0  0  0
 47 41  1  0  0  0
 39 34  1  0  0  0
 10 11  1  0  0  0
 30 31  1  0  0  0
 44 48  1  0  0  0
 44 49  1  0  0  0
M  END
> <minimizedAffinity>
-10.04245

> <CNNscore>
0.1185082197

> <CNNaffinity>
6.8285589218

> <CNN_VS>
0.8092403412

> <CNNaffinity_variance>
0.3798245192

$$$$
[H]c1nc(N([H])[H])c([H])c(-n2c(N([H])c3c([H])c(N([H])C(=O)c4c([H])c(N5C([H])([H])C([H])([H])N(C([H])([H])C([H])([H])[H])C([H])([H])C5([H])[H])c([H])c(C(F)(F)F)c4[H])c([H])c([H])c3C([H])([H])[H])nc3c([H])c([H])c([H])c([H])c32)n1


 49 54  0  0  0  0  0  0  0  0999 V2000
  -18.2577   11.6545  -18.5981 C   0  0  0  0  0  0  0  0  0  0  0  0
  -17.0891   10.9175  -18.2916 C   0  0  0  0  0  0  0  0  0  0  0  0
  -16.1999   10.5625  -19.2433 C   0  0  0  0  0  0  0  0  0  0  0  0
  -16.4114   10.9091  -20.5283 C   0  0  0  0  0  0  0  0  0  0  0  0
  -15.4219   10.4635  -21.5622 C   0  0  0  0  0  0  0  0  0  0  0  0
  -17.5564   11.6514  -20.9423 C   0  0  0  0  0  0  0  0  0  0  0  0
  -18.4288   11.9861  -19.9262 C   0  0  0  0  0  0  0  0  0  0  0  0
  -20.2186   12.7342  -17.2855 C   0  0  0  0  0  0  0  0  0  0  0  0
  -20.7316   13.4730  -18.1128 O   0  0  0  0  0  0  0  0  0  0  0  0
  -19.0924   11.9362  -17.5246 N   0  0  0  0  0  0  0  0  0  0  0  0
  -18.7577   11.4255  -16.5865 H   0  0  0  0  0  0  0  0  0  0  0  0
  -21.1164   11.6767  -13.7205 C   0  0  0  0  0  0  0  0  0  0  0  0
  -20.4966   11.6950  -14.9662 C   0  0  0  0  0  0  0  0  0  0  0  0
  -20.8086   12.6305  -15.9050 C   0  0  0  0  0  0  0  0  0  0  0  0
  -21.7849   13.5886  -15.5768 C   0  0  0  0  0  0  0  0  0  0  0  0
  -22.4141   13.6070  -14.3751 C   0  0  0  0  0  0  0  0  0  0  0  0
  -22.0718   12.6480  -13.4541 C   0  0  0  0  0  0  0  0  0  0  0  0
  -20.1353    8.1845  -11.9073 N   0  0  0  0  0  0  0  0  0  0  0  0
  -21.4096    8.4563  -12.5073 C   0  0  0  0  0  0  0  0  0  0  0  0
  -21.9141    9.8768  -12.1787 C   0  0  0  0  0  0  0  0  0  0  0  0
  -20.8532   10.7512  -12.6901 N   0  0  0  0  0  0  0  0  0  0  0  0
  -19.5313   10.5546  -12.1118 C   0  0  0  0  0  0  0  0  0  0  0  0
  -19.1118    9.1091  -12.2662 C   0  0  0  0  0  0  0  0  0  0  0  0
  -18.8404    7.6950   -9.9164 C   0  0  0  0  0  0  0  0  0  0  0  0
  -20.2271    7.9691  -10.4889 C   0  0  0  0  0  0  0  0  0  0  0  0
  -23.4739   14.6429  -14.0533 C   0  0  0  0  0  0  0  0  0  0  0  0
  -22.9367   15.8486  -13.7544 F   0  0  0  0  0  0  0  0  0  0  0  0
  -24.2472   14.7463  -15.1790 F   0  0  0  0  0  0  0  0  0  0  0  0
  -24.2573   14.1191  -13.0371 F   0  0  0  0  0  0  0  0  0  0  0  0
  -17.6237   11.9423  -22.2946 N   0  0  0  0  0  0  0  0  0  0  0  0
  -18.2482   11.2758  -22.8841 H   0  0  0  0  0  0  0  0  0  0  0  0
  -17.0132   12.9402  -23.0691 C   0  0  0  0  0  0  0  0  0  0  0  0
  -16.2572   12.8749  -24.1843 N   0  0  0  0  0  0  0  0  0  0  0  0
  -15.8729   14.1052  -24.5782 C   0  0  0  0  0  0  0  0  0  0  0  0
  -15.1246   14.6457  -25.6136 C   0  0  0  0  0  0  0  0  0  0  0  0
  -14.9198   16.0200  -25.7421 C   0  0  0  0  0  0  0  0  0  0  0  0
  -15.4567   16.9025  -24.8330 C   0  0  0  0  0  0  0  0  0  0  0  0
  -16.1918   16.3788  -23.8060 C   0  0  0  0  0  0  0  0  0  0  0  0
  -16.3954   15.0021  -23.6845 C   0  0  0  0  0  0  0  0  0  0  0  0
  -17.0875   14.2829  -22.7722 N   0  0  0  0  0  0  0  0  0  0  0  0
  -17.7511   14.8798  -21.6923 C   0  0  0  0  0  0  0  0  0  0  0  0
  -19.1163   15.0335  -21.5928 C   0  0  0  0  0  0  0  0  0  0  0  0
  -19.7095   15.6398  -20.5271 C   0  0  0  0  0  0  0  0  0  0  0  0
  -21.0949   15.8422  -20.3384 N   0  0  0  0  0  0  0  0  0  0  0  0
  -18.9262   16.1341  -19.4973 N   0  0  0  0  0  0  0  0  0  0  0  0
  -17.6112   15.9793  -19.6009 C   0  0  0  0  0  0  0  0  0  0  0  0
  -17.0527   15.3854  -20.6380 N   0  0  0  0  0  0  0  0  0  0  0  0
  -21.8316   15.1901  -20.6358 H   0  0  0  0  0  0  0  0  0  0  0  0
  -21.4031   16.7237  -19.8711 H   0  0  0  0  0  0  0  0  0  0  0  0
 24 25  1  0  0  0
 25 18  1  0  0  0
 18 19  1  0  0  0
 19 20  1  0  0  0
 20 21  1  0  0  0
 21 22  1  0  0  0
 22 23  1  0  0  0
 21 12  1  0  0  0
 12 13  2  0  0  0
 13 14  1  0  0  0
 14 15  2  0  0  0
 15 16  1  0  0  0
 16 17  2  0  0  0
 16 26  1  0  0  0
 26 27  1  0  0  0
 26 28  1  0  0  0
 26 29  1  0  0  0
 14  8  1  0  0  0
  8  9  2  0  0  0
  8 10  1  0  0  0
 10  1  1  0  0  0
  1  2  2  0  0  0
  2  3  1  0  0  0
  3  4  2  0  0  0
  4  5  1  0  0  0
  4  6  1  0  0  0
  6 30  1  0  0  0
 30 32  1  0  0  0
 32 33  2  0  0  0
 33 34  1  0  0  0
 34 35  2  0  0  0
 35 36  1  0  0  0
 36 37  2  0  0  0
 37 38  1  0  0  0
 38 39  2  0  0  0
 39 40  1  0  0  0
 40 41  1  0  0  0
 41 42  2  0  0  0
 42 43  1  0  0  0
 43 44  1  0  0  0
 43 45  2  0  0  0
 45 46  1  0  0  0
 46 47  2  0  0  0
  6  7  2  0  0  0
 23 18  1  0  0  0
 17 12  1  0  0  0
  7  1  1  0  0  0
 40 32  1  0  0  0
 47 41  1  0  0  0
 39 34  1  0  0  0
 10 11  1  0  0  0
 30 31  1  0  0  0
 44 48  1  0  0  0
 44 49  1  0  0  0
M  END
> <minimizedAffinity>
-9.41710

> <CNNscore>
0.1101290509

> <CNNaffinity>
6.8162307739

> <CNN_VS>
0.7506650090

> <CNNaffinity_variance>
0.3925431371

$$$$
[H]Oc1c([H])c([H])c(C([H])([H])[H])c(N([H])c2nc3c([H])c([H])c(N(C(=O)/C([H])=C(\[H])C([H])([H])N(C([H])([H])[H])C([H])([H])[H])C([H])([H])[H])c([H])c3n3c([H])nc([H])c23)c1[H]


 34 37  0  0  0  0  0  0  0  0999 V2000
  -19.8837   13.6274  -18.8402 C   0  0  0  0  0  0  0  0  0  0  0  0
  -20.0454   14.6447  -19.7863 C   0  0  0  0  0  0  0  0  0  0  0  0
  -19.2829   14.6699  -20.9338 C   0  0  0  0  0  0  0  0  0  0  0  0
  -18.3377   13.7051  -21.1985 C   0  0  0  0  0  0  0  0  0  0  0  0
  -17.5715   13.6586  -22.2836 N   0  0  0  0  0  0  0  0  0  0  0  0
  -16.6542   12.7393  -22.5760 C   0  0  0  0  0  0  0  0  0  0  0  0
  -16.4727   11.7053  -21.6392 C   0  0  0  0  0  0  0  0  0  0  0  0
  -15.6184   10.5995  -21.6185 C   0  0  0  0  0  0  0  0  0  0  0  0
  -15.9025    9.9737  -20.4649 N   0  0  0  0  0  0  0  0  0  0  0  0
  -16.8660   10.6404  -19.8099 C   0  0  0  0  0  0  0  0  0  0  0  0
  -17.2320   11.7324  -20.5408 N   0  0  0  0  0  0  0  0  0  0  0  0
  -18.1513   12.6750  -20.2738 C   0  0  0  0  0  0  0  0  0  0  0  0
  -18.9228   12.6725  -19.1385 C   0  0  0  0  0  0  0  0  0  0  0  0
  -20.6364   12.4329  -16.8245 C   0  0  0  0  0  0  0  0  0  0  0  0
  -21.3731   12.4565  -15.7766 O   0  0  0  0  0  0  0  0  0  0  0  0
  -20.6582   13.5523  -17.6499 N   0  0  0  0  0  0  0  0  0  0  0  0
  -21.4690   14.7365  -17.3655 C   0  0  0  0  0  0  0  0  0  0  0  0
  -19.9839   10.1516  -16.3558 C   0  0  0  0  0  0  0  0  0  0  0  0
  -19.8280   11.2583  -17.0938 C   0  0  0  0  0  0  0  0  0  0  0  0
  -19.1529    8.9673  -16.6423 C   0  0  0  0  0  0  0  0  0  0  0  0
  -19.0113    8.5019  -14.3093 C   0  0  0  0  0  0  0  0  0  0  0  0
  -19.2718    7.9497  -15.6444 N   0  0  0  0  0  0  0  0  0  0  0  0
  -20.5283    7.2689  -15.6166 C   0  0  0  0  0  0  0  0  0  0  0  0
  -15.9138   12.7590  -23.7464 N   0  0  0  0  0  0  0  0  0  0  0  0
  -15.2278   11.9220  -23.8480 H   0  0  0  0  0  0  0  0  0  0  0  0
  -15.8743   13.6546  -24.8197 C   0  0  0  0  0  0  0  0  0  0  0  0
  -14.9981   14.6882  -24.9361 C   0  0  0  0  0  0  0  0  0  0  0  0
  -14.9446   15.5700  -26.0288 C   0  0  0  0  0  0  0  0  0  0  0  0
  -14.0024   16.5988  -26.0440 O   0  0  0  0  0  0  0  0  0  0  0  0
  -15.8505   15.3537  -27.0391 C   0  0  0  0  0  0  0  0  0  0  0  0
  -16.7617   14.3239  -26.9779 C   0  0  0  0  0  0  0  0  0  0  0  0
  -16.7786   13.4854  -25.8891 C   0  0  0  0  0  0  0  0  0  0  0  0
  -17.7846   12.3867  -25.8313 C   0  0  0  0  0  0  0  0  0  0  0  0
  -13.1052   16.3300  -26.4809 H   0  0  0  0  0  0  0  0  0  0  0  0
 21 22  1  0  0  0
 22 23  1  0  0  0
 22 20  1  0  0  0
 20 18  1  0  0  0
 18 19  2  0  0  0
 19 14  1  0  0  0
 14 15  2  0  0  0
 14 16  1  0  0  0
 16 17  1  0  0  0
 16  1  1  0  0  0
  1  2  2  0  0  0
  2  3  1  0  0  0
  3  4  2  0  0  0
  4  5  1  0  0  0
  5  6  2  0  0  0
  6 24  1  0  0  0
 24 26  1  0  0  0
 26 27  2  0  0  0
 27 28  1  0  0  0
 28 29  1  0  0  0
 28 30  2  0  0  0
 30 31  1  0  0  0
 31 32  2  0  0  0
 32 33  1  0  0  0
  6  7  1  0  0  0
  7  8  2  0  0  0
  8  9  1  0  0  0
  9 10  2  0  0  0
 10 11  1  0  0  0
 11 12  1  0  0  0
 12 13  2  0  0  0
 13  1  1  0  0  0
 12  4  1  0  0  0
 32 26  1  0  0  0
 11  7  1  0  0  0
 24 25  1  0  0  0
 29 34  1  0  0  0
M  END
> <minimizedAffinity>
-10.49175

> <CNNscore>
0.9728606939

> <CNNaffinity>
7.9367408752

> <CNN_VS>
7.7213430405

> <CNNaffinity_variance>
0.0346075296

$$$$
[H]Oc1c([H])c([H])c(C([H])([H])[H])c(N([H])c2nc3c([H])c([H])c(N(C(=O)/C([H])=C(\[H])C([H])([H])N(C([H])([H])[H])C([H])([H])[H])C([H])([H])[H])c([H])c3n3c([H])nc([H])c23)c1[H]


 34 37  0  0  0  0  0  0  0  0999 V2000
  -19.7601   13.4413  -18.6437 C   0  0  0  0  0  0  0  0  0  0  0  0
  -20.0321   14.4252  -19.5999 C   0  0  0  0  0  0  0  0  0  0  0  0
  -19.3383   14.4649  -20.7898 C   0  0  0  0  0  0  0  0  0  0  0  0
  -18.3565   13.5477  -21.0885 C   0  0  0  0  0  0  0  0  0  0  0  0
  -17.6514   13.5175  -22.2147 N   0  0  0  0  0  0  0  0  0  0  0  0
  -16.7016   12.6435  -22.5404 C   0  0  0  0  0  0  0  0  0  0  0  0
  -16.4094   11.6438  -21.5944 C   0  0  0  0  0  0  0  0  0  0  0  0
  -15.4942   10.5877  -21.6000 C   0  0  0  0  0  0  0  0  0  0  0  0
  -15.6770    9.9750  -20.4193 N   0  0  0  0  0  0  0  0  0  0  0  0
  -16.6381   10.6030  -19.7237 C   0  0  0  0  0  0  0  0  0  0  0  0
  -17.1058   11.6553  -20.4549 N   0  0  0  0  0  0  0  0  0  0  0  0
  -18.0604   12.5519  -20.1549 C   0  0  0  0  0  0  0  0  0  0  0  0
  -18.7652   12.5340  -18.9772 C   0  0  0  0  0  0  0  0  0  0  0  0
  -20.8251   14.4818  -16.6843 C   0  0  0  0  0  0  0  0  0  0  0  0
  -21.4491   14.2998  -15.5803 O   0  0  0  0  0  0  0  0  0  0  0  0
  -20.4607   13.3521  -17.4095 N   0  0  0  0  0  0  0  0  0  0  0  0
  -20.7663   11.9903  -16.9704 C   0  0  0  0  0  0  0  0  0  0  0  0
  -19.5913   16.5533  -16.4929 C   0  0  0  0  0  0  0  0  0  0  0  0
  -20.5347   15.8360  -17.1171 C   0  0  0  0  0  0  0  0  0  0  0  0
  -19.3100   17.9287  -16.9450 C   0  0  0  0  0  0  0  0  0  0  0  0
  -20.5441   19.3801  -18.3767 C   0  0  0  0  0  0  0  0  0  0  0  0
  -19.7225   18.1663  -18.2935 N   0  0  0  0  0  0  0  0  0  0  0  0
  -18.6608   18.2711  -19.2449 C   0  0  0  0  0  0  0  0  0  0  0  0
  -16.0307   12.6760  -23.7517 N   0  0  0  0  0  0  0  0  0  0  0  0
  -15.4096   11.8031  -23.9350 H   0  0  0  0  0  0  0  0  0  0  0  0
  -15.9936   13.6214  -24.7816 C   0  0  0  0  0  0  0  0  0  0  0  0
  -15.1758   14.7077  -24.8086 C   0  0  0  0  0  0  0  0  0  0  0  0
  -15.1229   15.6410  -25.8577 C   0  0  0  0  0  0  0  0  0  0  0  0
  -14.2439   16.7216  -25.7806 O   0  0  0  0  0  0  0  0  0  0  0  0
  -15.9653   15.4205  -26.9206 C   0  0  0  0  0  0  0  0  0  0  0  0
  -16.8156   14.3386  -26.9503 C   0  0  0  0  0  0  0  0  0  0  0  0
  -16.8344   13.4507  -25.9014 C   0  0  0  0  0  0  0  0  0  0  0  0
  -17.7749   12.2947  -25.9422 C   0  0  0  0  0  0  0  0  0  0  0  0
  -13.3126   16.5253  -26.1833 H   0  0  0  0  0  0  0  0  0  0  0  0
 21 22  1  0  0  0
 22 23  1  0  0  0
 22 20  1  0  0  0
 20 18  1  0  0  0
 18 19  2  0  0  0
 19 14  1  0  0  0
 14 15  2  0  0  0
 14 16  1  0  0  0
 16 17  1  0  0  0
 16  1  1  0  0  0
  1  2  2  0  0  0
  2  3  1  0  0  0
  3  4  2  0  0  0
  4  5  1  0  0  0
  5  6  2  0  0  0
  6 24  1  0  0  0
 24 26  1  0  0  0
 26 27  2  0  0  0
 27 28  1  0  0  0
 28 29  1  0  0  0
 28 30  2  0  0  0
 30 31  1  0  0  0
 31 32  2  0  0  0
 32 33  1  0  0  0
  6  7  1  0  0  0
  7  8  2  0  0  0
  8  9  1  0  0  0
  9 10  2  0  0  0
 10 11  1  0  0  0
 11 12  1  0  0  0
 12 13  2  0  0  0
 13  1  1  0  0  0
 12  4  1  0  0  0
 32 26  1  0  0  0
 11  7  1  0  0  0
 24 25  1  0  0  0
 29 34  1  0  0  0
M  END
> <minimizedAffinity>
-9.52169

> <CNNscore>
0.9617928863

> <CNNaffinity>
8.0862607956

> <CNN_VS>
7.7773079872

> <CNNaffinity_variance>
0.0519926473

$$$$
[H]Oc1c([H])c([H])c(C([H])([H])[H])c(N([H])c2nc3c([H])c([H])c(N(C(=O)/C([H])=C(\[H])C([H])([H])N(C([H])([H])[H])C([H])([H])[H])C([H])([H])[H])c([H])c3n3c([H])nc([H])c23)c1[H]


 34 37  0  0  0  0  0  0  0  0999 V2000
  -20.1625   13.2378  -17.7666 C   0  0  0  0  0  0  0  0  0  0  0  0
  -20.2300   14.4635  -18.4371 C   0  0  0  0  0  0  0  0  0  0  0  0
  -19.4265   14.7174  -19.5275 C   0  0  0  0  0  0  0  0  0  0  0  0
  -18.5308   13.7862  -20.0015 C   0  0  0  0  0  0  0  0  0  0  0  0
  -17.7301   13.9553  -21.0489 N   0  0  0  0  0  0  0  0  0  0  0  0
  -16.8585   13.0767  -21.5393 C   0  0  0  0  0  0  0  0  0  0  0  0
  -16.7719   11.8359  -20.8816 C   0  0  0  0  0  0  0  0  0  0  0  0
  -15.9854   10.7046  -21.1156 C   0  0  0  0  0  0  0  0  0  0  0  0
  -16.3471    9.8366  -20.1571 N   0  0  0  0  0  0  0  0  0  0  0  0
  -17.2927   10.3854  -19.3783 C   0  0  0  0  0  0  0  0  0  0  0  0
  -17.5673   11.6443  -19.8260 N   0  0  0  0  0  0  0  0  0  0  0  0
  -18.4386   12.5518  -19.3545 C   0  0  0  0  0  0  0  0  0  0  0  0
  -19.2493   12.3233  -18.2707 C   0  0  0  0  0  0  0  0  0  0  0  0
  -21.6826   13.9047  -15.9498 C   0  0  0  0  0  0  0  0  0  0  0  0
  -22.3905   13.5267  -14.9512 O   0  0  0  0  0  0  0  0  0  0  0  0
  -20.9823   12.9260  -16.6474 N   0  0  0  0  0  0  0  0  0  0  0  0
  -21.0312   11.5068  -16.2946 C   0  0  0  0  0  0  0  0  0  0  0  0
  -21.6124   16.2430  -15.3359 C   0  0  0  0  0  0  0  0  0  0  0  0
  -21.6475   15.3127  -16.2988 C   0  0  0  0  0  0  0  0  0  0  0  0
  -21.5784   17.6697  -15.7083 C   0  0  0  0  0  0  0  0  0  0  0  0
  -20.1277   18.1935  -13.8916 C   0  0  0  0  0  0  0  0  0  0  0  0
  -20.3561   18.3126  -15.3368 N   0  0  0  0  0  0  0  0  0  0  0  0
  -19.1909   17.8455  -16.0204 C   0  0  0  0  0  0  0  0  0  0  0  0
  -16.0766   13.3324  -22.6536 N   0  0  0  0  0  0  0  0  0  0  0  0
  -15.0120   13.3883  -22.4415 H   0  0  0  0  0  0  0  0  0  0  0  0
  -16.3957   13.5401  -23.9992 C   0  0  0  0  0  0  0  0  0  0  0  0
  -16.9599   12.6101  -24.8155 C   0  0  0  0  0  0  0  0  0  0  0  0
  -17.3032   12.8312  -26.1600 C   0  0  0  0  0  0  0  0  0  0  0  0
  -17.8785   11.8028  -26.9068 O   0  0  0  0  0  0  0  0  0  0  0  0
  -17.0415   14.0823  -26.6642 C   0  0  0  0  0  0  0  0  0  0  0  0
  -16.4717   15.0648  -25.8867 C   0  0  0  0  0  0  0  0  0  0  0  0
  -16.1516   14.8042  -24.5758 C   0  0  0  0  0  0  0  0  0  0  0  0
  -15.5182   15.8746  -23.7539 C   0  0  0  0  0  0  0  0  0  0  0  0
  -18.9108   11.7871  -26.8603 H   0  0  0  0  0  0  0  0  0  0  0  0
 21 22  1  0  0  0
 22 23  1  0  0  0
 22 20  1  0  0  0
 20 18  1  0  0  0
 18 19  2  0  0  0
 19 14  1  0  0  0
 14 15  2  0  0  0
 14 16  1  0  0  0
 16 17  1  0  0  0
 16  1  1  0  0  0
  1  2  2  0  0  0
  2  3  1  0  0  0
  3  4  2  0  0  0
  4  5  1  0  0  0
  5  6  2  0  0  0
  6 24  1  0  0  0
 24 26  1  0  0  0
 26 27  2  0  0  0
 27 28  1  0  0  0
 28 29  1  0  0  0
 28 30  2  0  0  0
 30 31  1  0  0  0
 31 32  2  0  0  0
 32 33  1  0  0  0
  6  7  1  0  0  0
  7  8  2  0  0  0
  8  9  1  0  0  0
  9 10  2  0  0  0
 10 11  1  0  0  0
 11 12  1  0  0  0
 12 13  2  0  0  0
 13  1  1  0  0  0
 12  4  1  0  0  0
 32 26  1  0  0  0
 11  7  1  0  0  0
 24 25  1  0  0  0
 29 34  1  0  0  0
M  END
> <minimizedAffinity>
-8.33278

> <CNNscore>
0.8746809959

> <CNNaffinity>
7.7196784019

> <CNN_VS>
6.7522559166

> <CNNaffinity_variance>
0.0707868114

$$$$
[H]Oc1c([H])c([H])c(C([H])([H])[H])c(N([H])c2nc3c([H])c([H])c(N(C(=O)/C([H])=C(\[H])C([H])([H])N(C([H])([H])[H])C([H])([H])[H])C([H])([H])[H])c([H])c3n3c([H])nc([H])c23)c1[H]


 34 37  0  0  0  0  0  0  0  0999 V2000
  -18.4916   11.5987  -18.5529 C   0  0  0  0  0  0  0  0  0  0  0  0
  -17.5775   10.5975  -18.8965 C   0  0  0  0  0  0  0  0  0  0  0  0
  -16.8692   10.6624  -20.0768 C   0  0  0  0  0  0  0  0  0  0  0  0
  -17.0272   11.7047  -20.9616 C   0  0  0  0  0  0  0  0  0  0  0  0
  -16.3763   11.8397  -22.1126 N   0  0  0  0  0  0  0  0  0  0  0  0
  -16.4977   12.8351  -22.9880 C   0  0  0  0  0  0  0  0  0  0  0  0
  -17.4117   13.8548  -22.6648 C   0  0  0  0  0  0  0  0  0  0  0  0
  -17.7870   15.0229  -23.3339 C   0  0  0  0  0  0  0  0  0  0  0  0
  -18.7006   15.5937  -22.5323 N   0  0  0  0  0  0  0  0  0  0  0  0
  -18.8844   14.8367  -21.4391 C   0  0  0  0  0  0  0  0  0  0  0  0
  -18.0775   13.7394  -21.5128 N   0  0  0  0  0  0  0  0  0  0  0  0
  -17.9325   12.7212  -20.6483 C   0  0  0  0  0  0  0  0  0  0  0  0
  -18.6260   12.6333  -19.4671 C   0  0  0  0  0  0  0  0  0  0  0  0
  -19.3807   12.7162  -16.5485 C   0  0  0  0  0  0  0  0  0  0  0  0
  -20.0619   12.6004  -15.4698 O   0  0  0  0  0  0  0  0  0  0  0  0
  -19.2329   11.5815  -17.3394 N   0  0  0  0  0  0  0  0  0  0  0  0
  -19.8234   10.2878  -16.9954 C   0  0  0  0  0  0  0  0  0  0  0  0
  -19.5374   15.1205  -16.7602 C   0  0  0  0  0  0  0  0  0  0  0  0
  -18.8066   14.0052  -16.8870 C   0  0  0  0  0  0  0  0  0  0  0  0
  -18.9386   16.4221  -17.1101 C   0  0  0  0  0  0  0  0  0  0  0  0
  -19.4322   18.0456  -15.4368 C   0  0  0  0  0  0  0  0  0  0  0  0
  -19.7760   17.5297  -16.7675 N   0  0  0  0  0  0  0  0  0  0  0  0
  -19.7558   18.6173  -17.6949 C   0  0  0  0  0  0  0  0  0  0  0  0
  -15.7592   12.9044  -24.1577 N   0  0  0  0  0  0  0  0  0  0  0  0
  -15.0617   12.0810  -24.2880 H   0  0  0  0  0  0  0  0  0  0  0  0
  -15.7339   13.8359  -25.2006 C   0  0  0  0  0  0  0  0  0  0  0  0
  -14.8993   14.9078  -25.2634 C   0  0  0  0  0  0  0  0  0  0  0  0
  -14.8589   15.8267  -26.3257 C   0  0  0  0  0  0  0  0  0  0  0  0
  -13.9605   16.8932  -26.2860 O   0  0  0  0  0  0  0  0  0  0  0  0
  -15.7327   15.6069  -27.3631 C   0  0  0  0  0  0  0  0  0  0  0  0
  -16.6012   14.5391  -27.3561 C   0  0  0  0  0  0  0  0  0  0  0  0
  -16.6068   13.6651  -26.2955 C   0  0  0  0  0  0  0  0  0  0  0  0
  -17.5670   12.5247  -26.2963 C   0  0  0  0  0  0  0  0  0  0  0  0
  -13.0435   16.6761  -26.7104 H   0  0  0  0  0  0  0  0  0  0  0  0
 21 22  1  0  0  0
 22 23  1  0  0  0
 22 20  1  0  0  0
 20 18  1  0  0  0
 18 19  2  0  0  0
 19 14  1  0  0  0
 14 15  2  0  0  0
 14 16  1  0  0  0
 16 17  1  0  0  0
 16  1  1  0  0  0
  1  2  2  0  0  0
  2  3  1  0  0  0
  3  4  2  0  0  0
  4  5  1  0  0  0
  5  6  2  0  0  0
  6 24  1  0  0  0
 24 26  1  0  0  0
 26 27  2  0  0  0
 27 28  1  0  0  0
 28 29  1  0  0  0
 28 30  2  0  0  0
 30 31  1  0  0  0
 31 32  2  0  0  0
 32 33  1  0  0  0
  6  7  1  0  0  0
  7  8  2  0  0  0
  8  9  1  0  0  0
  9 10  2  0  0  0
 10 11  1  0  0  0
 11 12  1  0  0  0
 12 13  2  0  0  0
 13  1  1  0  0  0
 12  4  1  0  0  0
 32 26  1  0  0  0
 11  7  1  0  0  0
 24 25  1  0  0  0
 29 34  1  0  0  0
M  END
> <minimizedAffinity>
-10.12215

> <CNNscore>
0.8726855516

> <CNNaffinity>
7.8202428818

> <CNN_VS>
6.8246130943

> <CNNaffinity_variance>
0.1013585776

$$$$
[H]Oc1c([H])c([H])c(C([H])([H])[H])c(N([H])c2nc3c([H])c([H])c(N(C(=O)/C([H])=C(\[H])C([H])([H])N(C([H])([H])[H])C([H])([H])[H])C([H])([H])[H])c([H])c3n3c([H])nc([H])c23)c1[H]


 34 37  0  0  0  0  0  0  0  0999 V2000
  -20.4812   12.9020  -17.7169 C   0  0  0  0  0  0  0  0  0  0  0  0
  -20.9308   13.8916  -18.5972 C   0  0  0  0  0  0  0  0  0  0  0  0
  -20.3232   14.0787  -19.8197 C   0  0  0  0  0  0  0  0  0  0  0  0
  -19.2575   13.3082  -20.2260 C   0  0  0  0  0  0  0  0  0  0  0  0
  -18.6262   13.4243  -21.3899 N   0  0  0  0  0  0  0  0  0  0  0  0
  -17.5992   12.6940  -21.8188 C   0  0  0  0  0  0  0  0  0  0  0  0
  -17.1282   11.6918  -20.9507 C   0  0  0  0  0  0  0  0  0  0  0  0
  -16.0931   10.7604  -21.0694 C   0  0  0  0  0  0  0  0  0  0  0  0
  -16.1252   10.0702  -19.9180 N   0  0  0  0  0  0  0  0  0  0  0  0
  -17.1101   10.5363  -19.1342 C   0  0  0  0  0  0  0  0  0  0  0  0
  -17.7478   11.5576  -19.7752 N   0  0  0  0  0  0  0  0  0  0  0  0
  -18.7839   12.3110  -19.3703 C   0  0  0  0  0  0  0  0  0  0  0  0
  -19.4059   12.1448  -18.1580 C   0  0  0  0  0  0  0  0  0  0  0  0
  -21.5250   13.7000  -15.6360 C   0  0  0  0  0  0  0  0  0  0  0  0
  -22.0527   13.3850  -14.5120 O   0  0  0  0  0  0  0  0  0  0  0  0
  -21.0867   12.6628  -16.4526 N   0  0  0  0  0  0  0  0  0  0  0  0
  -21.2124   11.2520  -16.0857 C   0  0  0  0  0  0  0  0  0  0  0  0
  -22.4783   15.9072  -15.8994 C   0  0  0  0  0  0  0  0  0  0  0  0
  -21.4130   15.1012  -15.9963 C   0  0  0  0  0  0  0  0  0  0  0  0
  -22.3471   17.3284  -16.2711 C   0  0  0  0  0  0  0  0  0  0  0  0
  -22.7316   17.3187  -18.6230 C   0  0  0  0  0  0  0  0  0  0  0  0
  -23.2508   17.7176  -17.3090 N   0  0  0  0  0  0  0  0  0  0  0  0
  -24.5826   17.2157  -17.1760 C   0  0  0  0  0  0  0  0  0  0  0  0
  -17.0147   12.8721  -23.0618 N   0  0  0  0  0  0  0  0  0  0  0  0
  -17.0179   11.9797  -23.6823 H   0  0  0  0  0  0  0  0  0  0  0  0
  -16.4139   13.9795  -23.6690 C   0  0  0  0  0  0  0  0  0  0  0  0
  -17.0725   15.1051  -24.0550 C   0  0  0  0  0  0  0  0  0  0  0  0
  -16.4608   16.2263  -24.6409 C   0  0  0  0  0  0  0  0  0  0  0  0
  -17.2350   17.3301  -24.9993 O   0  0  0  0  0  0  0  0  0  0  0  0
  -15.1012   16.1586  -24.8271 C   0  0  0  0  0  0  0  0  0  0  0  0
  -14.3804   15.0460  -24.4566 C   0  0  0  0  0  0  0  0  0  0  0  0
  -15.0203   13.9713  -23.8871 C   0  0  0  0  0  0  0  0  0  0  0  0
  -14.2264   12.7674  -23.5089 C   0  0  0  0  0  0  0  0  0  0  0  0
  -17.3273   18.0314  -24.2458 H   0  0  0  0  0  0  0  0  0  0  0  0
 21 22  1  0  0  0
 22 23  1  0  0  0
 22 20  1  0  0  0
 20 18  1  0  0  0
 18 19  2  0  0  0
 19 14  1  0  0  0
 14 15  2  0  0  0
 14 16  1  0  0  0
 16 17  1  0  0  0
 16  1  1  0  0  0
  1  2  2  0  0  0
  2  3  1  0  0  0
  3  4  2  0  0  0
  4  5  1  0  0  0
  5  6  2  0  0  0
  6 24  1  0  0  0
 24 26  1  0  0  0
 26 27  2  0  0  0
 27 28  1  0  0  0
 28 29  1  0  0  0
 28 30  2  0  0  0
 30 31  1  0  0  0
 31 32  2  0  0  0
 32 33  1  0  0  0
  6  7  1  0  0  0
  7  8  2  0  0  0
  8  9  1  0  0  0
  9 10  2  0  0  0
 10 11  1  0  0  0
 11 12  1  0  0  0
 12 13  2  0  0  0
 13  1  1  0  0  0
 12  4  1  0  0  0
 32 26  1  0  0  0
 11  7  1  0  0  0
 24 25  1  0  0  0
 29 34  1  0  0  0
M  END
> <minimizedAffinity>
-7.92520

> <CNNscore>
0.7193219066

> <CNNaffinity>
7.4819593430

> <CNN_VS>
5.3819370270

> <CNNaffinity_variance>
0.2053675950

$$$$
[H]Oc1c([H])c([H])c(C([H])([H])[H])c(N([H])c2nc3c([H])c([H])c(N(C(=O)/C([H])=C(\[H])C([H])([H])N(C([H])([H])[H])C([H])([H])[H])C([H])([H])[H])c([H])c3n3c([H])nc([H])c23)c1[H]


 34 37  0  0  0  0  0  0  0  0999 V2000
  -19.4516   13.9091  -18.7776 C   0  0  0  0  0  0  0  0  0  0  0  0
  -19.6599   14.9028  -19.7397 C   0  0  0  0  0  0  0  0  0  0  0  0
  -19.0176   14.8525  -20.9578 C   0  0  0  0  0  0  0  0  0  0  0  0
  -18.1512   13.8327  -21.2799 C   0  0  0  0  0  0  0  0  0  0  0  0
  -17.5023   13.7126  -22.4336 N   0  0  0  0  0  0  0  0  0  0  0  0
  -16.6643   12.7388  -22.7822 C   0  0  0  0  0  0  0  0  0  0  0  0
  -16.4381   11.7271  -21.8308 C   0  0  0  0  0  0  0  0  0  0  0  0
  -15.6399   10.5803  -21.8549 C   0  0  0  0  0  0  0  0  0  0  0  0
  -15.8348   10.0068  -20.6565 N   0  0  0  0  0  0  0  0  0  0  0  0
  -16.6939   10.7424  -19.9334 C   0  0  0  0  0  0  0  0  0  0  0  0
  -17.0798   11.8279  -20.6638 N   0  0  0  0  0  0  0  0  0  0  0  0
  -17.9212   12.8243  -20.3412 C   0  0  0  0  0  0  0  0  0  0  0  0
  -18.5726   12.8973  -19.1352 C   0  0  0  0  0  0  0  0  0  0  0  0
  -21.2746   14.6282  -17.2891 C   0  0  0  0  0  0  0  0  0  0  0  0
  -21.7853   14.5732  -16.1154 O   0  0  0  0  0  0  0  0  0  0  0  0
  -20.1038   13.9116  -17.5140 N   0  0  0  0  0  0  0  0  0  0  0  0
  -19.4519   13.1056  -16.4815 C   0  0  0  0  0  0  0  0  0  0  0  0
  -22.0280   16.7508  -18.1705 C   0  0  0  0  0  0  0  0  0  0  0  0
  -21.9330   15.4221  -18.3099 C   0  0  0  0  0  0  0  0  0  0  0  0
  -22.7016   17.5423  -19.2169 C   0  0  0  0  0  0  0  0  0  0  0  0
  -22.5850   19.4971  -20.5750 C   0  0  0  0  0  0  0  0  0  0  0  0
  -22.2271   18.8896  -19.2874 N   0  0  0  0  0  0  0  0  0  0  0  0
  -22.6791   19.7493  -18.2387 C   0  0  0  0  0  0  0  0  0  0  0  0
  -16.0466   12.6834  -24.0206 N   0  0  0  0  0  0  0  0  0  0  0  0
  -15.6779   11.6957  -24.2854 H   0  0  0  0  0  0  0  0  0  0  0  0
  -15.7994   13.6575  -24.9931 C   0  0  0  0  0  0  0  0  0  0  0  0
  -16.5051   13.7986  -26.1470 C   0  0  0  0  0  0  0  0  0  0  0  0
  -16.2704   14.7952  -27.1094 C   0  0  0  0  0  0  0  0  0  0  0  0
  -17.0574   14.8468  -28.2601 O   0  0  0  0  0  0  0  0  0  0  0  0
  -15.2515   15.6783  -26.8449 C   0  0  0  0  0  0  0  0  0  0  0  0
  -14.5022   15.5860  -25.6940 C   0  0  0  0  0  0  0  0  0  0  0  0
  -14.7665   14.5944  -24.7799 C   0  0  0  0  0  0  0  0  0  0  0  0
  -13.9328   14.4983  -23.5477 C   0  0  0  0  0  0  0  0  0  0  0  0
  -17.9011   15.4347  -28.1568 H   0  0  0  0  0  0  0  0  0  0  0  0
 21 22  1  0  0  0
 22 23  1  0  0  0
 22 20  1  0  0  0
 20 18  1  0  0  0
 18 19  2  0  0  0
 19 14  1  0  0  0
 14 15  2  0  0  0
 14 16  1  0  0  0
 16 17  1  0  0  0
 16  1  1  0  0  0
  1  2  2  0  0  0
  2  3  1  0  0  0
  3  4  2  0  0  0
  4  5  1  0  0  0
  5  6  2  0  0  0
  6 24  1  0  0  0
 24 26  1  0  0  0
 26 27  2  0  0  0
 27 28  1  0  0  0
 28 29  1  0  0  0
 28 30  2  0  0  0
 30 31  1  0  0  0
 31 32  2  0  0  0
 32 33  1  0  0  0
  6  7  1  0  0  0
  7  8  2  0  0  0
  8  9  1  0  0  0
  9 10  2  0  0  0
 10 11  1  0  0  0
 11 12  1  0  0  0
 12 13  2  0  0  0
 13  1  1  0  0  0
 12  4  1  0  0  0
 32 26  1  0  0  0
 11  7  1  0  0  0
 24 25  1  0  0  0
 29 34  1  0  0  0
M  END
> <minimizedAffinity>
-7.89189

> <CNNscore>
0.6946384311

> <CNNaffinity>
7.5224938393

> <CNN_VS>
5.2254133224

> <CNNaffinity_variance>
0.1288230121

$$$$
[H]Oc1c([H])c([H])c(C([H])([H])[H])c(N([H])c2nc3c([H])c([H])c(N(C(=O)/C([H])=C(\[H])C([H])([H])N(C([H])([H])[H])C([H])([H])[H])C([H])([H])[H])c([H])c3n3c([H])nc([H])c23)c1[H]


 34 37  0  0  0  0  0  0  0  0999 V2000
  -20.7783   14.1345  -17.5647 C   0  0  0  0  0  0  0  0  0  0  0  0
  -21.2011   15.0346  -18.5483 C   0  0  0  0  0  0  0  0  0  0  0  0
  -20.6185   15.0413  -19.7971 C   0  0  0  0  0  0  0  0  0  0  0  0
  -19.6051   14.1715  -20.1299 C   0  0  0  0  0  0  0  0  0  0  0  0
  -19.0009   14.1135  -21.3123 N   0  0  0  0  0  0  0  0  0  0  0  0
  -18.0247   13.2829  -21.6716 C   0  0  0  0  0  0  0  0  0  0  0  0
  -17.5817   12.3677  -20.6990 C   0  0  0  0  0  0  0  0  0  0  0  0
  -16.5991   11.3743  -20.7263 C   0  0  0  0  0  0  0  0  0  0  0  0
  -16.6346   10.8293  -19.4997 N   0  0  0  0  0  0  0  0  0  0  0  0
  -17.5725   11.4382  -18.7571 C   0  0  0  0  0  0  0  0  0  0  0  0
  -18.1748   12.4085  -19.5031 N   0  0  0  0  0  0  0  0  0  0  0  0
  -19.1596   13.2596  -19.1702 C   0  0  0  0  0  0  0  0  0  0  0  0
  -19.7556   13.2731  -17.9339 C   0  0  0  0  0  0  0  0  0  0  0  0
  -21.5373   12.8809  -15.5876 C   0  0  0  0  0  0  0  0  0  0  0  0
  -22.0760   12.9336  -14.4265 O   0  0  0  0  0  0  0  0  0  0  0  0
  -21.3602   14.0810  -16.2682 N   0  0  0  0  0  0  0  0  0  0  0  0
  -21.7507   15.3772  -15.7132 C   0  0  0  0  0  0  0  0  0  0  0  0
  -21.2218   10.4933  -15.3648 C   0  0  0  0  0  0  0  0  0  0  0  0
  -21.1442   11.5922  -16.1265 C   0  0  0  0  0  0  0  0  0  0  0  0
  -20.8168    9.1918  -15.9281 C   0  0  0  0  0  0  0  0  0  0  0  0
  -18.5306    8.5680  -16.1806 C   0  0  0  0  0  0  0  0  0  0  0  0
  -19.6791    8.6300  -15.2683 N   0  0  0  0  0  0  0  0  0  0  0  0
  -19.2742    9.3035  -14.0743 C   0  0  0  0  0  0  0  0  0  0  0  0
  -17.4664   13.2795  -22.9392 N   0  0  0  0  0  0  0  0  0  0  0  0
  -17.6668   12.3744  -23.5066 H   0  0  0  0  0  0  0  0  0  0  0  0
  -16.6870   14.2155  -23.6264 C   0  0  0  0  0  0  0  0  0  0  0  0
  -17.1393   15.4116  -24.0894 C   0  0  0  0  0  0  0  0  0  0  0  0
  -16.3464   16.3607  -24.7564 C   0  0  0  0  0  0  0  0  0  0  0  0
  -16.9159   17.5583  -25.1898 O   0  0  0  0  0  0  0  0  0  0  0  0
  -15.0243   16.0364  -24.9428 C   0  0  0  0  0  0  0  0  0  0  0  0
  -14.5087   14.8407  -24.4966 C   0  0  0  0  0  0  0  0  0  0  0  0
  -15.3213   13.9411  -23.8490 C   0  0  0  0  0  0  0  0  0  0  0  0
  -14.7501   12.6433  -23.3889 C   0  0  0  0  0  0  0  0  0  0  0  0
  -16.8681   18.3155  -24.4880 H   0  0  0  0  0  0  0  0  0  0  0  0
 21 22  1  0  0  0
 22 23  1  0  0  0
 22 20  1  0  0  0
 20 18  1  0  0  0
 18 19  2  0  0  0
 19 14  1  0  0  0
 14 15  2  0  0  0
 14 16  1  0  0  0
 16 17  1  0  0  0
 16  1  1  0  0  0
  1  2  2  0  0  0
  2  3  1  0  0  0
  3  4  2  0  0  0
  4  5  1  0  0  0
  5  6  2  0  0  0
  6 24  1  0  0  0
 24 26  1  0  0  0
 26 27  2  0  0  0
 27 28  1  0  0  0
 28 29  1  0  0  0
 28 30  2  0  0  0
 30 31  1  0  0  0
 31 32  2  0  0  0
 32 33  1  0  0  0
  6  7  1  0  0  0
  7  8  2  0  0  0
  8  9  1  0  0  0
  9 10  2  0  0  0
 10 11  1  0  0  0
 11 12  1  0  0  0
 12 13  2  0  0  0
 13  1  1  0  0  0
 12  4  1  0  0  0
 32 26  1  0  0  0
 11  7  1  0  0  0
 24 25  1  0  0  0
 29 34  1  0  0  0
M  END
> <minimizedAffinity>
-8.20534

> <CNNscore>
0.6624348164

> <CNNaffinity>
7.4224267006

> <CNN_VS>
4.9168739319

> <CNNaffinity_variance>
0.0594990067

$$$$
[H]Oc1c([H])c([H])c(C([H])([H])[H])c(N([H])c2nc3c([H])c([H])c(N(C(=O)/C([H])=C(\[H])C([H])([H])N(C([H])([H])[H])C([H])([H])[H])C([H])([H])[H])c([H])c3n3c([H])nc([H])c23)c1[H]


 34 37  0  0  0  0  0  0  0  0999 V2000
  -19.4715   12.6882  -18.3496 C   0  0  0  0  0  0  0  0  0  0  0  0
  -18.6264   11.5847  -18.5063 C   0  0  0  0  0  0  0  0  0  0  0  0
  -17.7991   11.4787  -19.6033 C   0  0  0  0  0  0  0  0  0  0  0  0
  -17.7670   12.4438  -20.5841 C   0  0  0  0  0  0  0  0  0  0  0  0
  -16.9929   12.4149  -21.6641 N   0  0  0  0  0  0  0  0  0  0  0  0
  -16.9299   13.3313  -22.6276 C   0  0  0  0  0  0  0  0  0  0  0  0
  -17.7711   14.4511  -22.4926 C   0  0  0  0  0  0  0  0  0  0  0  0
  -17.9640   15.5796  -23.2940 C   0  0  0  0  0  0  0  0  0  0  0  0
  -18.8958   16.2986  -22.6476 N   0  0  0  0  0  0  0  0  0  0  0  0
  -19.2605   15.6651  -21.5217 C   0  0  0  0  0  0  0  0  0  0  0  0
  -18.5581   14.5007  -21.4148 N   0  0  0  0  0  0  0  0  0  0  0  0
  -18.5988   13.5587  -20.4577 C   0  0  0  0  0  0  0  0  0  0  0  0
  -19.4137   13.6408  -19.3562 C   0  0  0  0  0  0  0  0  0  0  0  0
  -20.6675   11.7821  -16.3990 C   0  0  0  0  0  0  0  0  0  0  0  0
  -21.4527   12.0231  -15.4158 O   0  0  0  0  0  0  0  0  0  0  0  0
  -20.3302   12.8474  -17.2273 N   0  0  0  0  0  0  0  0  0  0  0  0
  -20.8225   14.2088  -17.0153 C   0  0  0  0  0  0  0  0  0  0  0  0
  -19.6876    9.7357  -15.5610 C   0  0  0  0  0  0  0  0  0  0  0  0
  -20.1761   10.4310  -16.5963 C   0  0  0  0  0  0  0  0  0  0  0  0
  -19.1910    8.3643  -15.7797 C   0  0  0  0  0  0  0  0  0  0  0  0
  -19.8245    7.8372  -13.5436 C   0  0  0  0  0  0  0  0  0  0  0  0
  -19.8365    7.3992  -14.9447 N   0  0  0  0  0  0  0  0  0  0  0  0
  -21.1818    7.0821  -15.3094 C   0  0  0  0  0  0  0  0  0  0  0  0
  -16.0734   13.2280  -23.7112 N   0  0  0  0  0  0  0  0  0  0  0  0
  -15.3704   12.4021  -23.6401 H   0  0  0  0  0  0  0  0  0  0  0  0
  -15.9350   13.9882  -24.8768 C   0  0  0  0  0  0  0  0  0  0  0  0
  -15.0523   15.0106  -25.0361 C   0  0  0  0  0  0  0  0  0  0  0  0
  -14.8981   15.7550  -26.2179 C   0  0  0  0  0  0  0  0  0  0  0  0
  -13.9592   16.7855  -26.2705 O   0  0  0  0  0  0  0  0  0  0  0  0
  -15.7060   15.4079  -27.2737 C   0  0  0  0  0  0  0  0  0  0  0  0
  -16.6183   14.3823  -27.1726 C   0  0  0  0  0  0  0  0  0  0  0  0
  -16.7359   13.6808  -25.9966 C   0  0  0  0  0  0  0  0  0  0  0  0
  -17.7422   12.5852  -25.8993 C   0  0  0  0  0  0  0  0  0  0  0  0
  -13.0251   16.4767  -26.5871 H   0  0  0  0  0  0  0  0  0  0  0  0
 21 22  1  0  0  0
 22 23  1  0  0  0
 22 20  1  0  0  0
 20 18  1  0  0  0
 18 19  2  0  0  0
 19 14  1  0  0  0
 14 15  2  0  0  0
 14 16  1  0  0  0
 16 17  1  0  0  0
 16  1  1  0  0  0
  1  2  2  0  0  0
  2  3  1  0  0  0
  3  4  2  0  0  0
  4  5  1  0  0  0
  5  6  2  0  0  0
  6 24  1  0  0  0
 24 26  1  0  0  0
 26 27  2  0  0  0
 27 28  1  0  0  0
 28 29  1  0  0  0
 28 30  2  0  0  0
 30 31  1  0  0  0
 31 32  2  0  0  0
 32 33  1  0  0  0
  6  7  1  0  0  0
  7  8  2  0  0  0
  8  9  1  0  0  0
  9 10  2  0  0  0
 10 11  1  0  0  0
 11 12  1  0  0  0
 12 13  2  0  0  0
 13  1  1  0  0  0
 12  4  1  0  0  0
 32 26  1  0  0  0
 11  7  1  0  0  0
 24 25  1  0  0  0
 29 34  1  0  0  0
M  END
> <minimizedAffinity>
-9.64859

> <CNNscore>
0.6517007947

> <CNNaffinity>
7.4568586349

> <CNN_VS>
4.8596405983

> <CNNaffinity_variance>
0.0799294859

$$$$
[H]Oc1c([H])c([H])c(C([H])([H])[H])c(N([H])c2nc3c([H])c([H])c(N(C(=O)/C([H])=C(\[H])C([H])([H])N(C([H])([H])[H])C([H])([H])[H])C([H])([H])[H])c([H])c3n3c([H])nc([H])c23)c1[H]


 34 37  0  0  0  0  0  0  0  0999 V2000
  -19.3981   12.5551  -18.3351 C   0  0  0  0  0  0  0  0  0  0  0  0
  -18.5343   11.4676  -18.5019 C   0  0  0  0  0  0  0  0  0  0  0  0
  -17.7125   11.3809  -19.6046 C   0  0  0  0  0  0  0  0  0  0  0  0
  -17.7041   12.3503  -20.5816 C   0  0  0  0  0  0  0  0  0  0  0  0
  -16.9367   12.3397  -21.6667 N   0  0  0  0  0  0  0  0  0  0  0  0
  -16.8964   13.2609  -22.6268 C   0  0  0  0  0  0  0  0  0  0  0  0
  -17.7566   14.3649  -22.4817 C   0  0  0  0  0  0  0  0  0  0  0  0
  -17.9750   15.4930  -23.2771 C   0  0  0  0  0  0  0  0  0  0  0  0
  -18.9153   16.1925  -22.6217 N   0  0  0  0  0  0  0  0  0  0  0  0
  -19.2612   15.5481  -21.4961 C   0  0  0  0  0  0  0  0  0  0  0  0
  -18.5374   14.3961  -21.3986 N   0  0  0  0  0  0  0  0  0  0  0  0
  -18.5549   13.4497  -20.4452 C   0  0  0  0  0  0  0  0  0  0  0  0
  -19.3639   13.5127  -19.3382 C   0  0  0  0  0  0  0  0  0  0  0  0
  -20.6724   13.9385  -16.7481 C   0  0  0  0  0  0  0  0  0  0  0  0
  -21.4366   13.9625  -15.7202 O   0  0  0  0  0  0  0  0  0  0  0  0
  -20.2521   12.6943  -17.2067 N   0  0  0  0  0  0  0  0  0  0  0  0
  -20.6509   11.4360  -16.5756 C   0  0  0  0  0  0  0  0  0  0  0  0
  -21.0911   16.2599  -17.2828 C   0  0  0  0  0  0  0  0  0  0  0  0
  -20.2896   15.1906  -17.3737 C   0  0  0  0  0  0  0  0  0  0  0  0
  -20.6872   17.5242  -17.9259 C   0  0  0  0  0  0  0  0  0  0  0  0
  -20.0712   19.6366  -17.0107 C   0  0  0  0  0  0  0  0  0  0  0  0
  -21.1625   18.6792  -17.2292 N   0  0  0  0  0  0  0  0  0  0  0  0
  -22.2484   19.3645  -17.8574 C   0  0  0  0  0  0  0  0  0  0  0  0
  -16.0453   13.1774  -23.7163 N   0  0  0  0  0  0  0  0  0  0  0  0
  -15.3413   12.3510  -23.6633 H   0  0  0  0  0  0  0  0  0  0  0  0
  -15.9133   13.9581  -24.8691 C   0  0  0  0  0  0  0  0  0  0  0  0
  -15.0335   14.9849  -25.0142 C   0  0  0  0  0  0  0  0  0  0  0  0
  -14.8857   15.7501  -26.1835 C   0  0  0  0  0  0  0  0  0  0  0  0
  -13.9491   16.7833  -26.2221 O   0  0  0  0  0  0  0  0  0  0  0  0
  -15.6974   15.4197  -27.2419 C   0  0  0  0  0  0  0  0  0  0  0  0
  -16.6072   14.3906  -27.1548 C   0  0  0  0  0  0  0  0  0  0  0  0
  -16.7183   13.6685  -25.9907 C   0  0  0  0  0  0  0  0  0  0  0  0
  -17.7220   12.5693  -25.9082 C   0  0  0  0  0  0  0  0  0  0  0  0
  -13.0158   16.4821  -26.5479 H   0  0  0  0  0  0  0  0  0  0  0  0
 21 22  1  0  0  0
 22 23  1  0  0  0
 22 20  1  0  0  0
 20 18  1  0  0  0
 18 19  2  0  0  0
 19 14  1  0  0  0
 14 15  2  0  0  0
 14 16  1  0  0  0
 16 17  1  0  0  0
 16  1  1  0  0  0
  1  2  2  0  0  0
  2  3  1  0  0  0
  3  4  2  0  0  0
  4  5  1  0  0  0
  5  6  2  0  0  0
  6 24  1  0  0  0
 24 26  1  0  0  0
 26 27  2  0  0  0
 27 28  1  0  0  0
 28 29  1  0  0  0
 28 30  2  0  0  0
 30 31  1  0  0  0
 31 32  2  0  0  0
 32 33  1  0  0  0
  6  7  1  0  0  0
  7  8  2  0  0  0
  8  9  1  0  0  0
  9 10  2  0  0  0
 10 11  1  0  0  0
 11 12  1  0  0  0
 12 13  2  0  0  0
 13  1  1  0  0  0
 12  4  1  0  0  0
 32 26  1  0  0  0
 11  7  1  0  0  0
 24 25  1  0  0  0
 29 34  1  0  0  0
M  END
> <minimizedAffinity>
-9.01233

> <CNNscore>
0.6452457309

> <CNNaffinity>
7.6033716202

> <CNN_VS>
4.9060430527

> <CNNaffinity_variance>
0.1275798082

$$$$
[H]OC([H])([H])c1c([H])c([H])c(C([H])([H])[H])c(N(c2nc(N([H])c3c([H])c([H])c(N4C([H])([H])C([H])([H])N(C([H])([H])[H])C([H])([H])C4([H])[H])c(S(=O)(=O)C([H])([H])C([H])([H])[H])c3[H])nc([H])c2F)C([H])([H])c2c([H])c([H])c([H])c([H])c2C#N)c1[H]


 47 51  0  0  0  0  0  0  0  0999 V2000
  -17.8197   11.1849  -19.2368 C   0  0  0  0  0  0  0  0  0  0  0  0
  -17.2086   10.6454  -20.3039 N   0  0  0  0  0  0  0  0  0  0  0  0
  -17.1241   11.2680  -21.4726 C   0  0  0  0  0  0  0  0  0  0  0  0
  -17.6970   12.5417  -21.5964 C   0  0  0  0  0  0  0  0  0  0  0  0
  -17.6227   13.1283  -22.7842 F   0  0  0  0  0  0  0  0  0  0  0  0
  -18.3249   13.1255  -20.5385 C   0  0  0  0  0  0  0  0  0  0  0  0
  -18.3673   12.4340  -19.3987 N   0  0  0  0  0  0  0  0  0  0  0  0
  -17.9352   10.5607  -17.9817 N   0  0  0  0  0  0  0  0  0  0  0  0
  -17.0607   10.0459  -17.6423 H   0  0  0  0  0  0  0  0  0  0  0  0
  -20.4653    9.0950  -15.7294 C   0  0  0  0  0  0  0  0  0  0  0  0
  -19.3718    9.3164  -16.5689 C   0  0  0  0  0  0  0  0  0  0  0  0
  -19.0584   10.5377  -17.1541 C   0  0  0  0  0  0  0  0  0  0  0  0
  -19.8909   11.5780  -16.8752 C   0  0  0  0  0  0  0  0  0  0  0  0
  -20.9739   11.3986  -16.0552 C   0  0  0  0  0  0  0  0  0  0  0  0
  -21.2787   10.1449  -15.4661 C   0  0  0  0  0  0  0  0  0  0  0  0
  -22.4064   10.0927  -14.6457 N   0  0  0  0  0  0  0  0  0  0  0  0
  -23.7857   10.0190  -15.0059 C   0  0  0  0  0  0  0  0  0  0  0  0
  -24.6199   10.7434  -13.9560 C   0  0  0  0  0  0  0  0  0  0  0  0
  -23.9128   11.8374  -13.4229 N   0  0  0  0  0  0  0  0  0  0  0  0
  -23.8152   12.9221  -14.3384 C   0  0  0  0  0  0  0  0  0  0  0  0
  -22.7550   11.4888  -12.6830 C   0  0  0  0  0  0  0  0  0  0  0  0
  -22.1495   10.1593  -13.1872 C   0  0  0  0  0  0  0  0  0  0  0  0
  -20.7547    7.5289  -15.0600 S   0  0  0  0  0  0  0  0  0  0  0  0
  -19.6354    6.5437  -15.3303 O   0  0  0  0  0  0  0  0  0  0  0  0
  -20.6951    7.6882  -13.5230 O   0  0  0  0  0  0  0  0  0  0  0  0
  -22.1575    5.6958  -16.3369 C   0  0  0  0  0  0  0  0  0  0  0  0
  -22.3558    6.8735  -15.3676 C   0  0  0  0  0  0  0  0  0  0  0  0
  -18.9161   14.4717  -20.5966 N   0  0  0  0  0  0  0  0  0  0  0  0
  -18.0368   15.5154  -20.8291 C   0  0  0  0  0  0  0  0  0  0  0  0
  -17.6780   15.8426  -22.1465 C   0  0  0  0  0  0  0  0  0  0  0  0
  -16.8159   16.8630  -22.4491 C   0  0  0  0  0  0  0  0  0  0  0  0
  -16.2570   17.6227  -21.4520 C   0  0  0  0  0  0  0  0  0  0  0  0
  -16.5743   17.3449  -20.1530 C   0  0  0  0  0  0  0  0  0  0  0  0
  -17.4445   16.3149  -19.8462 C   0  0  0  0  0  0  0  0  0  0  0  0
  -17.7349   16.0886  -18.4266 C   0  0  0  0  0  0  0  0  0  0  0  0
  -16.4757   17.1604  -23.8536 C   0  0  0  0  0  0  0  0  0  0  0  0
  -17.2722   18.1955  -24.3532 O   0  0  0  0  0  0  0  0  0  0  0  0
  -16.6666   18.8945  -24.6990 H   0  0  0  0  0  0  0  0  0  0  0  0
  -20.3081   14.4790  -20.4364 C   0  0  0  0  0  0  0  0  0  0  0  0
  -21.0500   15.0420  -19.3585 C   0  0  0  0  0  0  0  0  0  0  0  0
  -21.3600   14.4974  -18.1725 C   0  0  0  0  0  0  0  0  0  0  0  0
  -22.1306   15.1751  -17.2398 C   0  0  0  0  0  0  0  0  0  0  0  0
  -22.6208   16.4229  -17.4592 C   0  0  0  0  0  0  0  0  0  0  0  0
  -22.3064   16.9988  -18.6872 C   0  0  0  0  0  0  0  0  0  0  0  0
  -21.5551   16.3516  -19.6089 C   0  0  0  0  0  0  0  0  0  0  0  0
  -21.2665   17.0139  -20.8681 C   0  0  0  0  0  0  0  0  0  0  0  0
  -21.0354   17.5273  -21.8791 N   0  0  0  0  0  0  0  0  0  0  0  0
 26 27  1  0  0  0
 27 23  1  0  0  0
 23 24  2  0  0  0
 23 25  2  0  0  0
 23 10  1  0  0  0
 10 11  2  0  0  0
 11 12  1  0  0  0
 12  8  1  0  0  0
  8  1  1  0  0  0
  1  2  2  0  0  0
  2  3  1  0  0  0
  3  4  2  0  0  0
  4  5  1  0  0  0
  4  6  1  0  0  0
  6  7  2  0  0  0
  6 28  1  0  0  0
 28 39  1  0  0  0
 39 40  1  0  0  0
 40 41  2  0  0  0
 41 42  1  0  0  0
 42 43  2  0  0  0
 43 44  1  0  0  0
 44 45  2  0  0  0
 45 46  1  0  0  0
 46 47  3  0  0  0
 28 29  1  0  0  0
 29 30  2  0  0  0
 30 31  1  0  0  0
 31 36  1  0  0  0
 36 37  1  0  0  0
 31 32  2  0  0  0
 32 33  1  0  0  0
 33 34  2  0  0  0
 34 35  1  0  0  0
 12 13  2  0  0  0
 13 14  1  0  0  0
 14 15  2  0  0  0
 15 16  1  0  0  0
 16 17  1  0  0  0
 17 18  1  0  0  0
 18 19  1  0  0  0
 19 20  1  0  0  0
 19 21  1  0  0  0
 21 22  1  0  0  0
 15 10  1  0  0  0
 22 16  1  0  0  0
  7  1  1  0  0  0
 45 40  1  0  0  0
 34 29  1  0  0  0
  8  9  1  0  0  0
 37 38  1  0  0  0
M  END
> <minimizedAffinity>
-8.24957

> <CNNscore>
0.4425178170

> <CNNaffinity>
7.6270055771

> <CNN_VS>
3.3750858307

> <CNNaffinity_variance>
0.0926805213

$$$$
[H]OC([H])([H])c1c([H])c([H])c(C([H])([H])[H])c(N(c2nc(N([H])c3c([H])c([H])c(N4C([H])([H])C([H])([H])N(C([H])([H])[H])C([H])([H])C4([H])[H])c(S(=O)(=O)C([H])([H])C([H])([H])[H])c3[H])nc([H])c2F)C([H])([H])c2c([H])c([H])c([H])c([H])c2C#N)c1[H]


 47 51  0  0  0  0  0  0  0  0999 V2000
  -18.6740   12.5424  -20.3327 C   0  0  0  0  0  0  0  0  0  0  0  0
  -17.9959   11.3908  -20.2010 N   0  0  0  0  0  0  0  0  0  0  0  0
  -16.9291   11.0990  -20.9340 C   0  0  0  0  0  0  0  0  0  0  0  0
  -16.4932   12.0329  -21.8847 C   0  0  0  0  0  0  0  0  0  0  0  0
  -15.4416   11.7022  -22.6232 F   0  0  0  0  0  0  0  0  0  0  0  0
  -17.1514   13.2135  -22.0495 C   0  0  0  0  0  0  0  0  0  0  0  0
  -18.2148   13.4308  -21.2741 N   0  0  0  0  0  0  0  0  0  0  0  0
  -19.8098   12.8916  -19.5803 N   0  0  0  0  0  0  0  0  0  0  0  0
  -20.5634   12.1355  -19.5082 H   0  0  0  0  0  0  0  0  0  0  0  0
  -20.9047   16.4009  -19.2524 C   0  0  0  0  0  0  0  0  0  0  0  0
  -20.6099   15.1165  -19.7135 C   0  0  0  0  0  0  0  0  0  0  0  0
  -20.0523   14.1064  -18.9382 C   0  0  0  0  0  0  0  0  0  0  0  0
  -19.7822   14.4141  -17.6399 C   0  0  0  0  0  0  0  0  0  0  0  0
  -20.0584   15.6643  -17.1519 C   0  0  0  0  0  0  0  0  0  0  0  0
  -20.6279   16.6833  -17.9575 C   0  0  0  0  0  0  0  0  0  0  0  0
  -20.8663   17.9128  -17.3417 N   0  0  0  0  0  0  0  0  0  0  0  0
  -19.9680   18.9969  -17.1062 C   0  0  0  0  0  0  0  0  0  0  0  0
  -20.3659   19.7102  -15.8195 C   0  0  0  0  0  0  0  0  0  0  0  0
  -20.9018   18.8008  -14.8885 N   0  0  0  0  0  0  0  0  0  0  0  0
  -19.9085   17.9592  -14.3143 C   0  0  0  0  0  0  0  0  0  0  0  0
  -22.1273   18.2063  -15.2811 C   0  0  0  0  0  0  0  0  0  0  0  0
  -22.2383   18.1204  -16.8201 C   0  0  0  0  0  0  0  0  0  0  0  0
  -21.5976   17.5761  -20.3123 S   0  0  0  0  0  0  0  0  0  0  0  0
  -20.8406   18.8888  -20.3312 O   0  0  0  0  0  0  0  0  0  0  0  0
  -21.3890   17.0499  -21.7514 O   0  0  0  0  0  0  0  0  0  0  0  0
  -23.8949   17.7150  -21.6015 C   0  0  0  0  0  0  0  0  0  0  0  0
  -23.3380   17.7720  -20.1688 C   0  0  0  0  0  0  0  0  0  0  0  0
  -16.7237   14.2463  -23.0063 N   0  0  0  0  0  0  0  0  0  0  0  0
  -17.0723   15.5494  -22.6947 C   0  0  0  0  0  0  0  0  0  0  0  0
  -16.3489   16.2477  -21.7146 C   0  0  0  0  0  0  0  0  0  0  0  0
  -16.6375   17.5383  -21.3583 C   0  0  0  0  0  0  0  0  0  0  0  0
  -17.6693   18.2141  -21.9605 C   0  0  0  0  0  0  0  0  0  0  0  0
  -18.4036   17.5790  -22.9210 C   0  0  0  0  0  0  0  0  0  0  0  0
  -18.1133   16.2759  -23.2817 C   0  0  0  0  0  0  0  0  0  0  0  0
  -18.9479   15.6717  -24.3253 C   0  0  0  0  0  0  0  0  0  0  0  0
  -15.8418   18.2213  -20.3205 C   0  0  0  0  0  0  0  0  0  0  0  0
  -15.4610   17.3289  -19.3135 O   0  0  0  0  0  0  0  0  0  0  0  0
  -14.4781   17.3767  -19.2318 H   0  0  0  0  0  0  0  0  0  0  0  0
  -15.9885   13.7390  -24.0859 C   0  0  0  0  0  0  0  0  0  0  0  0
  -15.7562   14.3671  -25.3432 C   0  0  0  0  0  0  0  0  0  0  0  0
  -14.8972   15.3509  -25.6489 C   0  0  0  0  0  0  0  0  0  0  0  0
  -14.8223   15.8799  -26.9287 C   0  0  0  0  0  0  0  0  0  0  0  0
  -15.6049   15.4449  -27.9503 C   0  0  0  0  0  0  0  0  0  0  0  0
  -16.5013   14.4241  -27.6454 C   0  0  0  0  0  0  0  0  0  0  0  0
  -16.5872   13.8961  -26.4018 C   0  0  0  0  0  0  0  0  0  0  0  0
  -17.5451   12.8332  -26.1564 C   0  0  0  0  0  0  0  0  0  0  0  0
  -18.3099   11.9907  -25.9453 N   0  0  0  0  0  0  0  0  0  0  0  0
 26 27  1  0  0  0
 27 23  1  0  0  0
 23 24  2  0  0  0
 23 25  2  0  0  0
 23 10  1  0  0  0
 10 11  2  0  0  0
 11 12  1  0  0  0
 12  8  1  0  0  0
  8  1  1  0  0  0
  1  2  2  0  0  0
  2  3  1  0  0  0
  3  4  2  0  0  0
  4  5  1  0  0  0
  4  6  1  0  0  0
  6  7  2  0  0  0
  6 28  1  0  0  0
 28 39  1  0  0  0
 39 40  1  0  0  0
 40 41  2  0  0  0
 41 42  1  0  0  0
 42 43  2  0  0  0
 43 44  1  0  0  0
 44 45  2  0  0  0
 45 46  1  0  0  0
 46 47  3  0  0  0
 28 29  1  0  0  0
 29 30  2  0  0  0
 30 31  1  0  0  0
 31 36  1  0  0  0
 36 37  1  0  0  0
 31 32  2  0  0  0
 32 33  1  0  0  0
 33 34  2  0  0  0
 34 35  1  0  0  0
 12 13  2  0  0  0
 13 14  1  0  0  0
 14 15  2  0  0  0
 15 16  1  0  0  0
 16 17  1  0  0  0
 17 18  1  0  0  0
 18 19  1  0  0  0
 19 20  1  0  0  0
 19 21  1  0  0  0
 21 22  1  0  0  0
 15 10  1  0  0  0
 22 16  1  0  0  0
  7  1  1  0  0  0
 45 40  1  0  0  0
 34 29  1  0  0  0
  8  9  1  0  0  0
 37 38  1  0  0  0
M  END
> <minimizedAffinity>
-8.87059

> <CNNscore>
0.2095158100

> <CNNaffinity>
7.4351720810

> <CNN_VS>
1.5577861071

> <CNNaffinity_variance>
0.9084720612

$$$$
[H]OC([H])([H])c1c([H])c([H])c(C([H])([H])[H])c(N(c2nc(N([H])c3c([H])c([H])c(N4C([H])([H])C([H])([H])N(C([H])([H])[H])C([H])([H])C4([H])[H])c(S(=O)(=O)C([H])([H])C([H])([H])[H])c3[H])nc([H])c2F)C([H])([H])c2c([H])c([H])c([H])c([H])c2C#N)c1[H]


 47 51  0  0  0  0  0  0  0  0999 V2000
  -18.3188   12.2913  -20.2855 C   0  0  0  0  0  0  0  0  0  0  0  0
  -17.6120   11.1504  -20.2430 N   0  0  0  0  0  0  0  0  0  0  0  0
  -16.6014   10.9018  -21.0661 C   0  0  0  0  0  0  0  0  0  0  0  0
  -16.2589   11.8718  -22.0189 C   0  0  0  0  0  0  0  0  0  0  0  0
  -15.2633   11.5842  -22.8475 F   0  0  0  0  0  0  0  0  0  0  0  0
  -16.9491   13.0431  -22.0951 C   0  0  0  0  0  0  0  0  0  0  0  0
  -17.9516   13.2161  -21.2323 N   0  0  0  0  0  0  0  0  0  0  0  0
  -19.3977   12.5952  -19.4358 N   0  0  0  0  0  0  0  0  0  0  0  0
  -19.6917   11.8122  -18.7685 H   0  0  0  0  0  0  0  0  0  0  0  0
  -21.4705   15.2486  -17.9243 C   0  0  0  0  0  0  0  0  0  0  0  0
  -20.7007   14.1086  -18.1631 C   0  0  0  0  0  0  0  0  0  0  0  0
  -20.1160   13.7903  -19.3834 C   0  0  0  0  0  0  0  0  0  0  0  0
  -20.3224   14.6666  -20.4044 C   0  0  0  0  0  0  0  0  0  0  0  0
  -21.0721   15.7965  -20.2073 C   0  0  0  0  0  0  0  0  0  0  0  0
  -21.6613   16.1058  -18.9548 C   0  0  0  0  0  0  0  0  0  0  0  0
  -22.3977   17.2890  -18.8809 N   0  0  0  0  0  0  0  0  0  0  0  0
  -23.8124   17.4782  -18.9056 C   0  0  0  0  0  0  0  0  0  0  0  0
  -24.1305   18.8127  -19.5693 C   0  0  0  0  0  0  0  0  0  0  0  0
  -23.1913   19.1076  -20.5752 N   0  0  0  0  0  0  0  0  0  0  0  0
  -23.3606   18.2988  -21.7335 C   0  0  0  0  0  0  0  0  0  0  0  0
  -21.8714   19.3247  -20.1062 C   0  0  0  0  0  0  0  0  0  0  0  0
  -21.6065   18.5400  -18.8014 C   0  0  0  0  0  0  0  0  0  0  0  0
  -22.1486   15.5381  -16.3619 S   0  0  0  0  0  0  0  0  0  0  0  0
  -23.6636   15.5049  -16.3488 O   0  0  0  0  0  0  0  0  0  0  0  0
  -21.7804   14.3167  -15.4879 O   0  0  0  0  0  0  0  0  0  0  0  0
  -19.9702   16.9325  -15.8429 C   0  0  0  0  0  0  0  0  0  0  0  0
  -21.4694   16.9104  -15.4997 C   0  0  0  0  0  0  0  0  0  0  0  0
  -16.6170   14.1120  -23.0503 N   0  0  0  0  0  0  0  0  0  0  0  0
  -17.0786   15.3783  -22.7345 C   0  0  0  0  0  0  0  0  0  0  0  0
  -16.4059   16.1431  -21.7681 C   0  0  0  0  0  0  0  0  0  0  0  0
  -16.8059   17.4027  -21.4085 C   0  0  0  0  0  0  0  0  0  0  0  0
  -17.9056   17.9790  -21.9937 C   0  0  0  0  0  0  0  0  0  0  0  0
  -18.5948   17.2762  -22.9404 C   0  0  0  0  0  0  0  0  0  0  0  0
  -18.1920   16.0042  -23.3043 C   0  0  0  0  0  0  0  0  0  0  0  0
  -18.9853   15.3228  -24.3324 C   0  0  0  0  0  0  0  0  0  0  0  0
  -16.0587   18.1592  -20.3857 C   0  0  0  0  0  0  0  0  0  0  0  0
  -16.9241   18.9236  -19.5969 O   0  0  0  0  0  0  0  0  0  0  0  0
  -16.7609   18.6775  -18.6546 H   0  0  0  0  0  0  0  0  0  0  0  0
  -15.8428   13.6742  -24.1330 C   0  0  0  0  0  0  0  0  0  0  0  0
  -15.6581   14.3309  -25.3836 C   0  0  0  0  0  0  0  0  0  0  0  0
  -14.8102   15.3210  -25.6995 C   0  0  0  0  0  0  0  0  0  0  0  0
  -14.7838   15.8793  -26.9687 C   0  0  0  0  0  0  0  0  0  0  0  0
  -15.6056   15.4682  -27.9692 C   0  0  0  0  0  0  0  0  0  0  0  0
  -16.4910   14.4411  -27.6536 C   0  0  0  0  0  0  0  0  0  0  0  0
  -16.5298   13.8847  -26.4199 C   0  0  0  0  0  0  0  0  0  0  0  0
  -17.4790   12.8170  -26.1624 C   0  0  0  0  0  0  0  0  0  0  0  0
  -18.2397   11.9729  -25.9430 N   0  0  0  0  0  0  0  0  0  0  0  0
 26 27  1  0  0  0
 27 23  1  0  0  0
 23 24  2  0  0  0
 23 25  2  0  0  0
 23 10  1  0  0  0
 10 11  2  0  0  0
 11 12  1  0  0  0
 12  8  1  0  0  0
  8  1  1  0  0  0
  1  2  2  0  0  0
  2  3  1  0  0  0
  3  4  2  0  0  0
  4  5  1  0  0  0
  4  6  1  0  0  0
  6  7  2  0  0  0
  6 28  1  0  0  0
 28 39  1  0  0  0
 39 40  1  0  0  0
 40 41  2  0  0  0
 41 42  1  0  0  0
 42 43  2  0  0  0
 43 44  1  0  0  0
 44 45  2  0  0  0
 45 46  1  0  0  0
 46 47  3  0  0  0
 28 29  1  0  0  0
 29 30  2  0  0  0
 30 31  1  0  0  0
 31 36  1  0  0  0
 36 37  1  0  0  0
 31 32  2  0  0  0
 32 33  1  0  0  0
 33 34  2  0  0  0
 34 35  1  0  0  0
 12 13  2  0  0  0
 13 14  1  0  0  0
 14 15  2  0  0  0
 15 16  1  0  0  0
 16 17  1  0  0  0
 17 18  1  0  0  0
 18 19  1  0  0  0
 19 20  1  0  0  0
 19 21  1  0  0  0
 21 22  1  0  0  0
 15 10  1  0  0  0
 22 16  1  0  0  0
  7  1  1  0  0  0
 45 40  1  0  0  0
 34 29  1  0  0  0
  8  9  1  0  0  0
 37 38  1  0  0  0
M  END
> <minimizedAffinity>
-9.34237

> <CNNscore>
0.1750073880

> <CNNaffinity>
7.1647338867

> <CNN_VS>
1.2538813353

> <CNNaffinity_variance>
1.0511701107

$$$$
[H]OC([H])([H])c1c([H])c([H])c(C([H])([H])[H])c(N(c2nc(N([H])c3c([H])c([H])c(N4C([H])([H])C([H])([H])N(C([H])([H])[H])C([H])([H])C4([H])[H])c(S(=O)(=O)C([H])([H])C([H])([H])[H])c3[H])nc([H])c2F)C([H])([H])c2c([H])c([H])c([H])c([H])c2C#N)c1[H]


 47 51  0  0  0  0  0  0  0  0999 V2000
  -19.9055   13.5221  -19.6122 C   0  0  0  0  0  0  0  0  0  0  0  0
  -19.0977   12.4500  -19.5791 N   0  0  0  0  0  0  0  0  0  0  0  0
  -18.0845   12.2894  -20.4206 C   0  0  0  0  0  0  0  0  0  0  0  0
  -17.8490   13.2812  -21.3833 C   0  0  0  0  0  0  0  0  0  0  0  0
  -16.8472   13.0804  -22.2299 F   0  0  0  0  0  0  0  0  0  0  0  0
  -18.6436   14.3849  -21.4505 C   0  0  0  0  0  0  0  0  0  0  0  0
  -19.6412   14.4712  -20.5692 N   0  0  0  0  0  0  0  0  0  0  0  0
  -20.9912   13.7319  -18.7431 N   0  0  0  0  0  0  0  0  0  0  0  0
  -21.7375   12.9651  -18.7467 H   0  0  0  0  0  0  0  0  0  0  0  0
  -22.4259   16.9460  -17.6325 C   0  0  0  0  0  0  0  0  0  0  0  0
  -22.1071   15.7794  -18.3303 C   0  0  0  0  0  0  0  0  0  0  0  0
  -21.1939   14.8243  -17.8990 C   0  0  0  0  0  0  0  0  0  0  0  0
  -20.5780   15.0645  -16.7090 C   0  0  0  0  0  0  0  0  0  0  0  0
  -20.8657   16.1985  -15.9959 C   0  0  0  0  0  0  0  0  0  0  0  0
  -21.8010   17.1628  -16.4512 C   0  0  0  0  0  0  0  0  0  0  0  0
  -22.0102   18.2726  -15.6312 N   0  0  0  0  0  0  0  0  0  0  0  0
  -21.4233   19.5721  -15.6989 C   0  0  0  0  0  0  0  0  0  0  0  0
  -21.3034   20.1446  -14.2916 C   0  0  0  0  0  0  0  0  0  0  0  0
  -21.0592   19.1227  -13.3550 N   0  0  0  0  0  0  0  0  0  0  0  0
  -19.7352   18.6089  -13.4412 C   0  0  0  0  0  0  0  0  0  0  0  0
  -22.1207   18.1959  -13.2013 C   0  0  0  0  0  0  0  0  0  0  0  0
  -22.9484   18.0745  -14.5007 C   0  0  0  0  0  0  0  0  0  0  0  0
  -23.5793   18.0627  -18.2706 S   0  0  0  0  0  0  0  0  0  0  0  0
  -22.9824   19.4126  -18.6139 O   0  0  0  0  0  0  0  0  0  0  0  0
  -23.9981   17.5206  -19.6570 O   0  0  0  0  0  0  0  0  0  0  0  0
  -25.3895   16.7464  -16.8744 C   0  0  0  0  0  0  0  0  0  0  0  0
  -25.0858   18.1697  -17.3723 C   0  0  0  0  0  0  0  0  0  0  0  0
  -18.4276   15.4743  -22.4157 N   0  0  0  0  0  0  0  0  0  0  0  0
  -18.5027   16.7613  -21.9112 C   0  0  0  0  0  0  0  0  0  0  0  0
  -19.6383   17.5451  -22.1707 C   0  0  0  0  0  0  0  0  0  0  0  0
  -19.7800   18.8242  -21.7017 C   0  0  0  0  0  0  0  0  0  0  0  0
  -18.7937   19.4017  -20.9417 C   0  0  0  0  0  0  0  0  0  0  0  0
  -17.6686   18.6804  -20.6605 C   0  0  0  0  0  0  0  0  0  0  0  0
  -17.5243   17.3889  -21.1335 C   0  0  0  0  0  0  0  0  0  0  0  0
  -16.2876   16.6843  -20.7802 C   0  0  0  0  0  0  0  0  0  0  0  0
  -20.9971   19.6002  -22.0072 C   0  0  0  0  0  0  0  0  0  0  0  0
  -22.1141   19.0508  -21.3701 O   0  0  0  0  0  0  0  0  0  0  0  0
  -22.5310   19.7674  -20.8337 H   0  0  0  0  0  0  0  0  0  0  0  0
  -18.1423   15.0250  -23.7119 C   0  0  0  0  0  0  0  0  0  0  0  0
  -17.0056   15.3491  -24.5071 C   0  0  0  0  0  0  0  0  0  0  0  0
  -16.2100   16.4270  -24.4421 C   0  0  0  0  0  0  0  0  0  0  0  0
  -15.1565   16.6083  -25.3255 C   0  0  0  0  0  0  0  0  0  0  0  0
  -14.8601   15.7181  -26.3078 C   0  0  0  0  0  0  0  0  0  0  0  0
  -15.6792   14.5949  -26.3861 C   0  0  0  0  0  0  0  0  0  0  0  0
  -16.7116   14.4021  -25.5317 C   0  0  0  0  0  0  0  0  0  0  0  0
  -17.5237   13.2071  -25.6723 C   0  0  0  0  0  0  0  0  0  0  0  0
  -18.1696   12.2554  -25.8005 N   0  0  0  0  0  0  0  0  0  0  0  0
 26 27  1  0  0  0
 27 23  1  0  0  0
 23 24  2  0  0  0
 23 25  2  0  0  0
 23 10  1  0  0  0
 10 11  2  0  0  0
 11 12  1  0  0  0
 12  8  1  0  0  0
  8  1  1  0  0  0
  1  2  2  0  0  0
  2  3  1  0  0  0
  3  4  2  0  0  0
  4  5  1  0  0  0
  4  6  1  0  0  0
  6  7  2  0  0  0
  6 28  1  0  0  0
 28 39  1  0  0  0
 39 40  1  0  0  0
 40 41  2  0  0  0
 41 42  1  0  0  0
 42 43  2  0  0  0
 43 44  1  0  0  0
 44 45  2  0  0  0
 45 46  1  0  0  0
 46 47  3  0  0  0
 28 29  1  0  0  0
 29 30  2  0  0  0
 30 31  1  0  0  0
 31 36  1  0  0  0
 36 37  1  0  0  0
 31 32  2  0  0  0
 32 33  1  0  0  0
 33 34  2  0  0  0
 34 35  1  0  0  0
 12 13  2  0  0  0
 13 14  1  0  0  0
 14 15  2  0  0  0
 15 16  1  0  0  0
 16 17  1  0  0  0
 17 18  1  0  0  0
 18 19  1  0  0  0
 19 20  1  0  0  0
 19 21  1  0  0  0
 21 22  1  0  0  0
 15 10  1  0  0  0
 22 16  1  0  0  0
  7  1  1  0  0  0
 45 40  1  0  0  0
 34 29  1  0  0  0
  8  9  1  0  0  0
 37 38  1  0  0  0
M  END
> <minimizedAffinity>
-7.71639

> <CNNscore>
0.1496283561

> <CNNaffinity>
6.8974037170

> <CNN_VS>
1.0320471525

> <CNNaffinity_variance>
0.6471971273

$$$$
[H]OC([H])([H])c1c([H])c([H])c(C([H])([H])[H])c(N(c2nc(N([H])c3c([H])c([H])c(N4C([H])([H])C([H])([H])N(C([H])([H])[H])C([H])([H])C4([H])[H])c(S(=O)(=O)C([H])([H])C([H])([H])[H])c3[H])nc([H])c2F)C([H])([H])c2c([H])c([H])c([H])c([H])c2C#N)c1[H]


 47 51  0  0  0  0  0  0  0  0999 V2000
  -18.4947   11.7259  -18.5420 C   0  0  0  0  0  0  0  0  0  0  0  0
  -17.5398   10.8347  -18.8538 N   0  0  0  0  0  0  0  0  0  0  0  0
  -16.8225   10.9124  -19.9673 C   0  0  0  0  0  0  0  0  0  0  0  0
  -17.0734   11.9695  -20.8538 C   0  0  0  0  0  0  0  0  0  0  0  0
  -16.3613   12.0057  -21.9728 F   0  0  0  0  0  0  0  0  0  0  0  0
  -18.0320   12.8955  -20.5752 C   0  0  0  0  0  0  0  0  0  0  0  0
  -18.7093   12.7465  -19.4357 N   0  0  0  0  0  0  0  0  0  0  0  0
  -19.2800   11.6808  -17.3760 N   0  0  0  0  0  0  0  0  0  0  0  0
  -19.4865   12.6285  -16.9242 H   0  0  0  0  0  0  0  0  0  0  0  0
  -21.6597    9.6903  -15.3768 C   0  0  0  0  0  0  0  0  0  0  0  0
  -20.9995   10.7048  -16.0727 C   0  0  0  0  0  0  0  0  0  0  0  0
  -19.7993   10.5441  -16.7553 C   0  0  0  0  0  0  0  0  0  0  0  0
  -19.2460    9.3006  -16.7297 C   0  0  0  0  0  0  0  0  0  0  0  0
  -19.8654    8.2800  -16.0573 C   0  0  0  0  0  0  0  0  0  0  0  0
  -21.0905    8.4618  -15.3660 C   0  0  0  0  0  0  0  0  0  0  0  0
  -21.6229    7.3428  -14.7242 N   0  0  0  0  0  0  0  0  0  0  0  0
  -21.5321    6.9567  -13.3529 C   0  0  0  0  0  0  0  0  0  0  0  0
  -21.5330    5.4357  -13.2568 C   0  0  0  0  0  0  0  0  0  0  0  0
  -20.8900    4.8637  -14.3705 N   0  0  0  0  0  0  0  0  0  0  0  0
  -19.4779    5.0341  -14.3321 C   0  0  0  0  0  0  0  0  0  0  0  0
  -21.5494    5.0762  -15.6073 C   0  0  0  0  0  0  0  0  0  0  0  0
  -22.3612    6.3911  -15.5883 C   0  0  0  0  0  0  0  0  0  0  0  0
  -23.1497   10.0103  -14.5631 S   0  0  0  0  0  0  0  0  0  0  0  0
  -23.0770    9.7861  -13.0661 O   0  0  0  0  0  0  0  0  0  0  0  0
  -23.3871   11.5352  -14.6610 O   0  0  0  0  0  0  0  0  0  0  0  0
  -25.7037   10.3280  -15.1418 C   0  0  0  0  0  0  0  0  0  0  0  0
  -24.5723    9.2998  -15.3108 C   0  0  0  0  0  0  0  0  0  0  0  0
  -18.3190   14.0443  -21.4487 N   0  0  0  0  0  0  0  0  0  0  0  0
  -17.6490   14.0731  -22.6598 C   0  0  0  0  0  0  0  0  0  0  0  0
  -18.1089   13.2865  -23.7281 C   0  0  0  0  0  0  0  0  0  0  0  0
  -17.4965   13.2678  -24.9531 C   0  0  0  0  0  0  0  0  0  0  0  0
  -16.3837   14.0361  -25.1884 C   0  0  0  0  0  0  0  0  0  0  0  0
  -15.8968   14.8196  -24.1814 C   0  0  0  0  0  0  0  0  0  0  0  0
  -16.5141   14.8393  -22.9440 C   0  0  0  0  0  0  0  0  0  0  0  0
  -15.9291   15.7127  -21.9214 C   0  0  0  0  0  0  0  0  0  0  0  0
  -18.0256   12.4204  -26.0387 C   0  0  0  0  0  0  0  0  0  0  0  0
  -16.9882   11.7870  -26.7301 O   0  0  0  0  0  0  0  0  0  0  0  0
  -17.1700   10.8166  -26.7127 H   0  0  0  0  0  0  0  0  0  0  0  0
  -19.2689   14.9272  -20.9180 C   0  0  0  0  0  0  0  0  0  0  0  0
  -19.3063   16.3439  -21.0628 C   0  0  0  0  0  0  0  0  0  0  0  0
  -19.6786   17.0739  -22.1247 C   0  0  0  0  0  0  0  0  0  0  0  0
  -19.6191   18.4593  -22.1124 C   0  0  0  0  0  0  0  0  0  0  0  0
  -19.1839   19.1663  -21.0371 C   0  0  0  0  0  0  0  0  0  0  0  0
  -18.7940   18.4198  -19.9284 C   0  0  0  0  0  0  0  0  0  0  0  0
  -18.8460   17.0670  -19.9234 C   0  0  0  0  0  0  0  0  0  0  0  0
  -18.4237   16.3539  -18.7315 C   0  0  0  0  0  0  0  0  0  0  0  0
  -18.0715   15.7870  -17.7861 N   0  0  0  0  0  0  0  0  0  0  0  0
 26 27  1  0  0  0
 27 23  1  0  0  0
 23 24  2  0  0  0
 23 25  2  0  0  0
 23 10  1  0  0  0
 10 11  2  0  0  0
 11 12  1  0  0  0
 12  8  1  0  0  0
  8  1  1  0  0  0
  1  2  2  0  0  0
  2  3  1  0  0  0
  3  4  2  0  0  0
  4  5  1  0  0  0
  4  6  1  0  0  0
  6  7  2  0  0  0
  6 28  1  0  0  0
 28 39  1  0  0  0
 39 40  1  0  0  0
 40 41  2  0  0  0
 41 42  1  0  0  0
 42 43  2  0  0  0
 43 44  1  0  0  0
 44 45  2  0  0  0
 45 46  1  0  0  0
 46 47  3  0  0  0
 28 29  1  0  0  0
 29 30  2  0  0  0
 30 31  1  0  0  0
 31 36  1  0  0  0
 36 37  1  0  0  0
 31 32  2  0  0  0
 32 33  1  0  0  0
 33 34  2  0  0  0
 34 35  1  0  0  0
 12 13  2  0  0  0
 13 14  1  0  0  0
 14 15  2  0  0  0
 15 16  1  0  0  0
 16 17  1  0  0  0
 17 18  1  0  0  0
 18 19  1  0  0  0
 19 20  1  0  0  0
 19 21  1  0  0  0
 21 22  1  0  0  0
 15 10  1  0  0  0
 22 16  1  0  0  0
  7  1  1  0  0  0
 45 40  1  0  0  0
 34 29  1  0  0  0
  8  9  1  0  0  0
 37 38  1  0  0  0
M  END
> <minimizedAffinity>
-8.49879

> <CNNscore>
0.1150266305

> <CNNaffinity>
7.4603371620

> <CNN_VS>
0.8581374288

> <CNNaffinity_variance>
0.0699961782

$$$$
[H]OC([H])([H])c1c([H])c([H])c(C([H])([H])[H])c(N(c2nc(N([H])c3c([H])c([H])c(N4C([H])([H])C([H])([H])N(C([H])([H])[H])C([H])([H])C4([H])[H])c(S(=O)(=O)C([H])([H])C([H])([H])[H])c3[H])nc([H])c2F)C([H])([H])c2c([H])c([H])c([H])c([H])c2C#N)c1[H]


 47 51  0  0  0  0  0  0  0  0999 V2000
  -18.5254   11.9494  -18.5771 C   0  0  0  0  0  0  0  0  0  0  0  0
  -17.7231   10.9683  -19.0207 N   0  0  0  0  0  0  0  0  0  0  0  0
  -17.0938   11.0289  -20.1872 C   0  0  0  0  0  0  0  0  0  0  0  0
  -17.2752   12.1652  -20.9884 C   0  0  0  0  0  0  0  0  0  0  0  0
  -16.6568   12.1858  -22.1622 F   0  0  0  0  0  0  0  0  0  0  0  0
  -18.0792   13.1836  -20.5756 C   0  0  0  0  0  0  0  0  0  0  0  0
  -18.6763   13.0457  -19.3907 N   0  0  0  0  0  0  0  0  0  0  0  0
  -19.2135   11.9262  -17.3506 N   0  0  0  0  0  0  0  0  0  0  0  0
  -19.2950   12.8691  -16.8516 H   0  0  0  0  0  0  0  0  0  0  0  0
  -21.6660   10.0521  -15.3270 C   0  0  0  0  0  0  0  0  0  0  0  0
  -20.9641   11.0341  -16.0287 C   0  0  0  0  0  0  0  0  0  0  0  0
  -19.7817   10.8153  -16.7261 C   0  0  0  0  0  0  0  0  0  0  0  0
  -19.2913    9.5456  -16.7098 C   0  0  0  0  0  0  0  0  0  0  0  0
  -19.9531    8.5555  -16.0322 C   0  0  0  0  0  0  0  0  0  0  0  0
  -21.1591    8.7966  -15.3257 C   0  0  0  0  0  0  0  0  0  0  0  0
  -21.7393    7.7040  -14.6799 N   0  0  0  0  0  0  0  0  0  0  0  0
  -21.6328    7.2970  -13.3158 C   0  0  0  0  0  0  0  0  0  0  0  0
  -21.7223    5.7778  -13.2349 C   0  0  0  0  0  0  0  0  0  0  0  0
  -21.1469    5.1815  -14.3726 N   0  0  0  0  0  0  0  0  0  0  0  0
  -19.7266    5.2668  -14.3736 C   0  0  0  0  0  0  0  0  0  0  0  0
  -21.8273    5.4476  -15.5874 C   0  0  0  0  0  0  0  0  0  0  0  0
  -22.5578    6.8083  -15.5317 C   0  0  0  0  0  0  0  0  0  0  0  0
  -23.1282   10.4443  -14.4948 S   0  0  0  0  0  0  0  0  0  0  0  0
  -23.0559   10.1930  -13.0021 O   0  0  0  0  0  0  0  0  0  0  0  0
  -23.2785   11.9816  -14.5674 O   0  0  0  0  0  0  0  0  0  0  0  0
  -25.4363    9.2300  -14.0990 C   0  0  0  0  0  0  0  0  0  0  0  0
  -24.5956    9.8281  -15.2397 C   0  0  0  0  0  0  0  0  0  0  0  0
  -18.2834   14.4144  -21.3556 N   0  0  0  0  0  0  0  0  0  0  0  0
  -18.6727   15.5336  -20.6399 C   0  0  0  0  0  0  0  0  0  0  0  0
  -20.0285   15.7226  -20.3273 C   0  0  0  0  0  0  0  0  0  0  0  0
  -20.4833   16.8046  -19.6214 C   0  0  0  0  0  0  0  0  0  0  0  0
  -19.6099   17.7680  -19.1820 C   0  0  0  0  0  0  0  0  0  0  0  0
  -18.2799   17.6304  -19.4599 C   0  0  0  0  0  0  0  0  0  0  0  0
  -17.8194   16.5384  -20.1727 C   0  0  0  0  0  0  0  0  0  0  0  0
  -16.3760   16.4661  -20.4222 C   0  0  0  0  0  0  0  0  0  0  0  0
  -21.9208   16.9498  -19.3226 C   0  0  0  0  0  0  0  0  0  0  0  0
  -22.3046   18.2942  -19.3507 O   0  0  0  0  0  0  0  0  0  0  0  0
  -23.0547   18.3746  -19.9879 H   0  0  0  0  0  0  0  0  0  0  0  0
  -18.0139   14.2620  -22.7222 C   0  0  0  0  0  0  0  0  0  0  0  0
  -17.0018   14.9174  -23.4808 C   0  0  0  0  0  0  0  0  0  0  0  0
  -15.7376   14.5326  -23.7110 C   0  0  0  0  0  0  0  0  0  0  0  0
  -14.8617   15.3149  -24.4486 C   0  0  0  0  0  0  0  0  0  0  0  0
  -15.2177   16.5121  -24.9827 C   0  0  0  0  0  0  0  0  0  0  0  0
  -16.5276   16.9230  -24.7502 C   0  0  0  0  0  0  0  0  0  0  0  0
  -17.3957   16.1716  -24.0328 C   0  0  0  0  0  0  0  0  0  0  0  0
  -18.7467   16.6630  -23.8306 C   0  0  0  0  0  0  0  0  0  0  0  0
  -19.8176   17.0682  -23.6625 N   0  0  0  0  0  0  0  0  0  0  0  0
 26 27  1  0  0  0
 27 23  1  0  0  0
 23 24  2  0  0  0
 23 25  2  0  0  0
 23 10  1  0  0  0
 10 11  2  0  0  0
 11 12  1  0  0  0
 12  8  1  0  0  0
  8  1  1  0  0  0
  1  2  2  0  0  0
  2  3  1  0  0  0
  3  4  2  0  0  0
  4  5  1  0  0  0
  4  6  1  0  0  0
  6  7  2  0  0  0
  6 28  1  0  0  0
 28 39  1  0  0  0
 39 40  1  0  0  0
 40 41  2  0  0  0
 41 42  1  0  0  0
 42 43  2  0  0  0
 43 44  1  0  0  0
 44 45  2  0  0  0
 45 46  1  0  0  0
 46 47  3  0  0  0
 28 29  1  0  0  0
 29 30  2  0  0  0
 30 31  1  0  0  0
 31 36  1  0  0  0
 36 37  1  0  0  0
 31 32  2  0  0  0
 32 33  1  0  0  0
 33 34  2  0  0  0
 34 35  1  0  0  0
 12 13  2  0  0  0
 13 14  1  0  0  0
 14 15  2  0  0  0
 15 16  1  0  0  0
 16 17  1  0  0  0
 17 18  1  0  0  0
 18 19  1  0  0  0
 19 20  1  0  0  0
 19 21  1  0  0  0
 21 22  1  0  0  0
 15 10  1  0  0  0
 22 16  1  0  0  0
  7  1  1  0  0  0
 45 40  1  0  0  0
 34 29  1  0  0  0
  8  9  1  0  0  0
 37 38  1  0  0  0
M  END
> <minimizedAffinity>
-8.23127

> <CNNscore>
0.1119169518

> <CNNaffinity>
7.3006858826

> <CNN_VS>
0.8170704842

> <CNNaffinity_variance>
0.0696699396

$$$$
[H]OC([H])([H])c1c([H])c([H])c(C([H])([H])[H])c(N(c2nc(N([H])c3c([H])c([H])c(N4C([H])([H])C([H])([H])N(C([H])([H])[H])C([H])([H])C4([H])[H])c(S(=O)(=O)C([H])([H])C([H])([H])[H])c3[H])nc([H])c2F)C([H])([H])c2c([H])c([H])c([H])c([H])c2C#N)c1[H]


 47 51  0  0  0  0  0  0  0  0999 V2000
  -18.4130   13.8161  -18.9062 C   0  0  0  0  0  0  0  0  0  0  0  0
  -18.2428   12.4849  -18.9523 N   0  0  0  0  0  0  0  0  0  0  0  0
  -17.7976   11.8559  -20.0324 C   0  0  0  0  0  0  0  0  0  0  0  0
  -17.4927   12.6142  -21.1718 C   0  0  0  0  0  0  0  0  0  0  0  0
  -17.0772   11.9560  -22.2462 F   0  0  0  0  0  0  0  0  0  0  0  0
  -17.6498   13.9668  -21.1669 C   0  0  0  0  0  0  0  0  0  0  0  0
  -18.1025   14.5230  -20.0422 N   0  0  0  0  0  0  0  0  0  0  0  0
  -18.8843   14.5233  -17.7855 N   0  0  0  0  0  0  0  0  0  0  0  0
  -18.8076   14.0074  -16.8512 H   0  0  0  0  0  0  0  0  0  0  0  0
  -21.5048   17.0830  -17.3358 C   0  0  0  0  0  0  0  0  0  0  0  0
  -20.7744   15.8944  -17.3915 C   0  0  0  0  0  0  0  0  0  0  0  0
  -19.4404   15.8029  -17.7714 C   0  0  0  0  0  0  0  0  0  0  0  0
  -18.8223   16.9677  -18.1094 C   0  0  0  0  0  0  0  0  0  0  0  0
  -19.5071   18.1537  -18.0664 C   0  0  0  0  0  0  0  0  0  0  0  0
  -20.8686   18.2287  -17.6759 C   0  0  0  0  0  0  0  0  0  0  0  0
  -21.4520   19.4965  -17.6681 N   0  0  0  0  0  0  0  0  0  0  0  0
  -22.2646   20.1255  -18.6589 C   0  0  0  0  0  0  0  0  0  0  0  0
  -22.0200   21.6295  -18.6303 C   0  0  0  0  0  0  0  0  0  0  0  0
  -20.6850   21.9127  -18.2858 N   0  0  0  0  0  0  0  0  0  0  0  0
  -19.7751   21.6140  -19.3380 C   0  0  0  0  0  0  0  0  0  0  0  0
  -20.3217   21.5351  -16.9687 C   0  0  0  0  0  0  0  0  0  0  0  0
  -21.1633   20.3346  -16.4799 C   0  0  0  0  0  0  0  0  0  0  0  0
  -23.1622   17.0725  -16.8482 S   0  0  0  0  0  0  0  0  0  0  0  0
  -24.1192   17.4403  -17.9642 O   0  0  0  0  0  0  0  0  0  0  0  0
  -23.5297   15.5971  -16.5661 O   0  0  0  0  0  0  0  0  0  0  0  0
  -22.4363   17.4113  -14.3348 C   0  0  0  0  0  0  0  0  0  0  0  0
  -23.4971   17.9011  -15.3353 C   0  0  0  0  0  0  0  0  0  0  0  0
  -17.3164   14.8196  -22.3187 N   0  0  0  0  0  0  0  0  0  0  0  0
  -17.7767   16.1242  -22.2664 C   0  0  0  0  0  0  0  0  0  0  0  0
  -18.9835   16.4620  -22.8997 C   0  0  0  0  0  0  0  0  0  0  0  0
  -19.4985   17.7311  -22.8863 C   0  0  0  0  0  0  0  0  0  0  0  0
  -18.8387   18.7448  -22.2374 C   0  0  0  0  0  0  0  0  0  0  0  0
  -17.6603   18.4677  -21.6051 C   0  0  0  0  0  0  0  0  0  0  0  0
  -17.1392   17.1868  -21.6179 C   0  0  0  0  0  0  0  0  0  0  0  0
  -15.8725   16.9757  -20.9097 C   0  0  0  0  0  0  0  0  0  0  0  0
  -20.7720   18.0266  -23.5702 C   0  0  0  0  0  0  0  0  0  0  0  0
  -20.7529   19.3070  -24.1321 O   0  0  0  0  0  0  0  0  0  0  0  0
  -20.9661   19.2123  -25.0916 H   0  0  0  0  0  0  0  0  0  0  0  0
  -16.5423   14.1708  -23.2899 C   0  0  0  0  0  0  0  0  0  0  0  0
  -16.0032   14.7343  -24.4821 C   0  0  0  0  0  0  0  0  0  0  0  0
  -15.0910   15.7083  -24.6174 C   0  0  0  0  0  0  0  0  0  0  0  0
  -14.6993   16.1703  -25.8649 C   0  0  0  0  0  0  0  0  0  0  0  0
  -15.2064   15.6754  -27.0239 C   0  0  0  0  0  0  0  0  0  0  0  0
  -16.1547   14.6640  -26.8968 C   0  0  0  0  0  0  0  0  0  0  0  0
  -16.5483   14.2011  -25.6869 C   0  0  0  0  0  0  0  0  0  0  0  0
  -17.5417   13.1440  -25.6303 C   0  0  0  0  0  0  0  0  0  0  0  0
  -18.3387   12.3055  -25.6001 N   0  0  0  0  0  0  0  0  0  0  0  0
 26 27  1  0  0  0
 27 23  1  0  0  0
 23 24  2  0  0  0
 23 25  2  0  0  0
 23 10  1  0  0  0
 10 11  2  0  0  0
 11 12  1  0  0  0
 12  8  1  0  0  0
  8  1  1  0  0  0
  1  2  2  0  0  0
  2  3  1  0  0  0
  3  4  2  0  0  0
  4  5  1  0  0  0
  4  6  1  0  0  0
  6  7  2  0  0  0
  6 28  1  0  0  0
 28 39  1  0  0  0
 39 40  1  0  0  0
 40 41  2  0  0  0
 41 42  1  0  0  0
 42 43  2  0  0  0
 43 44  1  0  0  0
 44 45  2  0  0  0
 45 46  1  0  0  0
 46 47  3  0  0  0
 28 29  1  0  0  0
 29 30  2  0  0  0
 30 31  1  0  0  0
 31 36  1  0  0  0
 36 37  1  0  0  0
 31 32  2  0  0  0
 32 33  1  0  0  0
 33 34  2  0  0  0
 34 35  1  0  0  0
 12 13  2  0  0  0
 13 14  1  0  0  0
 14 15  2  0  0  0
 15 16  1  0  0  0
 16 17  1  0  0  0
 17 18  1  0  0  0
 18 19  1  0  0  0
 19 20  1  0  0  0
 19 21  1  0  0  0
 21 22  1  0  0  0
 15 10  1  0  0  0
 22 16  1  0  0  0
  7  1  1  0  0  0
 45 40  1  0  0  0
 34 29  1  0  0  0
  8  9  1  0  0  0
 37 38  1  0  0  0
M  END
> <minimizedAffinity>
-7.93624

> <CNNscore>
0.1043499559

> <CNNaffinity>
6.9950013161

> <CNN_VS>
0.7299280763

> <CNNaffinity_variance>
0.8959866762

$$$$
[H]OC([H])([H])c1c([H])c([H])c(C([H])([H])[H])c(N(c2nc(N([H])c3c([H])c([H])c(N4C([H])([H])C([H])([H])N(C([H])([H])[H])C([H])([H])C4([H])[H])c(S(=O)(=O)C([H])([H])C([H])([H])[H])c3[H])nc([H])c2F)C([H])([H])c2c([H])c([H])c([H])c([H])c2C#N)c1[H]


 47 51  0  0  0  0  0  0  0  0999 V2000
  -19.1656   11.5643  -17.6367 C   0  0  0  0  0  0  0  0  0  0  0  0
  -18.5772   10.5092  -18.2229 N   0  0  0  0  0  0  0  0  0  0  0  0
  -18.4662    9.3282  -17.6284 C   0  0  0  0  0  0  0  0  0  0  0  0
  -18.9854    9.1777  -16.3346 C   0  0  0  0  0  0  0  0  0  0  0  0
  -18.8345    7.9944  -15.7535 F   0  0  0  0  0  0  0  0  0  0  0  0
  -19.5910   10.2219  -15.7046 C   0  0  0  0  0  0  0  0  0  0  0  0
  -19.6620   11.3758  -16.3700 N   0  0  0  0  0  0  0  0  0  0  0  0
  -19.3026   12.8333  -18.2275 N   0  0  0  0  0  0  0  0  0  0  0  0
  -19.8814   13.5397  -17.6699 H   0  0  0  0  0  0  0  0  0  0  0  0
  -18.3967   15.2157  -20.8969 C   0  0  0  0  0  0  0  0  0  0  0  0
  -18.8508   14.6142  -19.7216 C   0  0  0  0  0  0  0  0  0  0  0  0
  -18.7772   13.2529  -19.4501 C   0  0  0  0  0  0  0  0  0  0  0  0
  -18.2192   12.4694  -20.4133 C   0  0  0  0  0  0  0  0  0  0  0  0
  -17.7620   13.0243  -21.5797 C   0  0  0  0  0  0  0  0  0  0  0  0
  -17.8449   14.4161  -21.8399 C   0  0  0  0  0  0  0  0  0  0  0  0
  -17.3393   14.8588  -23.0631 N   0  0  0  0  0  0  0  0  0  0  0  0
  -18.0391   15.3184  -24.2192 C   0  0  0  0  0  0  0  0  0  0  0  0
  -17.2466   14.9493  -25.4676 C   0  0  0  0  0  0  0  0  0  0  0  0
  -16.5644   13.7318  -25.2852 N   0  0  0  0  0  0  0  0  0  0  0  0
  -17.4383   12.6091  -25.3023 C   0  0  0  0  0  0  0  0  0  0  0  0
  -15.5488   13.7657  -24.2968 C   0  0  0  0  0  0  0  0  0  0  0  0
  -15.8646   14.8157  -23.2077 C   0  0  0  0  0  0  0  0  0  0  0  0
  -18.5430   16.9222  -21.1225 S   0  0  0  0  0  0  0  0  0  0  0  0
  -19.6119   17.3062  -22.1258 O   0  0  0  0  0  0  0  0  0  0  0  0
  -19.1046   17.4955  -19.8007 O   0  0  0  0  0  0  0  0  0  0  0  0
  -16.0922   17.3050  -20.2249 C   0  0  0  0  0  0  0  0  0  0  0  0
  -17.0238   17.7741  -21.3553 C   0  0  0  0  0  0  0  0  0  0  0  0
  -20.1837   10.1172  -14.3619 N   0  0  0  0  0  0  0  0  0  0  0  0
  -21.4770   10.5920  -14.2264 C   0  0  0  0  0  0  0  0  0  0  0  0
  -21.6923   11.9134  -13.8033 C   0  0  0  0  0  0  0  0  0  0  0  0
  -22.9436   12.4488  -13.6498 C   0  0  0  0  0  0  0  0  0  0  0  0
  -24.0612   11.6959  -13.9105 C   0  0  0  0  0  0  0  0  0  0  0  0
  -23.9056   10.4040  -14.3254 C   0  0  0  0  0  0  0  0  0  0  0  0
  -22.6427    9.8623  -14.4807 C   0  0  0  0  0  0  0  0  0  0  0  0
  -22.5663    8.4701  -14.9354 C   0  0  0  0  0  0  0  0  0  0  0  0
  -23.1079   13.8448  -13.2016 C   0  0  0  0  0  0  0  0  0  0  0  0
  -22.2448   14.6983  -13.8960 O   0  0  0  0  0  0  0  0  0  0  0  0
  -22.7960   15.4088  -14.3039 H   0  0  0  0  0  0  0  0  0  0  0  0
  -19.3384    9.5113  -13.4229 C   0  0  0  0  0  0  0  0  0  0  0  0
  -19.4679    9.5329  -12.0044 C   0  0  0  0  0  0  0  0  0  0  0  0
  -19.3546   10.5711  -11.1625 C   0  0  0  0  0  0  0  0  0  0  0  0
  -19.4738   10.4114   -9.7902 C   0  0  0  0  0  0  0  0  0  0  0  0
  -19.7100    9.2067   -9.2085 C   0  0  0  0  0  0  0  0  0  0  0  0
  -19.8292    8.1209  -10.0719 C   0  0  0  0  0  0  0  0  0  0  0  0
  -19.7159    8.2590  -11.4139 C   0  0  0  0  0  0  0  0  0  0  0  0
  -19.8518    7.0825  -12.2534 C   0  0  0  0  0  0  0  0  0  0  0  0
  -19.9459    6.1390  -12.9170 N   0  0  0  0  0  0  0  0  0  0  0  0
 26 27  1  0  0  0
 27 23  1  0  0  0
 23 24  2  0  0  0
 23 25  2  0  0  0
 23 10  1  0  0  0
 10 11  2  0  0  0
 11 12  1  0  0  0
 12  8  1  0  0  0
  8  1  1  0  0  0
  1  2  2  0  0  0
  2  3  1  0  0  0
  3  4  2  0  0  0
  4  5  1  0  0  0
  4  6  1  0  0  0
  6  7  2  0  0  0
  6 28  1  0  0  0
 28 39  1  0  0  0
 39 40  1  0  0  0
 40 41  2  0  0  0
 41 42  1  0  0  0
 42 43  2  0  0  0
 43 44  1  0  0  0
 44 45  2  0  0  0
 45 46  1  0  0  0
 46 47  3  0  0  0
 28 29  1  0  0  0
 29 30  2  0  0  0
 30 31  1  0  0  0
 31 36  1  0  0  0
 36 37  1  0  0  0
 31 32  2  0  0  0
 32 33  1  0  0  0
 33 34  2  0  0  0
 34 35  1  0  0  0
 12 13  2  0  0  0
 13 14  1  0  0  0
 14 15  2  0  0  0
 15 16  1  0  0  0
 16 17  1  0  0  0
 17 18  1  0  0  0
 18 19  1  0  0  0
 19 20  1  0  0  0
 19 21  1  0  0  0
 21 22  1  0  0  0
 15 10  1  0  0  0
 22 16  1  0  0  0
  7  1  1  0  0  0
 45 40  1  0  0  0
 34 29  1  0  0  0
  8  9  1  0  0  0
 37 38  1  0  0  0
M  END
> <minimizedAffinity>
-8.01905

> <CNNscore>
0.1029598713

> <CNNaffinity>
7.0255823135

> <CNN_VS>
0.7233530283

> <CNNaffinity_variance>
0.1200169176

$$$$
[H]OC([H])([H])c1c([H])c([H])c(C([H])([H])[H])c(N(c2nc(N([H])c3c([H])c([H])c(N4C([H])([H])C([H])([H])N(C([H])([H])[H])C([H])([H])C4([H])[H])c(S(=O)(=O)C([H])([H])C([H])([H])[H])c3[H])nc([H])c2F)C([H])([H])c2c([H])c([H])c([H])c([H])c2C#N)c1[H]


 47 51  0  0  0  0  0  0  0  0999 V2000
  -19.6865   15.9250  -18.9262 C   0  0  0  0  0  0  0  0  0  0  0  0
  -18.8052   16.8229  -18.4568 N   0  0  0  0  0  0  0  0  0  0  0  0
  -17.6190   17.0236  -19.0164 C   0  0  0  0  0  0  0  0  0  0  0  0
  -17.2733   16.2659  -20.1445 C   0  0  0  0  0  0  0  0  0  0  0  0
  -16.0698   16.4671  -20.6657 F   0  0  0  0  0  0  0  0  0  0  0  0
  -18.1383   15.3457  -20.6534 C   0  0  0  0  0  0  0  0  0  0  0  0
  -19.3105   15.2037  -20.0329 N   0  0  0  0  0  0  0  0  0  0  0  0
  -20.9517   15.6775  -18.3638 N   0  0  0  0  0  0  0  0  0  0  0  0
  -21.7599   16.2364  -18.7873 H   0  0  0  0  0  0  0  0  0  0  0  0
  -22.7037   14.4463  -15.3578 C   0  0  0  0  0  0  0  0  0  0  0  0
  -22.2763   15.1828  -16.4642 C   0  0  0  0  0  0  0  0  0  0  0  0
  -21.2517   14.7995  -17.3218 C   0  0  0  0  0  0  0  0  0  0  0  0
  -20.6348   13.6183  -17.0436 C   0  0  0  0  0  0  0  0  0  0  0  0
  -21.0274   12.8680  -15.9664 C   0  0  0  0  0  0  0  0  0  0  0  0
  -22.0756   13.2746  -15.1016 C   0  0  0  0  0  0  0  0  0  0  0  0
  -22.3846   12.4200  -14.0424 N   0  0  0  0  0  0  0  0  0  0  0  0
  -22.0416   12.5291  -12.6611 C   0  0  0  0  0  0  0  0  0  0  0  0
  -21.8730   11.1336  -12.0722 C   0  0  0  0  0  0  0  0  0  0  0  0
  -21.3575   10.2440  -13.0333 N   0  0  0  0  0  0  0  0  0  0  0  0
  -19.9815   10.4774  -13.3100 C   0  0  0  0  0  0  0  0  0  0  0  0
  -22.2204    9.9934  -14.1297 C   0  0  0  0  0  0  0  0  0  0  0  0
  -23.1485   11.1999  -14.3967 C   0  0  0  0  0  0  0  0  0  0  0  0
  -23.9903   15.0262  -14.3614 S   0  0  0  0  0  0  0  0  0  0  0  0
  -24.9118   13.9280  -13.8703 O   0  0  0  0  0  0  0  0  0  0  0  0
  -23.3413   15.5284  -13.0506 O   0  0  0  0  0  0  0  0  0  0  0  0
  -25.1134   17.3418  -13.7819 C   0  0  0  0  0  0  0  0  0  0  0  0
  -24.8426   16.4286  -14.9897 C   0  0  0  0  0  0  0  0  0  0  0  0
  -17.8467   14.5443  -21.8526 N   0  0  0  0  0  0  0  0  0  0  0  0
  -17.2315   15.2112  -22.8982 C   0  0  0  0  0  0  0  0  0  0  0  0
  -15.9449   14.8261  -23.3079 C   0  0  0  0  0  0  0  0  0  0  0  0
  -15.2787   15.4400  -24.3351 C   0  0  0  0  0  0  0  0  0  0  0  0
  -15.8575   16.4795  -25.0195 C   0  0  0  0  0  0  0  0  0  0  0  0
  -17.1088   16.8919  -24.6597 C   0  0  0  0  0  0  0  0  0  0  0  0
  -17.7826   16.2730  -23.6227 C   0  0  0  0  0  0  0  0  0  0  0  0
  -19.1236   16.7750  -23.3059 C   0  0  0  0  0  0  0  0  0  0  0  0
  -13.9272   14.9915  -24.7212 C   0  0  0  0  0  0  0  0  0  0  0  0
  -13.4398   15.7399  -25.7972 O   0  0  0  0  0  0  0  0  0  0  0  0
  -12.5701   16.1194  -25.5240 H   0  0  0  0  0  0  0  0  0  0  0  0
  -18.2166   13.1984  -21.7297 C   0  0  0  0  0  0  0  0  0  0  0  0
  -17.9012   12.3106  -20.6611 C   0  0  0  0  0  0  0  0  0  0  0  0
  -18.5143   12.1641  -19.4771 C   0  0  0  0  0  0  0  0  0  0  0  0
  -18.0513   11.2698  -18.5237 C   0  0  0  0  0  0  0  0  0  0  0  0
  -16.9567   10.4893  -18.7188 C   0  0  0  0  0  0  0  0  0  0  0  0
  -16.3110   10.6326  -19.9441 C   0  0  0  0  0  0  0  0  0  0  0  0
  -16.7497   11.5004  -20.8861 C   0  0  0  0  0  0  0  0  0  0  0  0
  -16.0266   11.5968  -22.1412 C   0  0  0  0  0  0  0  0  0  0  0  0
  -15.4367   11.6778  -23.1335 N   0  0  0  0  0  0  0  0  0  0  0  0
 26 27  1  0  0  0
 27 23  1  0  0  0
 23 24  2  0  0  0
 23 25  2  0  0  0
 23 10  1  0  0  0
 10 11  2  0  0  0
 11 12  1  0  0  0
 12  8  1  0  0  0
  8  1  1  0  0  0
  1  2  2  0  0  0
  2  3  1  0  0  0
  3  4  2  0  0  0
  4  5  1  0  0  0
  4  6  1  0  0  0
  6  7  2  0  0  0
  6 28  1  0  0  0
 28 39  1  0  0  0
 39 40  1  0  0  0
 40 41  2  0  0  0
 41 42  1  0  0  0
 42 43  2  0  0  0
 43 44  1  0  0  0
 44 45  2  0  0  0
 45 46  1  0  0  0
 46 47  3  0  0  0
 28 29  1  0  0  0
 29 30  2  0  0  0
 30 31  1  0  0  0
 31 36  1  0  0  0
 36 37  1  0  0  0
 31 32  2  0  0  0
 32 33  1  0  0  0
 33 34  2  0  0  0
 34 35  1  0  0  0
 12 13  2  0  0  0
 13 14  1  0  0  0
 14 15  2  0  0  0
 15 16  1  0  0  0
 16 17  1  0  0  0
 17 18  1  0  0  0
 18 19  1  0  0  0
 19 20  1  0  0  0
 19 21  1  0  0  0
 21 22  1  0  0  0
 15 10  1  0  0  0
 22 16  1  0  0  0
  7  1  1  0  0  0
 45 40  1  0  0  0
 34 29  1  0  0  0
  8  9  1  0  0  0
 37 38  1  0  0  0
M  END
> <minimizedAffinity>
-8.19844

> <CNNscore>
0.1020988598

> <CNNaffinity>
7.2721376419

> <CNN_VS>
0.7424769402

> <CNNaffinity_variance>
0.2491742074

$$$$
[H]c1c([H])c(C([H])([H])[H])c(N([H])c2nc3c([H])c([H])c(N([H])C([H])([H])[H])c([H])c3n3c([H])nc([H])c23)c([H])c1F


 26 29  0  0  0  0  0  0  0  0999 V2000
  -19.8706   13.5695  -18.8652 C   0  0  0  0  0  0  0  0  0  0  0  0
  -20.0076   14.5391  -19.8315 C   0  0  0  0  0  0  0  0  0  0  0  0
  -19.2685   14.5656  -20.9831 C   0  0  0  0  0  0  0  0  0  0  0  0
  -18.3183   13.5633  -21.2095 C   0  0  0  0  0  0  0  0  0  0  0  0
  -17.5737   13.5441  -22.3143 N   0  0  0  0  0  0  0  0  0  0  0  0
  -16.6474   12.6270  -22.6076 C   0  0  0  0  0  0  0  0  0  0  0  0
  -16.5049   11.6302  -21.6167 C   0  0  0  0  0  0  0  0  0  0  0  0
  -15.6505   10.5575  -21.6129 C   0  0  0  0  0  0  0  0  0  0  0  0
  -15.8867    9.8981  -20.4566 N   0  0  0  0  0  0  0  0  0  0  0  0
  -16.8613   10.5656  -19.7883 C   0  0  0  0  0  0  0  0  0  0  0  0
  -17.2460   11.6389  -20.5046 N   0  0  0  0  0  0  0  0  0  0  0  0
  -18.1664   12.5809  -20.2505 C   0  0  0  0  0  0  0  0  0  0  0  0
  -18.9301   12.5930  -19.1080 C   0  0  0  0  0  0  0  0  0  0  0  0
  -20.6590   12.4139  -16.7774 C   0  0  0  0  0  0  0  0  0  0  0  0
  -20.6530   13.5668  -17.6766 N   0  0  0  0  0  0  0  0  0  0  0  0
  -21.2252   14.4214  -17.4689 H   0  0  0  0  0  0  0  0  0  0  0  0
  -15.8493   12.5855  -23.7675 N   0  0  0  0  0  0  0  0  0  0  0  0
  -15.2422   11.7090  -23.8506 H   0  0  0  0  0  0  0  0  0  0  0  0
  -15.7932   13.5565  -24.7689 C   0  0  0  0  0  0  0  0  0  0  0  0
  -14.9080   14.5750  -24.8829 C   0  0  0  0  0  0  0  0  0  0  0  0
  -14.9091   15.5144  -25.9173 C   0  0  0  0  0  0  0  0  0  0  0  0
  -13.9948   16.5126  -25.9756 F   0  0  0  0  0  0  0  0  0  0  0  0
  -15.8665   15.4056  -26.8858 C   0  0  0  0  0  0  0  0  0  0  0  0
  -16.7884   14.3869  -26.8133 C   0  0  0  0  0  0  0  0  0  0  0  0
  -16.7679   13.4766  -25.7889 C   0  0  0  0  0  0  0  0  0  0  0  0
  -17.7950   12.3981  -25.7691 C   0  0  0  0  0  0  0  0  0  0  0  0
 14 15  1  0  0  0
 15  1  1  0  0  0
  1  2  2  0  0  0
  2  3  1  0  0  0
  3  4  2  0  0  0
  4  5  1  0  0  0
  5  6  2  0  0  0
  6 17  1  0  0  0
 17 19  1  0  0  0
 19 20  2  0  0  0
 20 21  1  0  0  0
 21 22  1  0  0  0
 21 23  2  0  0  0
 23 24  1  0  0  0
 24 25  2  0  0  0
 25 26  1  0  0  0
  6  7  1  0  0  0
  7  8  2  0  0  0
  8  9  1  0  0  0
  9 10  2  0  0  0
 10 11  1  0  0  0
 11 12  1  0  0  0
 12 13  2  0  0  0
 13  1  1  0  0  0
 12  4  1  0  0  0
 25 19  1  0  0  0
 11  7  1  0  0  0
 15 16  1  0  0  0
 17 18  1  0  0  0
M  END
> <minimizedAffinity>
-9.25287

> <CNNscore>
0.9574837089

> <CNNaffinity>
7.4430847168

> <CNN_VS>
7.1266322136

> <CNNaffinity_variance>
0.0664214045

$$$$
[H]c1c([H])c(C([H])([H])[H])c(N([H])c2nc3c([H])c([H])c(N([H])C([H])([H])[H])c([H])c3n3c([H])nc([H])c23)c([H])c1F


 26 29  0  0  0  0  0  0  0  0999 V2000
  -19.6459   11.9466  -17.3096 C   0  0  0  0  0  0  0  0  0  0  0  0
  -20.2841   12.9969  -17.9279 C   0  0  0  0  0  0  0  0  0  0  0  0
  -19.9535   13.4507  -19.1760 C   0  0  0  0  0  0  0  0  0  0  0  0
  -18.9149   12.8279  -19.8775 C   0  0  0  0  0  0  0  0  0  0  0  0
  -18.5545   13.2318  -21.0951 N   0  0  0  0  0  0  0  0  0  0  0  0
  -17.5776   12.6945  -21.8313 C   0  0  0  0  0  0  0  0  0  0  0  0
  -16.9207   11.6157  -21.1985 C   0  0  0  0  0  0  0  0  0  0  0  0
  -15.8854   10.8562  -21.6800 C   0  0  0  0  0  0  0  0  0  0  0  0
  -15.6057    9.9533  -20.7134 N   0  0  0  0  0  0  0  0  0  0  0  0
  -16.4575   10.1725  -19.6799 C   0  0  0  0  0  0  0  0  0  0  0  0
  -17.2732   11.2017  -19.9776 N   0  0  0  0  0  0  0  0  0  0  0  0
  -18.2621   11.7713  -19.2730 C   0  0  0  0  0  0  0  0  0  0  0  0
  -18.6271   11.3483  -18.0174 C   0  0  0  0  0  0  0  0  0  0  0  0
  -21.0075   10.4414  -15.8276 C   0  0  0  0  0  0  0  0  0  0  0  0
  -20.0110   11.4957  -16.0103 N   0  0  0  0  0  0  0  0  0  0  0  0
  -19.5397   11.9468  -15.1884 H   0  0  0  0  0  0  0  0  0  0  0  0
  -17.1794   13.1032  -23.1191 N   0  0  0  0  0  0  0  0  0  0  0  0
  -17.0418   12.2993  -23.8109 H   0  0  0  0  0  0  0  0  0  0  0  0
  -16.9605   14.4160  -23.5403 C   0  0  0  0  0  0  0  0  0  0  0  0
  -17.8736   15.4096  -23.6548 C   0  0  0  0  0  0  0  0  0  0  0  0
  -17.5835   16.7074  -24.0836 C   0  0  0  0  0  0  0  0  0  0  0  0
  -18.5433   17.6592  -24.1774 F   0  0  0  0  0  0  0  0  0  0  0  0
  -16.2910   17.0038  -24.4124 C   0  0  0  0  0  0  0  0  0  0  0  0
  -15.3272   16.0271  -24.3123 C   0  0  0  0  0  0  0  0  0  0  0  0
  -15.6352   14.7604  -23.8891 C   0  0  0  0  0  0  0  0  0  0  0  0
  -14.5448   13.7494  -23.8036 C   0  0  0  0  0  0  0  0  0  0  0  0
 14 15  1  0  0  0
 15  1  1  0  0  0
  1  2  2  0  0  0
  2  3  1  0  0  0
  3  4  2  0  0  0
  4  5  1  0  0  0
  5  6  2  0  0  0
  6 17  1  0  0  0
 17 19  1  0  0  0
 19 20  2  0  0  0
 20 21  1  0  0  0
 21 22  1  0  0  0
 21 23  2  0  0  0
 23 24  1  0  0  0
 24 25  2  0  0  0
 25 26  1  0  0  0
  6  7  1  0  0  0
  7  8  2  0  0  0
  8  9  1  0  0  0
  9 10  2  0  0  0
 10 11  1  0  0  0
 11 12  1  0  0  0
 12 13  2  0  0  0
 13  1  1  0  0  0
 12  4  1  0  0  0
 25 19  1  0  0  0
 11  7  1  0  0  0
 15 16  1  0  0  0
 17 18  1  0  0  0
M  END
> <minimizedAffinity>
-8.24224

> <CNNscore>
0.9310022593

> <CNNaffinity>
7.1764540672

> <CNN_VS>
6.6812949181

> <CNNaffinity_variance>
0.0728764459

$$$$
[H]c1c([H])c(C([H])([H])[H])c(N([H])c2nc3c([H])c([H])c(N([H])C([H])([H])[H])c([H])c3n3c([H])nc([H])c23)c([H])c1F


 26 29  0  0  0  0  0  0  0  0999 V2000
  -18.8506    9.2378  -16.5729 C   0  0  0  0  0  0  0  0  0  0  0  0
  -19.7732   10.2125  -16.2705 C   0  0  0  0  0  0  0  0  0  0  0  0
  -19.9532   11.3403  -17.0246 C   0  0  0  0  0  0  0  0  0  0  0  0
  -19.1682   11.5318  -18.1673 C   0  0  0  0  0  0  0  0  0  0  0  0
  -19.3046   12.6124  -18.9348 N   0  0  0  0  0  0  0  0  0  0  0  0
  -18.5982   12.8719  -20.0388 C   0  0  0  0  0  0  0  0  0  0  0  0
  -17.6501   11.8724  -20.3515 C   0  0  0  0  0  0  0  0  0  0  0  0
  -16.7763   11.8364  -21.4078 C   0  0  0  0  0  0  0  0  0  0  0  0
  -16.0801   10.6851  -21.2753 N   0  0  0  0  0  0  0  0  0  0  0  0
  -16.5317   10.0510  -20.1636 C   0  0  0  0  0  0  0  0  0  0  0  0
  -17.5042   10.7842  -19.5893 N   0  0  0  0  0  0  0  0  0  0  0  0
  -18.2363   10.5638  -18.4874 C   0  0  0  0  0  0  0  0  0  0  0  0
  -18.0889    9.4461  -17.7013 C   0  0  0  0  0  0  0  0  0  0  0  0
  -19.7971    7.5243  -14.9968 C   0  0  0  0  0  0  0  0  0  0  0  0
  -18.6849    8.0745  -15.7703 N   0  0  0  0  0  0  0  0  0  0  0  0
  -17.7364    7.6261  -15.7533 H   0  0  0  0  0  0  0  0  0  0  0  0
  -18.7246   14.0054  -20.8655 N   0  0  0  0  0  0  0  0  0  0  0  0
  -19.1278   13.7984  -21.8342 H   0  0  0  0  0  0  0  0  0  0  0  0
  -18.3791   15.3161  -20.5318 C   0  0  0  0  0  0  0  0  0  0  0  0
  -17.1386   15.8577  -20.4893 C   0  0  0  0  0  0  0  0  0  0  0  0
  -16.8639   17.1842  -20.1466 C   0  0  0  0  0  0  0  0  0  0  0  0
  -15.5983   17.6675  -20.1222 F   0  0  0  0  0  0  0  0  0  0  0  0
  -17.9140   17.9990  -19.8307 C   0  0  0  0  0  0  0  0  0  0  0  0
  -19.1936   17.4942  -19.8597 C   0  0  0  0  0  0  0  0  0  0  0  0
  -19.4391   16.1892  -20.1990 C   0  0  0  0  0  0  0  0  0  0  0  0
  -20.8477   15.7055  -20.2103 C   0  0  0  0  0  0  0  0  0  0  0  0
 14 15  1  0  0  0
 15  1  1  0  0  0
  1  2  2  0  0  0
  2  3  1  0  0  0
  3  4  2  0  0  0
  4  5  1  0  0  0
  5  6  2  0  0  0
  6 17  1  0  0  0
 17 19  1  0  0  0
 19 20  2  0  0  0
 20 21  1  0  0  0
 21 22  1  0  0  0
 21 23  2  0  0  0
 23 24  1  0  0  0
 24 25  2  0  0  0
 25 26  1  0  0  0
  6  7  1  0  0  0
  7  8  2  0  0  0
  8  9  1  0  0  0
  9 10  2  0  0  0
 10 11  1  0  0  0
 11 12  1  0  0  0
 12 13  2  0  0  0
 13  1  1  0  0  0
 12  4  1  0  0  0
 25 19  1  0  0  0
 11  7  1  0  0  0
 15 16  1  0  0  0
 17 18  1  0  0  0
M  END
> <minimizedAffinity>
-7.89685

> <CNNscore>
0.9190089703

> <CNNaffinity>
7.0631933212

> <CNN_VS>
6.4911379814

> <CNNaffinity_variance>
0.1218289584

$$$$
[H]c1c([H])c(C([H])([H])[H])c(N([H])c2nc3c([H])c([H])c(N([H])C([H])([H])[H])c([H])c3n3c([H])nc([H])c23)c([H])c1F


 26 29  0  0  0  0  0  0  0  0999 V2000
  -18.3393    9.7613  -17.6310 C   0  0  0  0  0  0  0  0  0  0  0  0
  -19.2975   10.7242  -17.4131 C   0  0  0  0  0  0  0  0  0  0  0  0
  -19.4688   11.8143  -18.2228 C   0  0  0  0  0  0  0  0  0  0  0  0
  -18.6365   11.9771  -19.3361 C   0  0  0  0  0  0  0  0  0  0  0  0
  -18.7625   13.0206  -20.1551 N   0  0  0  0  0  0  0  0  0  0  0  0
  -18.0120   13.2511  -21.2361 C   0  0  0  0  0  0  0  0  0  0  0  0
  -17.0273   12.2637  -21.4620 C   0  0  0  0  0  0  0  0  0  0  0  0
  -16.1049   12.2053  -22.4751 C   0  0  0  0  0  0  0  0  0  0  0  0
  -15.3888   11.0786  -22.2616 N   0  0  0  0  0  0  0  0  0  0  0  0
  -15.8764   10.4808  -21.1449 C   0  0  0  0  0  0  0  0  0  0  0  0
  -16.8914   11.2127  -20.6476 N   0  0  0  0  0  0  0  0  0  0  0  0
  -17.6683   11.0205  -19.5714 C   0  0  0  0  0  0  0  0  0  0  0  0
  -17.5313    9.9411  -18.7318 C   0  0  0  0  0  0  0  0  0  0  0  0
  -19.0510    8.4476  -15.6102 C   0  0  0  0  0  0  0  0  0  0  0  0
  -18.1837    8.6376  -16.7720 N   0  0  0  0  0  0  0  0  0  0  0  0
  -17.4247    7.9506  -17.0021 H   0  0  0  0  0  0  0  0  0  0  0  0
  -18.1265   14.3451  -22.1160 N   0  0  0  0  0  0  0  0  0  0  0  0
  -18.8189   15.0945  -21.7956 H   0  0  0  0  0  0  0  0  0  0  0  0
  -17.4377   14.5163  -23.3180 C   0  0  0  0  0  0  0  0  0  0  0  0
  -17.6559   13.8790  -24.4929 C   0  0  0  0  0  0  0  0  0  0  0  0
  -16.9256   14.1016  -25.6632 C   0  0  0  0  0  0  0  0  0  0  0  0
  -17.1928   13.4303  -26.8095 F   0  0  0  0  0  0  0  0  0  0  0  0
  -15.9192   15.0249  -25.6293 C   0  0  0  0  0  0  0  0  0  0  0  0
  -15.6595   15.6985  -24.4581 C   0  0  0  0  0  0  0  0  0  0  0  0
  -16.3892   15.4636  -23.3220 C   0  0  0  0  0  0  0  0  0  0  0  0
  -16.0562   16.2266  -22.0869 C   0  0  0  0  0  0  0  0  0  0  0  0
 14 15  1  0  0  0
 15  1  1  0  0  0
  1  2  2  0  0  0
  2  3  1  0  0  0
  3  4  2  0  0  0
  4  5  1  0  0  0
  5  6  2  0  0  0
  6 17  1  0  0  0
 17 19  1  0  0  0
 19 20  2  0  0  0
 20 21  1  0  0  0
 21 22  1  0  0  0
 21 23  2  0  0  0
 23 24  1  0  0  0
 24 25  2  0  0  0
 25 26  1  0  0  0
  6  7  1  0  0  0
  7  8  2  0  0  0
  8  9  1  0  0  0
  9 10  2  0  0  0
 10 11  1  0  0  0
 11 12  1  0  0  0
 12 13  2  0  0  0
 13  1  1  0  0  0
 12  4  1  0  0  0
 25 19  1  0  0  0
 11  7  1  0  0  0
 15 16  1  0  0  0
 17 18  1  0  0  0
M  END
> <minimizedAffinity>
-8.44017

> <CNNscore>
0.9128174186

> <CNNaffinity>
7.3178415298

> <CNN_VS>
6.6798534393

> <CNNaffinity_variance>
0.0868381485

$$$$
[H]c1c([H])c(C([H])([H])[H])c(N([H])c2nc3c([H])c([H])c(N([H])C([H])([H])[H])c([H])c3n3c([H])nc([H])c23)c([H])c1F


 26 29  0  0  0  0  0  0  0  0999 V2000
  -19.8715   13.5362  -18.8988 C   0  0  0  0  0  0  0  0  0  0  0  0
  -20.0382   14.4867  -19.8793 C   0  0  0  0  0  0  0  0  0  0  0  0
  -19.3097   14.5109  -21.0377 C   0  0  0  0  0  0  0  0  0  0  0  0
  -18.3395   13.5263  -21.2564 C   0  0  0  0  0  0  0  0  0  0  0  0
  -17.6040   13.5056  -22.3673 N   0  0  0  0  0  0  0  0  0  0  0  0
  -16.6601   12.6046  -22.6541 C   0  0  0  0  0  0  0  0  0  0  0  0
  -16.4871   11.6273  -21.6487 C   0  0  0  0  0  0  0  0  0  0  0  0
  -15.6091   10.5740  -21.6353 C   0  0  0  0  0  0  0  0  0  0  0  0
  -15.8207    9.9283  -20.4666 N   0  0  0  0  0  0  0  0  0  0  0  0
  -16.8041   10.5849  -19.8004 C   0  0  0  0  0  0  0  0  0  0  0  0
  -17.2187   11.6378  -20.5303 N   0  0  0  0  0  0  0  0  0  0  0  0
  -18.1575   12.5631  -20.2832 C   0  0  0  0  0  0  0  0  0  0  0  0
  -18.9116   12.5769  -19.1343 C   0  0  0  0  0  0  0  0  0  0  0  0
  -20.6051   12.4036  -16.7788 C   0  0  0  0  0  0  0  0  0  0  0  0
  -20.6435   13.5355  -17.7035 N   0  0  0  0  0  0  0  0  0  0  0  0
  -21.2409   14.3760  -17.5096 H   0  0  0  0  0  0  0  0  0  0  0  0
  -15.8712   12.5620  -23.8203 N   0  0  0  0  0  0  0  0  0  0  0  0
  -15.2369   11.7037  -23.8890 H   0  0  0  0  0  0  0  0  0  0  0  0
  -15.8552   13.5108  -24.8440 C   0  0  0  0  0  0  0  0  0  0  0  0
  -16.6049   13.5217  -25.9718 C   0  0  0  0  0  0  0  0  0  0  0  0
  -16.5381   14.5084  -26.9588 C   0  0  0  0  0  0  0  0  0  0  0  0
  -17.3163   14.4629  -28.0671 F   0  0  0  0  0  0  0  0  0  0  0  0
  -15.6577   15.5381  -26.7823 C   0  0  0  0  0  0  0  0  0  0  0  0
  -14.8740   15.5709  -25.6520 C   0  0  0  0  0  0  0  0  0  0  0  0
  -14.9568   14.5916  -24.6968 C   0  0  0  0  0  0  0  0  0  0  0  0
  -14.0796   14.6862  -23.4968 C   0  0  0  0  0  0  0  0  0  0  0  0
 14 15  1  0  0  0
 15  1  1  0  0  0
  1  2  2  0  0  0
  2  3  1  0  0  0
  3  4  2  0  0  0
  4  5  1  0  0  0
  5  6  2  0  0  0
  6 17  1  0  0  0
 17 19  1  0  0  0
 19 20  2  0  0  0
 20 21  1  0  0  0
 21 22  1  0  0  0
 21 23  2  0  0  0
 23 24  1  0  0  0
 24 25  2  0  0  0
 25 26  1  0  0  0
  6  7  1  0  0  0
  7  8  2  0  0  0
  8  9  1  0  0  0
  9 10  2  0  0  0
 10 11  1  0  0  0
 11 12  1  0  0  0
 12 13  2  0  0  0
 13  1  1  0  0  0
 12  4  1  0  0  0
 25 19  1  0  0  0
 11  7  1  0  0  0
 15 16  1  0  0  0
 17 18  1  0  0  0
M  END
> <minimizedAffinity>
-8.57620

> <CNNscore>
0.8845155835

> <CNNaffinity>
7.2724213600

> <CNN_VS>
6.4325699806

> <CNNaffinity_variance>
0.0826678947

$$$$
[H]c1c([H])c(C([H])([H])[H])c(N([H])c2nc3c([H])c([H])c(N([H])C([H])([H])[H])c([H])c3n3c([H])nc([H])c23)c([H])c1F


 26 29  0  0  0  0  0  0  0  0999 V2000
  -19.4623   10.4108  -16.8031 C   0  0  0  0  0  0  0  0  0  0  0  0
  -20.1509   11.5968  -16.9119 C   0  0  0  0  0  0  0  0  0  0  0  0
  -19.9249   12.5116  -17.9045 C   0  0  0  0  0  0  0  0  0  0  0  0
  -18.9468   12.2463  -18.8697 C   0  0  0  0  0  0  0  0  0  0  0  0
  -18.6887   13.1042  -19.8560 N   0  0  0  0  0  0  0  0  0  0  0  0
  -17.7750   12.9290  -20.8149 C   0  0  0  0  0  0  0  0  0  0  0  0
  -17.0665   11.7117  -20.7054 C   0  0  0  0  0  0  0  0  0  0  0  0
  -16.0733   11.2348  -21.5219 C   0  0  0  0  0  0  0  0  0  0  0  0
  -15.7135   10.0368  -21.0091 N   0  0  0  0  0  0  0  0  0  0  0  0
  -16.4776    9.8076  -19.9110 C   0  0  0  0  0  0  0  0  0  0  0  0
  -17.3165   10.8434  -19.7206 N   0  0  0  0  0  0  0  0  0  0  0  0
  -18.2448   11.0603  -18.7771 C   0  0  0  0  0  0  0  0  0  0  0  0
  -18.5045   10.1698  -17.7630 C   0  0  0  0  0  0  0  0  0  0  0  0
  -19.6126    9.8664  -14.3543 C   0  0  0  0  0  0  0  0  0  0  0  0
  -19.7183    9.4776  -15.7598 N   0  0  0  0  0  0  0  0  0  0  0  0
  -19.9854    8.5010  -16.0352 H   0  0  0  0  0  0  0  0  0  0  0  0
  -17.4849   13.8200  -21.8666 N   0  0  0  0  0  0  0  0  0  0  0  0
  -16.6595   13.5223  -22.4781 H   0  0  0  0  0  0  0  0  0  0  0  0
  -18.1610   15.0063  -22.1569 C   0  0  0  0  0  0  0  0  0  0  0  0
  -18.6889   15.8920  -21.2788 C   0  0  0  0  0  0  0  0  0  0  0  0
  -19.3547   17.0660  -21.6404 C   0  0  0  0  0  0  0  0  0  0  0  0
  -19.8618   17.9134  -20.7127 F   0  0  0  0  0  0  0  0  0  0  0  0
  -19.4874   17.3483  -22.9705 C   0  0  0  0  0  0  0  0  0  0  0  0
  -18.9674   16.4783  -23.9010 C   0  0  0  0  0  0  0  0  0  0  0  0
  -18.3179   15.3323  -23.5228 C   0  0  0  0  0  0  0  0  0  0  0  0
  -17.7789   14.4328  -24.5805 C   0  0  0  0  0  0  0  0  0  0  0  0
 14 15  1  0  0  0
 15  1  1  0  0  0
  1  2  2  0  0  0
  2  3  1  0  0  0
  3  4  2  0  0  0
  4  5  1  0  0  0
  5  6  2  0  0  0
  6 17  1  0  0  0
 17 19  1  0  0  0
 19 20  2  0  0  0
 20 21  1  0  0  0
 21 22  1  0  0  0
 21 23  2  0  0  0
 23 24  1  0  0  0
 24 25  2  0  0  0
 25 26  1  0  0  0
  6  7  1  0  0  0
  7  8  2  0  0  0
  8  9  1  0  0  0
  9 10  2  0  0  0
 10 11  1  0  0  0
 11 12  1  0  0  0
 12 13  2  0  0  0
 13  1  1  0  0  0
 12  4  1  0  0  0
 25 19  1  0  0  0
 11  7  1  0  0  0
 15 16  1  0  0  0
 17 18  1  0  0  0
M  END
> <minimizedAffinity>
-7.72467

> <CNNscore>
0.7942513227

> <CNNaffinity>
6.8893632889

> <CNN_VS>
5.4718856812

> <CNNaffinity_variance>
0.1458055377

$$$$
[H]c1c([H])c(C([H])([H])[H])c(N([H])c2nc3c([H])c([H])c(N([H])C([H])([H])[H])c([H])c3n3c([H])nc([H])c23)c([H])c1F


 26 29  0  0  0  0  0  0  0  0999 V2000
  -17.3767   13.7959  -24.2460 C   0  0  0  0  0  0  0  0  0  0  0  0
  -18.1308   14.7659  -23.6271 C   0  0  0  0  0  0  0  0  0  0  0  0
  -18.4215   14.7560  -22.2897 C   0  0  0  0  0  0  0  0  0  0  0  0
  -17.9360   13.7138  -21.4918 C   0  0  0  0  0  0  0  0  0  0  0  0
  -18.1908   13.6582  -20.1851 N   0  0  0  0  0  0  0  0  0  0  0  0
  -17.7672   12.7018  -19.3539 C   0  0  0  0  0  0  0  0  0  0  0  0
  -16.9925   11.7045  -19.9871 C   0  0  0  0  0  0  0  0  0  0  0  0
  -16.4138   10.5972  -19.4219 C   0  0  0  0  0  0  0  0  0  0  0  0
  -15.7811    9.9536  -20.4285 N   0  0  0  0  0  0  0  0  0  0  0  0
  -15.9802   10.6645  -21.5673 C   0  0  0  0  0  0  0  0  0  0  0  0
  -16.7303   11.7495  -21.2969 N   0  0  0  0  0  0  0  0  0  0  0  0
  -17.1767   12.7303  -22.0953 C   0  0  0  0  0  0  0  0  0  0  0  0
  -16.9090   12.7798  -23.4424 C   0  0  0  0  0  0  0  0  0  0  0  0
  -16.2976   14.9139  -26.2212 C   0  0  0  0  0  0  0  0  0  0  0  0
  -17.0900   13.8316  -25.6393 N   0  0  0  0  0  0  0  0  0  0  0  0
  -17.4675   13.0538  -26.2339 H   0  0  0  0  0  0  0  0  0  0  0  0
  -18.0229   12.6220  -17.9710 N   0  0  0  0  0  0  0  0  0  0  0  0
  -17.3341   13.1721  -17.3655 H   0  0  0  0  0  0  0  0  0  0  0  0
  -19.0581   11.9122  -17.3601 C   0  0  0  0  0  0  0  0  0  0  0  0
  -19.1266   10.5778  -17.1396 C   0  0  0  0  0  0  0  0  0  0  0  0
  -20.1978    9.9307  -16.5181 C   0  0  0  0  0  0  0  0  0  0  0  0
  -20.2070    8.5895  -16.3261 F   0  0  0  0  0  0  0  0  0  0  0  0
  -21.2544   10.6893  -16.1004 C   0  0  0  0  0  0  0  0  0  0  0  0
  -21.2310   12.0501  -16.3023 C   0  0  0  0  0  0  0  0  0  0  0  0
  -20.1691   12.6632  -16.9144 C   0  0  0  0  0  0  0  0  0  0  0  0
  -20.2068   14.1402  -17.1030 C   0  0  0  0  0  0  0  0  0  0  0  0
 14 15  1  0  0  0
 15  1  1  0  0  0
  1  2  2  0  0  0
  2  3  1  0  0  0
  3  4  2  0  0  0
  4  5  1  0  0  0
  5  6  2  0  0  0
  6 17  1  0  0  0
 17 19  1  0  0  0
 19 20  2  0  0  0
 20 21  1  0  0  0
 21 22  1  0  0  0
 21 23  2  0  0  0
 23 24  1  0  0  0
 24 25  2  0  0  0
 25 26  1  0  0  0
  6  7  1  0  0  0
  7  8  2  0  0  0
  8  9  1  0  0  0
  9 10  2  0  0  0
 10 11  1  0  0  0
 11 12  1  0  0  0
 12 13  2  0  0  0
 13  1  1  0  0  0
 12  4  1  0  0  0
 25 19  1  0  0  0
 11  7  1  0  0  0
 15 16  1  0  0  0
 17 18  1  0  0  0
M  END
> <minimizedAffinity>
-8.03532

> <CNNscore>
0.7578437924

> <CNNaffinity>
6.9765977859

> <CNN_VS>
5.2871713638

> <CNNaffinity_variance>
0.2003179491

$$$$
[H]c1c([H])c(C([H])([H])[H])c(N([H])c2nc3c([H])c([H])c(N([H])C([H])([H])[H])c([H])c3n3c([H])nc([H])c23)c([H])c1F


 26 29  0  0  0  0  0  0  0  0999 V2000
  -20.4904   11.4145  -16.5308 C   0  0  0  0  0  0  0  0  0  0  0  0
  -20.8595   12.7060  -16.8282 C   0  0  0  0  0  0  0  0  0  0  0  0
  -20.2646   13.4535  -17.8083 C   0  0  0  0  0  0  0  0  0  0  0  0
  -19.2245   12.8939  -18.5592 C   0  0  0  0  0  0  0  0  0  0  0  0
  -18.6129   13.5796  -19.5241 N   0  0  0  0  0  0  0  0  0  0  0  0
  -17.6149   13.1221  -20.2855 C   0  0  0  0  0  0  0  0  0  0  0  0
  -17.2341   11.7961  -19.9820 C   0  0  0  0  0  0  0  0  0  0  0  0
  -16.2534   11.0414  -20.5730 C   0  0  0  0  0  0  0  0  0  0  0  0
  -16.2707    9.8472  -19.9397 N   0  0  0  0  0  0  0  0  0  0  0  0
  -17.2417    9.8923  -18.9925 C   0  0  0  0  0  0  0  0  0  0  0  0
  -17.8401   11.0983  -19.0165 N   0  0  0  0  0  0  0  0  0  0  0  0
  -18.8398   11.5980  -18.2751 C   0  0  0  0  0  0  0  0  0  0  0  0
  -19.4651   10.8834  -17.2815 C   0  0  0  0  0  0  0  0  0  0  0  0
  -20.5533   10.5731  -14.1635 C   0  0  0  0  0  0  0  0  0  0  0  0
  -21.1270   10.6604  -15.5056 N   0  0  0  0  0  0  0  0  0  0  0  0
  -22.0223   10.1695  -15.7472 H   0  0  0  0  0  0  0  0  0  0  0  0
  -16.9540   13.8271  -21.3104 N   0  0  0  0  0  0  0  0  0  0  0  0
  -16.0926   14.3702  -20.9836 H   0  0  0  0  0  0  0  0  0  0  0  0
  -17.3216   13.8689  -22.6565 C   0  0  0  0  0  0  0  0  0  0  0  0
  -17.1011   12.9252  -23.6024 C   0  0  0  0  0  0  0  0  0  0  0  0
  -17.4996   13.0324  -24.9374 C   0  0  0  0  0  0  0  0  0  0  0  0
  -17.2488   12.0516  -25.8379 F   0  0  0  0  0  0  0  0  0  0  0  0
  -18.1584   14.1650  -25.3244 C   0  0  0  0  0  0  0  0  0  0  0  0
  -18.4059   15.1525  -24.3989 C   0  0  0  0  0  0  0  0  0  0  0  0
  -18.0055   15.0254  -23.0944 C   0  0  0  0  0  0  0  0  0  0  0  0
  -18.3041   16.1317  -22.1430 C   0  0  0  0  0  0  0  0  0  0  0  0
 14 15  1  0  0  0
 15  1  1  0  0  0
  1  2  2  0  0  0
  2  3  1  0  0  0
  3  4  2  0  0  0
  4  5  1  0  0  0
  5  6  2  0  0  0
  6 17  1  0  0  0
 17 19  1  0  0  0
 19 20  2  0  0  0
 20 21  1  0  0  0
 21 22  1  0  0  0
 21 23  2  0  0  0
 23 24  1  0  0  0
 24 25  2  0  0  0
 25 26  1  0  0  0
  6  7  1  0  0  0
  7  8  2  0  0  0
  8  9  1  0  0  0
  9 10  2  0  0  0
 10 11  1  0  0  0
 11 12  1  0  0  0
 12 13  2  0  0  0
 13  1  1  0  0  0
 12  4  1  0  0  0
 25 19  1  0  0  0
 11  7  1  0  0  0
 15 16  1  0  0  0
 17 18  1  0  0  0
M  END
> <minimizedAffinity>
-7.82636

> <CNNscore>
0.7467215657

> <CNNaffinity>
6.8861327171

> <CNN_VS>
5.1420240402

> <CNNaffinity_variance>
0.1740558892

$$$$
[H]c1c([H])c(C([H])([H])[H])c(N([H])c2nc3c([H])c([H])c(N([H])C([H])([H])[H])c([H])c3n3c([H])nc([H])c23)c([H])c1F


 26 29  0  0  0  0  0  0  0  0999 V2000
  -18.8827   15.1123  -17.6878 C   0  0  0  0  0  0  0  0  0  0  0  0
  -18.8300   16.0490  -18.6939 C   0  0  0  0  0  0  0  0  0  0  0  0
  -18.3985   15.7697  -19.9623 C   0  0  0  0  0  0  0  0  0  0  0  0
  -17.9849   14.4694  -20.2735 C   0  0  0  0  0  0  0  0  0  0  0  0
  -17.5563   14.1462  -21.4931 N   0  0  0  0  0  0  0  0  0  0  0  0
  -17.1450   12.9331  -21.8727 C   0  0  0  0  0  0  0  0  0  0  0  0
  -17.1983   11.9693  -20.8413 C   0  0  0  0  0  0  0  0  0  0  0  0
  -16.8498   10.6445  -20.9029 C   0  0  0  0  0  0  0  0  0  0  0  0
  -17.0764   10.1426  -19.6682 N   0  0  0  0  0  0  0  0  0  0  0  0
  -17.5497   11.1489  -18.8901 C   0  0  0  0  0  0  0  0  0  0  0  0
  -17.6262   12.2816  -19.6142 N   0  0  0  0  0  0  0  0  0  0  0  0
  -18.0307   13.5148  -19.2761 C   0  0  0  0  0  0  0  0  0  0  0  0
  -18.4713   13.8394  -18.0154 C   0  0  0  0  0  0  0  0  0  0  0  0
  -20.0068   16.6996  -16.0964 C   0  0  0  0  0  0  0  0  0  0  0  0
  -19.3361   15.4311  -16.3771 N   0  0  0  0  0  0  0  0  0  0  0  0
  -19.1718   14.7235  -15.6199 H   0  0  0  0  0  0  0  0  0  0  0  0
  -16.6888   12.5678  -23.1544 N   0  0  0  0  0  0  0  0  0  0  0  0
  -16.8485   11.5392  -23.3996 H   0  0  0  0  0  0  0  0  0  0  0  0
  -16.0726   13.4071  -24.0841 C   0  0  0  0  0  0  0  0  0  0  0  0
  -14.8028   13.8773  -24.0580 C   0  0  0  0  0  0  0  0  0  0  0  0
  -14.2481   14.7169  -25.0274 C   0  0  0  0  0  0  0  0  0  0  0  0
  -12.9684   15.1544  -24.9447 F   0  0  0  0  0  0  0  0  0  0  0  0
  -15.0343   15.0952  -26.0787 C   0  0  0  0  0  0  0  0  0  0  0  0
  -16.3318   14.6431  -26.1492 C   0  0  0  0  0  0  0  0  0  0  0  0
  -16.8547   13.8198  -25.1863 C   0  0  0  0  0  0  0  0  0  0  0  0
  -18.2670   13.3666  -25.3219 C   0  0  0  0  0  0  0  0  0  0  0  0
 14 15  1  0  0  0
 15  1  1  0  0  0
  1  2  2  0  0  0
  2  3  1  0  0  0
  3  4  2  0  0  0
  4  5  1  0  0  0
  5  6  2  0  0  0
  6 17  1  0  0  0
 17 19  1  0  0  0
 19 20  2  0  0  0
 20 21  1  0  0  0
 21 22  1  0  0  0
 21 23  2  0  0  0
 23 24  1  0  0  0
 24 25  2  0  0  0
 25 26  1  0  0  0
  6  7  1  0  0  0
  7  8  2  0  0  0
  8  9  1  0  0  0
  9 10  2  0  0  0
 10 11  1  0  0  0
 11 12  1  0  0  0
 12 13  2  0  0  0
 13  1  1  0  0  0
 12  4  1  0  0  0
 25 19  1  0  0  0
 11  7  1  0  0  0
 15 16  1  0  0  0
 17 18  1  0  0  0
M  END
> <minimizedAffinity>
-8.60418

> <CNNscore>
0.7381715178

> <CNNaffinity>
7.0547246933

> <CNN_VS>
5.2075967789

> <CNNaffinity_variance>
0.1185791492

$$$$
[H]c1nc(N([H])[H])c([H])c(-n2c(N([H])c3c([H])c(N([H])C(=O)c4c([H])c([H])c([H])c(C([H])([H])[H])c4[H])c([H])c([H])c3C([H])([H])[H])nc3c([H])c([H])c([H])c([H])c32)n1


 38 42  0  0  0  0  0  0  0  0999 V2000
  -16.3145   15.9043  -21.0712 N   0  0  0  0  0  0  0  0  0  0  0  0
  -15.3466   15.7646  -20.6355 H   0  0  0  0  0  0  0  0  0  0  0  0
  -16.3615   15.6844  -22.4677 C   0  0  0  0  0  0  0  0  0  0  0  0
  -16.2230   16.5607  -23.4658 N   0  0  0  0  0  0  0  0  0  0  0  0
  -16.3160   15.9725  -24.6939 C   0  0  0  0  0  0  0  0  0  0  0  0
  -16.2376   16.4449  -25.9871 C   0  0  0  0  0  0  0  0  0  0  0  0
  -16.3728   15.5585  -27.0603 C   0  0  0  0  0  0  0  0  0  0  0  0
  -16.5824   14.2422  -26.7524 C   0  0  0  0  0  0  0  0  0  0  0  0
  -16.6627   13.7603  -25.4556 C   0  0  0  0  0  0  0  0  0  0  0  0
  -16.5253   14.6473  -24.3882 C   0  0  0  0  0  0  0  0  0  0  0  0
  -16.5555   14.4606  -23.0581 N   0  0  0  0  0  0  0  0  0  0  0  0
  -16.7389   13.2333  -22.3747 C   0  0  0  0  0  0  0  0  0  0  0  0
  -15.8211   12.2142  -22.3052 C   0  0  0  0  0  0  0  0  0  0  0  0
  -16.0370   11.0268  -21.6291 C   0  0  0  0  0  0  0  0  0  0  0  0
  -15.0918    9.9854  -21.5655 N   0  0  0  0  0  0  0  0  0  0  0  0
  -17.2214   10.8742  -21.0082 N   0  0  0  0  0  0  0  0  0  0  0  0
  -18.1459   11.8432  -21.0495 C   0  0  0  0  0  0  0  0  0  0  0  0
  -17.9191   12.9865  -21.7070 N   0  0  0  0  0  0  0  0  0  0  0  0
  -14.2783    9.9840  -22.2131 H   0  0  0  0  0  0  0  0  0  0  0  0
  -15.1854    9.2124  -20.8888 H   0  0  0  0  0  0  0  0  0  0  0  0
  -19.1203   15.7758  -18.6140 C   0  0  0  0  0  0  0  0  0  0  0  0
  -19.3040   17.1406  -18.4452 C   0  0  0  0  0  0  0  0  0  0  0  0
  -18.5199   18.0669  -19.1332 C   0  0  0  0  0  0  0  0  0  0  0  0
  -17.5525   17.6145  -19.9890 C   0  0  0  0  0  0  0  0  0  0  0  0
  -16.7416   18.6460  -20.7226 C   0  0  0  0  0  0  0  0  0  0  0  0
  -17.3398   16.2571  -20.1809 C   0  0  0  0  0  0  0  0  0  0  0  0
  -18.1386   15.3616  -19.4810 C   0  0  0  0  0  0  0  0  0  0  0  0
  -20.7020   14.0528  -17.2381 C   0  0  0  0  0  0  0  0  0  0  0  0
  -21.8303   14.3063  -16.6392 O   0  0  0  0  0  0  0  0  0  0  0  0
  -19.9565   14.8644  -17.8865 N   0  0  0  0  0  0  0  0  0  0  0  0
  -20.7667   15.9296  -17.5243 H   0  0  0  0  0  0  0  0  0  0  0  0
  -21.7689    9.6485  -15.2066 C   0  0  0  0  0  0  0  0  0  0  0  0
  -20.8732   10.4760  -16.0992 C   0  0  0  0  0  0  0  0  0  0  0  0
  -19.7711    9.9559  -16.7456 C   0  0  0  0  0  0  0  0  0  0  0  0
  -18.9732   10.7719  -17.5528 C   0  0  0  0  0  0  0  0  0  0  0  0
  -19.2786   12.0989  -17.7098 C   0  0  0  0  0  0  0  0  0  0  0  0
  -20.3590   12.5972  -17.0722 C   0  0  0  0  0  0  0  0  0  0  0  0
  -21.1640   11.8165  -16.2705 C   0  0  0  0  0  0  0  0  0  0  0  0
 32 33  1  0  0  0
 33 34  2  0  0  0
 34 35  1  0  0  0
 35 36  2  0  0  0
 36 37  1  0  0  0
 37 38  2  0  0  0
 37 28  1  0  0  0
 28 29  2  0  0  0
 28 30  1  0  0  0
 30 21  1  0  0  0
 21 22  2  0  0  0
 22 23  1  0  0  0
 23 24  2  0  0  0
 24 25  1  0  0  0
 24 26  1  0  0  0
 26  1  1  0  0  0
  1  3  1  0  0  0
  3  4  2  0  0  0
  4  5  1  0  0  0
  5  6  2  0  0  0
  6  7  1  0  0  0
  7  8  2  0  0  0
  8  9  1  0  0  0
  9 10  2  0  0  0
 10 11  1  0  0  0
 11 12  1  0  0  0
 12 13  2  0  0  0
 13 14  1  0  0  0
 14 15  1  0  0  0
 14 16  2  0  0  0
 16 17  1  0  0  0
 17 18  2  0  0  0
 26 27  2  0  0  0
 38 33  1  0  0  0
 27 21  1  0  0  0
 11  3  1  0  0  0
 18 12  1  0  0  0
 10  5  1  0  0  0
 30 31  1  0  0  0
  1  2  1  0  0  0
 15 19  1  0  0  0
 15 20  1  0  0  0
M  END
> <minimizedAffinity>
-8.97823

> <CNNscore>
0.3505773544

> <CNNaffinity>
7.4486403465

> <CNN_VS>
2.6113245487

> <CNNaffinity_variance>
0.2402446717

$$$$
[H]c1nc(N([H])[H])c([H])c(-n2c(N([H])c3c([H])c(N([H])C(=O)c4c([H])c([H])c([H])c(C([H])([H])[H])c4[H])c([H])c([H])c3C([H])([H])[H])nc3c([H])c([H])c([H])c([H])c32)n1


 38 42  0  0  0  0  0  0  0  0999 V2000
  -18.3960   15.8069  -19.3551 N   0  0  0  0  0  0  0  0  0  0  0  0
  -18.3686   16.1511  -18.3417 H   0  0  0  0  0  0  0  0  0  0  0  0
  -18.0581   14.4428  -19.5158 C   0  0  0  0  0  0  0  0  0  0  0  0
  -18.0925   13.4529  -18.6202 N   0  0  0  0  0  0  0  0  0  0  0  0
  -17.7037   12.2563  -19.1491 C   0  0  0  0  0  0  0  0  0  0  0  0
  -17.5804   10.9815  -18.6377 C   0  0  0  0  0  0  0  0  0  0  0  0
  -17.1491    9.9395  -19.4649 C   0  0  0  0  0  0  0  0  0  0  0  0
  -16.8665   10.2585  -20.7648 C   0  0  0  0  0  0  0  0  0  0  0  0
  -16.9877   11.5371  -21.2855 C   0  0  0  0  0  0  0  0  0  0  0  0
  -17.4199   12.5729  -20.4577 C   0  0  0  0  0  0  0  0  0  0  0  0
  -17.6272   13.8796  -20.6911 N   0  0  0  0  0  0  0  0  0  0  0  0
  -17.4518   14.5633  -21.9193 C   0  0  0  0  0  0  0  0  0  0  0  0
  -16.2561   15.0269  -22.4104 C   0  0  0  0  0  0  0  0  0  0  0  0
  -16.1237   15.6937  -23.6152 C   0  0  0  0  0  0  0  0  0  0  0  0
  -14.8944   16.1687  -24.1100 N   0  0  0  0  0  0  0  0  0  0  0  0
  -17.2414   15.8942  -24.3380 N   0  0  0  0  0  0  0  0  0  0  0  0
  -18.4292   15.4582  -23.8972 C   0  0  0  0  0  0  0  0  0  0  0  0
  -18.5383   14.8131  -22.7298 N   0  0  0  0  0  0  0  0  0  0  0  0
  -14.0702   16.2281  -23.4788 H   0  0  0  0  0  0  0  0  0  0  0  0
  -14.7866   16.4663  -25.0919 H   0  0  0  0  0  0  0  0  0  0  0  0
  -20.3360   17.8188  -21.8280 C   0  0  0  0  0  0  0  0  0  0  0  0
  -19.3439   18.7247  -22.1744 C   0  0  0  0  0  0  0  0  0  0  0  0
  -18.0728   18.6593  -21.6037 C   0  0  0  0  0  0  0  0  0  0  0  0
  -17.8055   17.6807  -20.6849 C   0  0  0  0  0  0  0  0  0  0  0  0
  -16.4184   17.6358  -20.1071 C   0  0  0  0  0  0  0  0  0  0  0  0
  -18.7736   16.7593  -20.3136 C   0  0  0  0  0  0  0  0  0  0  0  0
  -20.0288   16.8521  -20.9016 C   0  0  0  0  0  0  0  0  0  0  0  0
  -22.7753   18.0218  -22.9993 C   0  0  0  0  0  0  0  0  0  0  0  0
  -23.9442   17.8678  -22.4461 O   0  0  0  0  0  0  0  0  0  0  0  0
  -21.6258   17.9263  -22.4477 N   0  0  0  0  0  0  0  0  0  0  0  0
  -22.2076   17.5062  -21.2614 H   0  0  0  0  0  0  0  0  0  0  0  0
  -22.0270   21.1952  -26.7454 C   0  0  0  0  0  0  0  0  0  0  0  0
  -22.5843   19.8763  -26.2619 C   0  0  0  0  0  0  0  0  0  0  0  0
  -23.2384   18.9891  -27.0913 C   0  0  0  0  0  0  0  0  0  0  0  0
  -23.7409   17.7864  -26.5860 C   0  0  0  0  0  0  0  0  0  0  0  0
  -23.5884   17.4769  -25.2595 C   0  0  0  0  0  0  0  0  0  0  0  0
  -22.9472   18.3527  -24.4571 C   0  0  0  0  0  0  0  0  0  0  0  0
  -22.4409   19.5455  -24.9274 C   0  0  0  0  0  0  0  0  0  0  0  0
 32 33  1  0  0  0
 33 34  2  0  0  0
 34 35  1  0  0  0
 35 36  2  0  0  0
 36 37  1  0  0  0
 37 38  2  0  0  0
 37 28  1  0  0  0
 28 29  2  0  0  0
 28 30  1  0  0  0
 30 21  1  0  0  0
 21 22  2  0  0  0
 22 23  1  0  0  0
 23 24  2  0  0  0
 24 25  1  0  0  0
 24 26  1  0  0  0
 26  1  1  0  0  0
  1  3  1  0  0  0
  3  4  2  0  0  0
  4  5  1  0  0  0
  5  6  2  0  0  0
  6  7  1  0  0  0
  7  8  2  0  0  0
  8  9  1  0  0  0
  9 10  2  0  0  0
 10 11  1  0  0  0
 11 12  1  0  0  0
 12 13  2  0  0  0
 13 14  1  0  0  0
 14 15  1  0  0  0
 14 16  2  0  0  0
 16 17  1  0  0  0
 17 18  2  0  0  0
 26 27  2  0  0  0
 38 33  1  0  0  0
 27 21  1  0  0  0
 11  3  1  0  0  0
 18 12  1  0  0  0
 10  5  1  0  0  0
 30 31  1  0  0  0
  1  2  1  0  0  0
 15 19  1  0  0  0
 15 20  1  0  0  0
M  END
> <minimizedAffinity>
-10.05885

> <CNNscore>
0.2843109071

> <CNNaffinity>
6.9631400108

> <CNN_VS>
1.9796966314

> <CNNaffinity_variance>
0.0955488011

$$$$
[H]c1nc(N([H])[H])c([H])c(-n2c(N([H])c3c([H])c(N([H])C(=O)c4c([H])c([H])c([H])c(C([H])([H])[H])c4[H])c([H])c([H])c3C([H])([H])[H])nc3c([H])c([H])c([H])c([H])c32)n1


 38 42  0  0  0  0  0  0  0  0999 V2000
  -17.8224   13.1838  -22.1131 N   0  0  0  0  0  0  0  0  0  0  0  0
  -18.1909   12.9396  -23.0882 H   0  0  0  0  0  0  0  0  0  0  0  0
  -17.9376   14.5520  -21.7732 C   0  0  0  0  0  0  0  0  0  0  0  0
  -18.4137   15.1075  -20.6561 N   0  0  0  0  0  0  0  0  0  0  0  0
  -18.3527   16.4707  -20.6837 C   0  0  0  0  0  0  0  0  0  0  0  0
  -18.7091   17.4605  -19.7921 C   0  0  0  0  0  0  0  0  0  0  0  0
  -18.5070   18.8033  -20.1270 C   0  0  0  0  0  0  0  0  0  0  0  0
  -17.9553   19.0587  -21.3525 C   0  0  0  0  0  0  0  0  0  0  0  0
  -17.5951   18.0694  -22.2536 C   0  0  0  0  0  0  0  0  0  0  0  0
  -17.7965   16.7316  -21.9150 C   0  0  0  0  0  0  0  0  0  0  0  0
  -17.5434   15.5912  -22.5786 N   0  0  0  0  0  0  0  0  0  0  0  0
  -16.9650   15.4656  -23.8656 C   0  0  0  0  0  0  0  0  0  0  0  0
  -15.8668   16.1553  -24.3172 C   0  0  0  0  0  0  0  0  0  0  0  0
  -15.3308   16.0078  -25.5840 C   0  0  0  0  0  0  0  0  0  0  0  0
  -14.2063   16.7212  -26.0403 N   0  0  0  0  0  0  0  0  0  0  0  0
  -15.9321   15.1342  -26.4129 N   0  0  0  0  0  0  0  0  0  0  0  0
  -17.0059   14.4395  -26.0135 C   0  0  0  0  0  0  0  0  0  0  0  0
  -17.5099   14.5936  -24.7834 N   0  0  0  0  0  0  0  0  0  0  0  0
  -13.8696   17.5509  -25.5116 H   0  0  0  0  0  0  0  0  0  0  0  0
  -13.7020   16.4435  -26.8964 H   0  0  0  0  0  0  0  0  0  0  0  0
  -17.3697   10.5143  -19.5450 C   0  0  0  0  0  0  0  0  0  0  0  0
  -16.1884    9.9687  -20.0264 C   0  0  0  0  0  0  0  0  0  0  0  0
  -15.5664   10.4803  -21.1654 C   0  0  0  0  0  0  0  0  0  0  0  0
  -16.1374   11.5404  -21.8160 C   0  0  0  0  0  0  0  0  0  0  0  0
  -15.4257   12.0713  -23.0290 C   0  0  0  0  0  0  0  0  0  0  0  0
  -17.3188   12.1098  -21.3639 C   0  0  0  0  0  0  0  0  0  0  0  0
  -17.9119   11.5767  -20.2264 C   0  0  0  0  0  0  0  0  0  0  0  0
  -18.4989    9.4548  -17.3165 C   0  0  0  0  0  0  0  0  0  0  0  0
  -18.1306    8.3918  -16.6606 O   0  0  0  0  0  0  0  0  0  0  0  0
  -17.9671    9.9542  -18.3665 N   0  0  0  0  0  0  0  0  0  0  0  0
  -17.0973    8.8788  -18.4620 H   0  0  0  0  0  0  0  0  0  0  0  0
  -21.2130   13.5031  -16.3634 C   0  0  0  0  0  0  0  0  0  0  0  0
  -21.0078   12.0158  -16.1911 C   0  0  0  0  0  0  0  0  0  0  0  0
  -21.8587   11.2221  -15.4501 C   0  0  0  0  0  0  0  0  0  0  0  0
  -21.6138    9.8520  -15.3185 C   0  0  0  0  0  0  0  0  0  0  0  0
  -20.5241    9.2835  -15.9252 C   0  0  0  0  0  0  0  0  0  0  0  0
  -19.6980   10.0699  -16.6472 C   0  0  0  0  0  0  0  0  0  0  0  0
  -19.9146   11.4232  -16.7948 C   0  0  0  0  0  0  0  0  0  0  0  0
 32 33  1  0  0  0
 33 34  2  0  0  0
 34 35  1  0  0  0
 35 36  2  0  0  0
 36 37  1  0  0  0
 37 38  2  0  0  0
 37 28  1  0  0  0
 28 29  2  0  0  0
 28 30  1  0  0  0
 30 21  1  0  0  0
 21 22  2  0  0  0
 22 23  1  0  0  0
 23 24  2  0  0  0
 24 25  1  0  0  0
 24 26  1  0  0  0
 26  1  1  0  0  0
  1  3  1  0  0  0
  3  4  2  0  0  0
  4  5  1  0  0  0
  5  6  2  0  0  0
  6  7  1  0  0  0
  7  8  2  0  0  0
  8  9  1  0  0  0
  9 10  2  0  0  0
 10 11  1  0  0  0
 11 12  1  0  0  0
 12 13  2  0  0  0
 13 14  1  0  0  0
 14 15  1  0  0  0
 14 16  2  0  0  0
 16 17  1  0  0  0
 17 18  2  0  0  0
 26 27  2  0  0  0
 38 33  1  0  0  0
 27 21  1  0  0  0
 11  3  1  0  0  0
 18 12  1  0  0  0
 10  5  1  0  0  0
 30 31  1  0  0  0
  1  2  1  0  0  0
 15 19  1  0  0  0
 15 20  1  0  0  0
M  END
> <minimizedAffinity>
-10.14769

> <CNNscore>
0.2567932010

> <CNNaffinity>
7.2277326584

> <CNN_VS>
1.8560326099

> <CNNaffinity_variance>
0.1936831921

$$$$
[H]c1nc(N([H])[H])c([H])c(-n2c(N([H])c3c([H])c(N([H])C(=O)c4c([H])c([H])c([H])c(C([H])([H])[H])c4[H])c([H])c([H])c3C([H])([H])[H])nc3c([H])c([H])c([H])c([H])c32)n1


 38 42  0  0  0  0  0  0  0  0999 V2000
  -17.3151   13.2230  -21.7753 N   0  0  0  0  0  0  0  0  0  0  0  0
  -16.5977   13.0633  -22.5537 H   0  0  0  0  0  0  0  0  0  0  0  0
  -18.0596   14.4186  -21.9062 C   0  0  0  0  0  0  0  0  0  0  0  0
  -18.7433   15.0937  -20.9788 N   0  0  0  0  0  0  0  0  0  0  0  0
  -19.3290   16.2205  -21.4788 C   0  0  0  0  0  0  0  0  0  0  0  0
  -20.1102   17.2149  -20.9287 C   0  0  0  0  0  0  0  0  0  0  0  0
  -20.5611   18.2683  -21.7306 C   0  0  0  0  0  0  0  0  0  0  0  0
  -20.1910   18.2452  -23.0473 C   0  0  0  0  0  0  0  0  0  0  0  0
  -19.4066   17.2492  -23.6072 C   0  0  0  0  0  0  0  0  0  0  0  0
  -18.9575   16.2016  -22.8036 C   0  0  0  0  0  0  0  0  0  0  0  0
  -18.1974   15.1273  -23.0736 N   0  0  0  0  0  0  0  0  0  0  0  0
  -17.6248   14.7817  -24.3224 C   0  0  0  0  0  0  0  0  0  0  0  0
  -17.7793   13.5780  -24.9649 C   0  0  0  0  0  0  0  0  0  0  0  0
  -17.2016   13.2753  -26.1849 C   0  0  0  0  0  0  0  0  0  0  0  0
  -17.3625   12.0373  -26.8355 N   0  0  0  0  0  0  0  0  0  0  0  0
  -16.4448   14.2255  -26.7645 N   0  0  0  0  0  0  0  0  0  0  0  0
  -16.2675   15.4147  -26.1731 C   0  0  0  0  0  0  0  0  0  0  0  0
  -16.8357   15.6910  -24.9935 N   0  0  0  0  0  0  0  0  0  0  0  0
  -17.7450   11.2235  -26.3133 H   0  0  0  0  0  0  0  0  0  0  0  0
  -17.1059   11.9112  -27.8267 H   0  0  0  0  0  0  0  0  0  0  0  0
  -18.3022   11.1827  -18.8106 C   0  0  0  0  0  0  0  0  0  0  0  0
  -17.4047   10.1377  -18.9763 C   0  0  0  0  0  0  0  0  0  0  0  0
  -16.5009   10.1217  -20.0388 C   0  0  0  0  0  0  0  0  0  0  0  0
  -16.5047   11.1591  -20.9314 C   0  0  0  0  0  0  0  0  0  0  0  0
  -15.5035   11.1105  -22.0516 C   0  0  0  0  0  0  0  0  0  0  0  0
  -17.3891   12.2195  -20.7976 C   0  0  0  0  0  0  0  0  0  0  0  0
  -18.2755   12.2047  -19.7280 C   0  0  0  0  0  0  0  0  0  0  0  0
  -20.0158   11.1289  -16.7072 C   0  0  0  0  0  0  0  0  0  0  0  0
  -21.0801   11.8564  -16.5231 O   0  0  0  0  0  0  0  0  0  0  0  0
  -19.2082   11.1540  -17.6981 N   0  0  0  0  0  0  0  0  0  0  0  0
  -19.8716   12.2456  -18.2370 H   0  0  0  0  0  0  0  0  0  0  0  0
  -19.5180   10.4926  -11.8071 C   0  0  0  0  0  0  0  0  0  0  0  0
  -19.6042    9.8815  -13.1866 C   0  0  0  0  0  0  0  0  0  0  0  0
  -19.5198    8.5231  -13.4120 C   0  0  0  0  0  0  0  0  0  0  0  0
  -19.5977    8.0150  -14.7120 C   0  0  0  0  0  0  0  0  0  0  0  0
  -19.7586    8.8629  -15.7768 C   0  0  0  0  0  0  0  0  0  0  0  0
  -19.8394   10.1902  -15.5445 C   0  0  0  0  0  0  0  0  0  0  0  0
  -19.7664   10.7196  -14.2738 C   0  0  0  0  0  0  0  0  0  0  0  0
 32 33  1  0  0  0
 33 34  2  0  0  0
 34 35  1  0  0  0
 35 36  2  0  0  0
 36 37  1  0  0  0
 37 38  2  0  0  0
 37 28  1  0  0  0
 28 29  2  0  0  0
 28 30  1  0  0  0
 30 21  1  0  0  0
 21 22  2  0  0  0
 22 23  1  0  0  0
 23 24  2  0  0  0
 24 25  1  0  0  0
 24 26  1  0  0  0
 26  1  1  0  0  0
  1  3  1  0  0  0
  3  4  2  0  0  0
  4  5  1  0  0  0
  5  6  2  0  0  0
  6  7  1  0  0  0
  7  8  2  0  0  0
  8  9  1  0  0  0
  9 10  2  0  0  0
 10 11  1  0  0  0
 11 12  1  0  0  0
 12 13  2  0  0  0
 13 14  1  0  0  0
 14 15  1  0  0  0
 14 16  2  0  0  0
 16 17  1  0  0  0
 17 18  2  0  0  0
 26 27  2  0  0  0
 38 33  1  0  0  0
 27 21  1  0  0  0
 11  3  1  0  0  0
 18 12  1  0  0  0
 10  5  1  0  0  0
 30 31  1  0  0  0
  1  2  1  0  0  0
 15 19  1  0  0  0
 15 20  1  0  0  0
M  END
> <minimizedAffinity>
-10.32966

> <CNNscore>
0.2559901774

> <CNNaffinity>
6.7597045898

> <CNN_VS>
1.7304179668

> <CNNaffinity_variance>
0.3060814142

$$$$
[H]c1nc(N([H])[H])c([H])c(-n2c(N([H])c3c([H])c(N([H])C(=O)c4c([H])c([H])c([H])c(C([H])([H])[H])c4[H])c([H])c([H])c3C([H])([H])[H])nc3c([H])c([H])c([H])c([H])c32)n1


 38 42  0  0  0  0  0  0  0  0999 V2000
  -17.4435   13.3073  -22.2960 N   0  0  0  0  0  0  0  0  0  0  0  0
  -17.0663   12.9271  -23.2229 H   0  0  0  0  0  0  0  0  0  0  0  0
  -17.9386   14.6304  -22.3679 C   0  0  0  0  0  0  0  0  0  0  0  0
  -18.9316   15.1992  -21.6797 N   0  0  0  0  0  0  0  0  0  0  0  0
  -19.1151   16.5096  -22.0143 C   0  0  0  0  0  0  0  0  0  0  0  0
  -19.9866   17.4903  -21.5894 C   0  0  0  0  0  0  0  0  0  0  0  0
  -19.9123   18.7730  -22.1418 C   0  0  0  0  0  0  0  0  0  0  0  0
  -18.9552   18.9805  -23.0969 C   0  0  0  0  0  0  0  0  0  0  0  0
  -18.0764   17.9999  -23.5290 C   0  0  0  0  0  0  0  0  0  0  0  0
  -18.1525   16.7226  -22.9742 C   0  0  0  0  0  0  0  0  0  0  0  0
  -17.4409   15.6051  -23.1964 N   0  0  0  0  0  0  0  0  0  0  0  0
  -16.3645   15.4476  -24.1038 C   0  0  0  0  0  0  0  0  0  0  0  0
  -16.4176   15.6907  -25.4542 C   0  0  0  0  0  0  0  0  0  0  0  0
  -15.3444   15.5231  -26.3109 C   0  0  0  0  0  0  0  0  0  0  0  0
  -15.4082   15.7715  -27.6951 N   0  0  0  0  0  0  0  0  0  0  0  0
  -14.1861   15.0945  -25.7757 N   0  0  0  0  0  0  0  0  0  0  0  0
  -14.0892   14.8457  -24.4628 C   0  0  0  0  0  0  0  0  0  0  0  0
  -15.1375   15.0153  -23.6484 N   0  0  0  0  0  0  0  0  0  0  0  0
  -16.3320   15.8805  -28.1597 H   0  0  0  0  0  0  0  0  0  0  0  0
  -14.5548   15.8464  -28.2698 H   0  0  0  0  0  0  0  0  0  0  0  0
  -18.1219   11.5666  -19.0654 C   0  0  0  0  0  0  0  0  0  0  0  0
  -17.1520   10.5791  -19.1602 C   0  0  0  0  0  0  0  0  0  0  0  0
  -16.3010   10.5041  -20.2630 C   0  0  0  0  0  0  0  0  0  0  0  0
  -16.4305   11.4247  -21.2674 C   0  0  0  0  0  0  0  0  0  0  0  0
  -15.4826   11.3178  -22.4291 C   0  0  0  0  0  0  0  0  0  0  0  0
  -17.3902   12.4246  -21.2068 C   0  0  0  0  0  0  0  0  0  0  0  0
  -18.2209   12.4713  -20.0944 C   0  0  0  0  0  0  0  0  0  0  0  0
  -19.7238   11.6363  -16.8763 C   0  0  0  0  0  0  0  0  0  0  0  0
  -20.0591   12.6726  -16.1624 O   0  0  0  0  0  0  0  0  0  0  0  0
  -18.9691   11.6031  -17.9078 N   0  0  0  0  0  0  0  0  0  0  0  0
  -18.6655   12.9471  -17.7538 H   0  0  0  0  0  0  0  0  0  0  0  0
  -23.7842    9.4519  -15.0308 C   0  0  0  0  0  0  0  0  0  0  0  0
  -22.3296    9.3489  -15.4279 C   0  0  0  0  0  0  0  0  0  0  0  0
  -21.5933    8.1911  -15.2855 C   0  0  0  0  0  0  0  0  0  0  0  0
  -20.2475    8.1571  -15.6625 C   0  0  0  0  0  0  0  0  0  0  0  0
  -19.6459    9.2757  -16.1777 C   0  0  0  0  0  0  0  0  0  0  0  0
  -20.3759   10.4031  -16.3120 C   0  0  0  0  0  0  0  0  0  0  0  0
  -21.7043   10.4660  -15.9494 C   0  0  0  0  0  0  0  0  0  0  0  0
 32 33  1  0  0  0
 33 34  2  0  0  0
 34 35  1  0  0  0
 35 36  2  0  0  0
 36 37  1  0  0  0
 37 38  2  0  0  0
 37 28  1  0  0  0
 28 29  2  0  0  0
 28 30  1  0  0  0
 30 21  1  0  0  0
 21 22  2  0  0  0
 22 23  1  0  0  0
 23 24  2  0  0  0
 24 25  1  0  0  0
 24 26  1  0  0  0
 26  1  1  0  0  0
  1  3  1  0  0  0
  3  4  2  0  0  0
  4  5  1  0  0  0
  5  6  2  0  0  0
  6  7  1  0  0  0
  7  8  2  0  0  0
  8  9  1  0  0  0
  9 10  2  0  0  0
 10 11  1  0  0  0
 11 12  1  0  0  0
 12 13  2  0  0  0
 13 14  1  0  0  0
 14 15  1  0  0  0
 14 16  2  0  0  0
 16 17  1  0  0  0
 17 18  2  0  0  0
 26 27  2  0  0  0
 38 33  1  0  0  0
 27 21  1  0  0  0
 11  3  1  0  0  0
 18 12  1  0  0  0
 10  5  1  0  0  0
 30 31  1  0  0  0
  1  2  1  0  0  0
 15 19  1  0  0  0
 15 20  1  0  0  0
M  END
> <minimizedAffinity>
-10.24624

> <CNNscore>
0.2498805821

> <CNNaffinity>
6.7823286057

> <CNN_VS>
1.6947722435

> <CNNaffinity_variance>
0.3187953234

$$$$
[H]c1nc(N([H])[H])c([H])c(-n2c(N([H])c3c([H])c(N([H])C(=O)c4c([H])c([H])c([H])c(C([H])([H])[H])c4[H])c([H])c([H])c3C([H])([H])[H])nc3c([H])c([H])c([H])c([H])c32)n1


 38 42  0  0  0  0  0  0  0  0999 V2000
  -17.4268   12.8179  -20.6541 N   0  0  0  0  0  0  0  0  0  0  0  0
  -17.0396   12.4318  -21.5745 H   0  0  0  0  0  0  0  0  0  0  0  0
  -17.5639   14.2254  -20.6251 C   0  0  0  0  0  0  0  0  0  0  0  0
  -18.0333   15.0085  -19.6506 N   0  0  0  0  0  0  0  0  0  0  0  0
  -18.0000   16.3320  -19.9824 C   0  0  0  0  0  0  0  0  0  0  0  0
  -18.3619   17.4899  -19.3267 C   0  0  0  0  0  0  0  0  0  0  0  0
  -18.1921   18.7272  -19.9561 C   0  0  0  0  0  0  0  0  0  0  0  0
  -17.6652   18.7116  -21.2185 C   0  0  0  0  0  0  0  0  0  0  0  0
  -17.2996   17.5521  -21.8837 C   0  0  0  0  0  0  0  0  0  0  0  0
  -17.4687   16.3205  -21.2517 C   0  0  0  0  0  0  0  0  0  0  0  0
  -17.2035   15.0650  -21.6495 N   0  0  0  0  0  0  0  0  0  0  0  0
  -16.6432   14.6648  -22.8875 C   0  0  0  0  0  0  0  0  0  0  0  0
  -15.4446   15.0988  -23.3980 C   0  0  0  0  0  0  0  0  0  0  0  0
  -14.9298   14.6869  -24.6142 C   0  0  0  0  0  0  0  0  0  0  0  0
  -13.7014   15.1393  -25.1319 N   0  0  0  0  0  0  0  0  0  0  0  0
  -15.6580   13.8095  -25.3295 N   0  0  0  0  0  0  0  0  0  0  0  0
  -16.8329   13.3591  -24.8692 C   0  0  0  0  0  0  0  0  0  0  0  0
  -17.3147   13.7671  -23.6893 N   0  0  0  0  0  0  0  0  0  0  0  0
  -13.2392   15.9726  -24.7155 H   0  0  0  0  0  0  0  0  0  0  0  0
  -13.2421   14.6645  -25.9242 H   0  0  0  0  0  0  0  0  0  0  0  0
  -18.9073   11.0594  -17.7142 C   0  0  0  0  0  0  0  0  0  0  0  0
  -18.2340    9.8529  -17.8401 C   0  0  0  0  0  0  0  0  0  0  0  0
  -17.3158    9.6405  -18.8685 C   0  0  0  0  0  0  0  0  0  0  0  0
  -17.0793   10.6450  -19.7675 C   0  0  0  0  0  0  0  0  0  0  0  0
  -16.0703   10.3802  -20.8498 C   0  0  0  0  0  0  0  0  0  0  0  0
  -17.7356   11.8635  -19.6732 C   0  0  0  0  0  0  0  0  0  0  0  0
  -18.6432   12.0424  -18.6368 C   0  0  0  0  0  0  0  0  0  0  0  0
  -20.6685   11.3808  -15.6750 C   0  0  0  0  0  0  0  0  0  0  0  0
  -21.8547   11.9166  -15.7188 O   0  0  0  0  0  0  0  0  0  0  0  0
  -19.8385   11.2292  -16.6356 N   0  0  0  0  0  0  0  0  0  0  0  0
  -20.6672   11.9396  -17.4905 H   0  0  0  0  0  0  0  0  0  0  0  0
  -21.4093   11.9248  -10.7946 C   0  0  0  0  0  0  0  0  0  0  0  0
  -20.7308   11.1832  -11.9230 C   0  0  0  0  0  0  0  0  0  0  0  0
  -19.8614   10.1326  -11.7146 C   0  0  0  0  0  0  0  0  0  0  0  0
  -19.2559    9.4891  -12.7978 C   0  0  0  0  0  0  0  0  0  0  0  0
  -19.5205    9.8967  -14.0795 C   0  0  0  0  0  0  0  0  0  0  0  0
  -20.3723   10.9260  -14.2716 C   0  0  0  0  0  0  0  0  0  0  0  0
  -20.9842   11.5789  -13.2231 C   0  0  0  0  0  0  0  0  0  0  0  0
 32 33  1  0  0  0
 33 34  2  0  0  0
 34 35  1  0  0  0
 35 36  2  0  0  0
 36 37  1  0  0  0
 37 38  2  0  0  0
 37 28  1  0  0  0
 28 29  2  0  0  0
 28 30  1  0  0  0
 30 21  1  0  0  0
 21 22  2  0  0  0
 22 23  1  0  0  0
 23 24  2  0  0  0
 24 25  1  0  0  0
 24 26  1  0  0  0
 26  1  1  0  0  0
  1  3  1  0  0  0
  3  4  2  0  0  0
  4  5  1  0  0  0
  5  6  2  0  0  0
  6  7  1  0  0  0
  7  8  2  0  0  0
  8  9  1  0  0  0
  9 10  2  0  0  0
 10 11  1  0  0  0
 11 12  1  0  0  0
 12 13  2  0  0  0
 13 14  1  0  0  0
 14 15  1  0  0  0
 14 16  2  0  0  0
 16 17  1  0  0  0
 17 18  2  0  0  0
 26 27  2  0  0  0
 38 33  1  0  0  0
 27 21  1  0  0  0
 11  3  1  0  0  0
 18 12  1  0  0  0
 10  5  1  0  0  0
 30 31  1  0  0  0
  1  2  1  0  0  0
 15 19  1  0  0  0
 15 20  1  0  0  0
M  END
> <minimizedAffinity>
-9.71848

> <CNNscore>
0.2394725233

> <CNNaffinity>
6.9681653976

> <CNN_VS>
1.6686841249

> <CNNaffinity_variance>
0.0876135677

$$$$
[H]c1nc(N([H])[H])c([H])c(-n2c(N([H])c3c([H])c(N([H])C(=O)c4c([H])c([H])c([H])c(C([H])([H])[H])c4[H])c([H])c([H])c3C([H])([H])[H])nc3c([H])c([H])c([H])c([H])c32)n1


 38 42  0  0  0  0  0  0  0  0999 V2000
  -17.3669   13.1810  -21.7685 N   0  0  0  0  0  0  0  0  0  0  0  0
  -16.6778   12.9913  -22.5655 H   0  0  0  0  0  0  0  0  0  0  0  0
  -18.0915   14.3886  -21.9006 C   0  0  0  0  0  0  0  0  0  0  0  0
  -18.7788   15.0664  -20.9779 N   0  0  0  0  0  0  0  0  0  0  0  0
  -19.3401   16.2059  -21.4773 C   0  0  0  0  0  0  0  0  0  0  0  0
  -20.1146   17.2074  -20.9306 C   0  0  0  0  0  0  0  0  0  0  0  0
  -20.5376   18.2739  -21.7304 C   0  0  0  0  0  0  0  0  0  0  0  0
  -20.1481   18.2559  -23.0417 C   0  0  0  0  0  0  0  0  0  0  0  0
  -19.3704   17.2528  -23.5980 C   0  0  0  0  0  0  0  0  0  0  0  0
  -18.9490   16.1921  -22.7965 C   0  0  0  0  0  0  0  0  0  0  0  0
  -18.2011   15.1087  -23.0640 N   0  0  0  0  0  0  0  0  0  0  0  0
  -17.6150   14.7647  -24.3069 C   0  0  0  0  0  0  0  0  0  0  0  0
  -17.7791   13.5692  -24.9625 C   0  0  0  0  0  0  0  0  0  0  0  0
  -17.1877   13.2676  -26.1761 C   0  0  0  0  0  0  0  0  0  0  0  0
  -17.3586   12.0381  -26.8401 N   0  0  0  0  0  0  0  0  0  0  0  0
  -16.4067   14.2104  -26.7356 N   0  0  0  0  0  0  0  0  0  0  0  0
  -16.2193   15.3913  -26.1310 C   0  0  0  0  0  0  0  0  0  0  0  0
  -16.8011   15.6667  -24.9578 N   0  0  0  0  0  0  0  0  0  0  0  0
  -17.7622   11.2262  -26.3310 H   0  0  0  0  0  0  0  0  0  0  0  0
  -17.0888   11.9165  -27.8284 H   0  0  0  0  0  0  0  0  0  0  0  0
  -18.3263   11.2004  -18.7545 C   0  0  0  0  0  0  0  0  0  0  0  0
  -17.4231   10.1577  -18.9018 C   0  0  0  0  0  0  0  0  0  0  0  0
  -16.5245   10.1238  -19.9683 C   0  0  0  0  0  0  0  0  0  0  0  0
  -16.5393   11.1413  -20.8835 C   0  0  0  0  0  0  0  0  0  0  0  0
  -15.5434   11.0742  -22.0075 C   0  0  0  0  0  0  0  0  0  0  0  0
  -17.4297   12.1988  -20.7686 C   0  0  0  0  0  0  0  0  0  0  0  0
  -18.3106   12.2022  -19.6944 C   0  0  0  0  0  0  0  0  0  0  0  0
  -20.0285   11.1813  -16.6414 C   0  0  0  0  0  0  0  0  0  0  0  0
  -20.2866   10.1956  -15.8303 O   0  0  0  0  0  0  0  0  0  0  0  0
  -19.2266   11.1907  -17.6370 N   0  0  0  0  0  0  0  0  0  0  0  0
  -18.9858    9.8342  -17.4817 H   0  0  0  0  0  0  0  0  0  0  0  0
  -21.6798   15.7347  -17.7384 C   0  0  0  0  0  0  0  0  0  0  0  0
  -21.6317   14.5775  -16.7676 C   0  0  0  0  0  0  0  0  0  0  0  0
  -22.2781   14.5932  -15.5491 C   0  0  0  0  0  0  0  0  0  0  0  0
  -22.1910   13.4959  -14.6873 C   0  0  0  0  0  0  0  0  0  0  0  0
  -21.4612   12.3923  -15.0453 C   0  0  0  0  0  0  0  0  0  0  0  0
  -20.8324   12.3882  -16.2398 C   0  0  0  0  0  0  0  0  0  0  0  0
  -20.9009   13.4551  -17.1099 C   0  0  0  0  0  0  0  0  0  0  0  0
 32 33  1  0  0  0
 33 34  2  0  0  0
 34 35  1  0  0  0
 35 36  2  0  0  0
 36 37  1  0  0  0
 37 38  2  0  0  0
 37 28  1  0  0  0
 28 29  2  0  0  0
 28 30  1  0  0  0
 30 21  1  0  0  0
 21 22  2  0  0  0
 22 23  1  0  0  0
 23 24  2  0  0  0
 24 25  1  0  0  0
 24 26  1  0  0  0
 26  1  1  0  0  0
  1  3  1  0  0  0
  3  4  2  0  0  0
  4  5  1  0  0  0
  5  6  2  0  0  0
  6  7  1  0  0  0
  7  8  2  0  0  0
  8  9  1  0  0  0
  9 10  2  0  0  0
 10 11  1  0  0  0
 11 12  1  0  0  0
 12 13  2  0  0  0
 13 14  1  0  0  0
 14 15  1  0  0  0
 14 16  2  0  0  0
 16 17  1  0  0  0
 17 18  2  0  0  0
 26 27  2  0  0  0
 38 33  1  0  0  0
 27 21  1  0  0  0
 11  3  1  0  0  0
 18 12  1  0  0  0
 10  5  1  0  0  0
 30 31  1  0  0  0
  1  2  1  0  0  0
 15 19  1  0  0  0
 15 20  1  0  0  0
M  END
> <minimizedAffinity>
-10.04528

> <CNNscore>
0.1870997548

> <CNNaffinity>
6.8352127075

> <CNN_VS>
1.2788666487

> <CNNaffinity_variance>
0.3264109492

$$$$
[H]c1nc(N([H])[H])c([H])c(-n2c(N([H])c3c([H])c(N([H])C(=O)c4c([H])c([H])c([H])c(C([H])([H])[H])c4[H])c([H])c([H])c3C([H])([H])[H])nc3c([H])c([H])c([H])c([H])c32)n1


 38 42  0  0  0  0  0  0  0  0999 V2000
  -18.2761   15.8277  -20.8089 N   0  0  0  0  0  0  0  0  0  0  0  0
  -17.6947   16.2384  -21.6085 H   0  0  0  0  0  0  0  0  0  0  0  0
  -18.0047   14.4676  -20.5308 C   0  0  0  0  0  0  0  0  0  0  0  0
  -18.2662   13.7626  -19.4273 N   0  0  0  0  0  0  0  0  0  0  0  0
  -17.8668   12.4616  -19.5318 C   0  0  0  0  0  0  0  0  0  0  0  0
  -17.9224   11.3750  -18.6845 C   0  0  0  0  0  0  0  0  0  0  0  0
  -17.4170   10.1402  -19.1038 C   0  0  0  0  0  0  0  0  0  0  0  0
  -16.8823   10.0859  -20.3618 C   0  0  0  0  0  0  0  0  0  0  0  0
  -16.8227   11.1736  -21.2184 C   0  0  0  0  0  0  0  0  0  0  0  0
  -17.3296   12.4026  -20.7972 C   0  0  0  0  0  0  0  0  0  0  0  0
  -17.4049   13.5974  -21.4068 N   0  0  0  0  0  0  0  0  0  0  0  0
  -16.9645   13.9148  -22.7152 C   0  0  0  0  0  0  0  0  0  0  0  0
  -15.7375   14.4399  -23.0384 C   0  0  0  0  0  0  0  0  0  0  0  0
  -15.3429   14.7399  -24.3299 C   0  0  0  0  0  0  0  0  0  0  0  0
  -14.0840   15.2811  -24.6524 N   0  0  0  0  0  0  0  0  0  0  0  0
  -16.2242   14.4990  -25.3183 N   0  0  0  0  0  0  0  0  0  0  0  0
  -17.4325   13.9866  -25.0484 C   0  0  0  0  0  0  0  0  0  0  0  0
  -17.7967   13.7007  -23.7929 N   0  0  0  0  0  0  0  0  0  0  0  0
  -13.4849   15.6814  -23.9027 H   0  0  0  0  0  0  0  0  0  0  0  0
  -13.7353   15.2953  -25.6232 H   0  0  0  0  0  0  0  0  0  0  0  0
  -21.1851   18.0496  -20.0827 C   0  0  0  0  0  0  0  0  0  0  0  0
  -20.8288   18.4362  -18.7988 C   0  0  0  0  0  0  0  0  0  0  0  0
  -19.6558   17.9728  -18.2028 C   0  0  0  0  0  0  0  0  0  0  0  0
  -18.8454   17.1206  -18.9029 C   0  0  0  0  0  0  0  0  0  0  0  0
  -17.5831   16.6586  -18.2301 C   0  0  0  0  0  0  0  0  0  0  0  0
  -19.1712   16.7117  -20.1879 C   0  0  0  0  0  0  0  0  0  0  0  0
  -20.3461   17.1924  -20.7522 C   0  0  0  0  0  0  0  0  0  0  0  0
  -23.4826   19.0118  -21.1593 C   0  0  0  0  0  0  0  0  0  0  0  0
  -24.5998   19.2853  -20.5484 O   0  0  0  0  0  0  0  0  0  0  0  0
  -22.4000   18.5585  -20.6524 N   0  0  0  0  0  0  0  0  0  0  0  0
  -23.0155   18.4115  -19.4188 H   0  0  0  0  0  0  0  0  0  0  0  0
  -23.4220   17.3926  -25.8538 C   0  0  0  0  0  0  0  0  0  0  0  0
  -23.5979   18.5394  -24.8854 C   0  0  0  0  0  0  0  0  0  0  0  0
  -23.8675   19.8298  -25.2918 C   0  0  0  0  0  0  0  0  0  0  0  0
  -24.0119   20.8530  -24.3503 C   0  0  0  0  0  0  0  0  0  0  0  0
  -23.8866   20.5834  -23.0122 C   0  0  0  0  0  0  0  0  0  0  0  0
  -23.6223   19.3173  -22.6261 C   0  0  0  0  0  0  0  0  0  0  0  0
  -23.4753   18.2884  -23.5316 C   0  0  0  0  0  0  0  0  0  0  0  0
 32 33  1  0  0  0
 33 34  2  0  0  0
 34 35  1  0  0  0
 35 36  2  0  0  0
 36 37  1  0  0  0
 37 38  2  0  0  0
 37 28  1  0  0  0
 28 29  2  0  0  0
 28 30  1  0  0  0
 30 21  1  0  0  0
 21 22  2  0  0  0
 22 23  1  0  0  0
 23 24  2  0  0  0
 24 25  1  0  0  0
 24 26  1  0  0  0
 26  1  1  0  0  0
  1  3  1  0  0  0
  3  4  2  0  0  0
  4  5  1  0  0  0
  5  6  2  0  0  0
  6  7  1  0  0  0
  7  8  2  0  0  0
  8  9  1  0  0  0
  9 10  2  0  0  0
 10 11  1  0  0  0
 11 12  1  0  0  0
 12 13  2  0  0  0
 13 14  1  0  0  0
 14 15  1  0  0  0
 14 16  2  0  0  0
 16 17  1  0  0  0
 17 18  2  0  0  0
 26 27  2  0  0  0
 38 33  1  0  0  0
 27 21  1  0  0  0
 11  3  1  0  0  0
 18 12  1  0  0  0
 10  5  1  0  0  0
 30 31  1  0  0  0
  1  2  1  0  0  0
 15 19  1  0  0  0
 15 20  1  0  0  0
M  END
> <minimizedAffinity>
-9.38569

> <CNNscore>
0.1836479306

> <CNNaffinity>
6.9249906540

> <CNN_VS>
1.2717602253

> <CNNaffinity_variance>
0.0499128737

$$$$
[H]c1nc(N([H])[H])c([H])c(-n2c(N([H])c3c([H])c(N([H])C(=O)c4c([H])c([H])c([H])c(C([H])([H])[H])c4[H])c([H])c([H])c3C([H])([H])[H])nc3c([H])c([H])c([H])c([H])c32)n1


 38 42  0  0  0  0  0  0  0  0999 V2000
  -17.9864   16.5188  -22.3134 N   0  0  0  0  0  0  0  0  0  0  0  0
  -17.2373   17.2176  -22.0023 H   0  0  0  0  0  0  0  0  0  0  0  0
  -19.2791   17.0756  -22.4544 C   0  0  0  0  0  0  0  0  0  0  0  0
  -19.8332   17.6659  -23.5163 N   0  0  0  0  0  0  0  0  0  0  0  0
  -21.1151   18.0701  -23.2794 C   0  0  0  0  0  0  0  0  0  0  0  0
  -22.0729   18.7036  -24.0430 C   0  0  0  0  0  0  0  0  0  0  0  0
  -23.3287   18.9806  -23.4933 C   0  0  0  0  0  0  0  0  0  0  0  0
  -23.5340   18.5975  -22.1962 C   0  0  0  0  0  0  0  0  0  0  0  0
  -22.5764   17.9610  -21.4228 C   0  0  0  0  0  0  0  0  0  0  0  0
  -21.3260   17.6848  -21.9754 C   0  0  0  0  0  0  0  0  0  0  0  0
  -20.2341   17.0884  -21.4686 N   0  0  0  0  0  0  0  0  0  0  0  0
  -20.0835   16.5540  -20.1653 C   0  0  0  0  0  0  0  0  0  0  0  0
  -21.0186   15.8004  -19.4994 C   0  0  0  0  0  0  0  0  0  0  0  0
  -20.8367   15.2967  -18.2238 C   0  0  0  0  0  0  0  0  0  0  0  0
  -21.8020   14.5275  -17.5468 N   0  0  0  0  0  0  0  0  0  0  0  0
  -19.6702   15.5701  -17.6106 N   0  0  0  0  0  0  0  0  0  0  0  0
  -18.7294   16.3012  -18.2236 C   0  0  0  0  0  0  0  0  0  0  0  0
  -18.9217   16.7789  -19.4587 N   0  0  0  0  0  0  0  0  0  0  0  0
  -22.7797   14.4959  -17.8994 H   0  0  0  0  0  0  0  0  0  0  0  0
  -21.5657   13.9900  -16.6985 H   0  0  0  0  0  0  0  0  0  0  0  0
  -17.0894   12.9234  -21.8720 C   0  0  0  0  0  0  0  0  0  0  0  0
  -16.6518   12.6642  -23.1628 C   0  0  0  0  0  0  0  0  0  0  0  0
  -16.6535   13.6588  -24.1409 C   0  0  0  0  0  0  0  0  0  0  0  0
  -17.0967   14.9119  -23.8149 C   0  0  0  0  0  0  0  0  0  0  0  0
  -17.0660   15.9581  -24.8939 C   0  0  0  0  0  0  0  0  0  0  0  0
  -17.5430   15.2063  -22.5349 C   0  0  0  0  0  0  0  0  0  0  0  0
  -17.5275   14.1932  -21.5845 C   0  0  0  0  0  0  0  0  0  0  0  0
  -17.0391   10.9251  -20.0368 C   0  0  0  0  0  0  0  0  0  0  0  0
  -16.2442    9.8943  -19.9975 O   0  0  0  0  0  0  0  0  0  0  0  0
  -17.0631   11.8668  -20.9013 N   0  0  0  0  0  0  0  0  0  0  0  0
  -16.1033   11.2187  -21.6636 H   0  0  0  0  0  0  0  0  0  0  0  0
  -18.9242    8.3878  -16.2065 C   0  0  0  0  0  0  0  0  0  0  0  0
  -18.8887    9.6607  -17.0201 C   0  0  0  0  0  0  0  0  0  0  0  0
  -19.6815   10.7538  -16.7379 C   0  0  0  0  0  0  0  0  0  0  0  0
  -19.6119   11.9026  -17.5314 C   0  0  0  0  0  0  0  0  0  0  0  0
  -18.7541   11.9539  -18.5993 C   0  0  0  0  0  0  0  0  0  0  0  0
  -17.9836   10.8783  -18.8664 C   0  0  0  0  0  0  0  0  0  0  0  0
  -18.0304    9.7326  -18.1014 C   0  0  0  0  0  0  0  0  0  0  0  0
 32 33  1  0  0  0
 33 34  2  0  0  0
 34 35  1  0  0  0
 35 36  2  0  0  0
 36 37  1  0  0  0
 37 38  2  0  0  0
 37 28  1  0  0  0
 28 29  2  0  0  0
 28 30  1  0  0  0
 30 21  1  0  0  0
 21 22  2  0  0  0
 22 23  1  0  0  0
 23 24  2  0  0  0
 24 25  1  0  0  0
 24 26  1  0  0  0
 26  1  1  0  0  0
  1  3  1  0  0  0
  3  4  2  0  0  0
  4  5  1  0  0  0
  5  6  2  0  0  0
  6  7  1  0  0  0
  7  8  2  0  0  0
  8  9  1  0  0  0
  9 10  2  0  0  0
 10 11  1  0  0  0
 11 12  1  0  0  0
 12 13  2  0  0  0
 13 14  1  0  0  0
 14 15  1  0  0  0
 14 16  2  0  0  0
 16 17  1  0  0  0
 17 18  2  0  0  0
 26 27  2  0  0  0
 38 33  1  0  0  0
 27 21  1  0  0  0
 11  3  1  0  0  0
 18 12  1  0  0  0
 10  5  1  0  0  0
 30 31  1  0  0  0
  1  2  1  0  0  0
 15 19  1  0  0  0
 15 20  1  0  0  0
M  END
> <minimizedAffinity>
-9.75634

> <CNNscore>
0.1809486300

> <CNNaffinity>
7.1603980064

> <CNN_VS>
1.2956641912

> <CNNaffinity_variance>
0.2174895108

$$$$
[H]c1nc(N([H])[H])c([H])c(-n2c(N([H])c3c([H])c(N([H])C(=O)c4nn(C(C([H])([H])[H])(C([H])([H])[H])C([H])([H])[H])c(C([H])([H])N5C([H])([H])C([H])([H])N(C([H])([H])[H])C([H])([H])C5([H])[H])c4[H])c([H])c([H])c3C([H])([H])[H])nc3c([H])c([H])c([H])c([H])c32)n1


 48 53  0  0  0  0  0  0  0  0999 V2000
  -17.8561   11.1499  -19.0620 C   0  0  0  0  0  0  0  0  0  0  0  0
  -16.7219   10.4010  -19.2091 C   0  0  0  0  0  0  0  0  0  0  0  0
  -15.9122   10.5031  -20.3536 C   0  0  0  0  0  0  0  0  0  0  0  0
  -16.2755   11.3724  -21.3346 C   0  0  0  0  0  0  0  0  0  0  0  0
  -15.4553   11.5119  -22.5508 C   0  0  0  0  0  0  0  0  0  0  0  0
  -17.4351   12.1584  -21.2180 C   0  0  0  0  0  0  0  0  0  0  0  0
  -18.2163   12.0506  -20.0989 C   0  0  0  0  0  0  0  0  0  0  0  0
  -19.1287    9.9611  -17.2086 C   0  0  0  0  0  0  0  0  0  0  0  0
  -18.8222    8.7938  -17.5592 O   0  0  0  0  0  0  0  0  0  0  0  0
  -18.6662   11.0779  -17.9173 N   0  0  0  0  0  0  0  0  0  0  0  0
  -18.9856   12.0221  -17.5267 H   0  0  0  0  0  0  0  0  0  0  0  0
  -20.7680   10.5064  -13.9697 C   0  0  0  0  0  0  0  0  0  0  0  0
  -19.6330   10.5034  -14.7469 C   0  0  0  0  0  0  0  0  0  0  0  0
  -19.9998   10.1239  -16.0148 C   0  0  0  0  0  0  0  0  0  0  0  0
  -21.3192    9.9177  -15.9503 N   0  0  0  0  0  0  0  0  0  0  0  0
  -21.8052   10.1369  -14.7481 N   0  0  0  0  0  0  0  0  0  0  0  0
  -23.2104   10.0076  -14.3337 C   0  0  0  0  0  0  0  0  0  0  0  0
  -23.8268   11.3379  -14.0121 C   0  0  0  0  0  0  0  0  0  0  0  0
  -23.3909    8.9934  -13.2346 C   0  0  0  0  0  0  0  0  0  0  0  0
  -23.9827    9.4624  -15.5442 C   0  0  0  0  0  0  0  0  0  0  0  0
  -20.8806   10.8502  -12.5291 C   0  0  0  0  0  0  0  0  0  0  0  0
  -16.8747    9.4876   -9.3473 C   0  0  0  0  0  0  0  0  0  0  0  0
  -18.2127    9.2537   -9.7842 N   0  0  0  0  0  0  0  0  0  0  0  0
  -18.3727    8.6474  -11.0571 C   0  0  0  0  0  0  0  0  0  0  0  0
  -19.6981    9.0452  -11.6548 C   0  0  0  0  0  0  0  0  0  0  0  0
  -19.7113   10.5010  -11.7541 N   0  0  0  0  0  0  0  0  0  0  0  0
  -19.7425   11.0931  -10.4258 C   0  0  0  0  0  0  0  0  0  0  0  0
  -19.1882   10.1961   -9.3743 C   0  0  0  0  0  0  0  0  0  0  0  0
  -17.7095   13.0158  -22.2912 N   0  0  0  0  0  0  0  0  0  0  0  0
  -17.6689   12.6482  -23.2989 H   0  0  0  0  0  0  0  0  0  0  0  0
  -18.0542   14.3869  -22.2176 C   0  0  0  0  0  0  0  0  0  0  0  0
  -18.9714   15.0317  -21.4820 N   0  0  0  0  0  0  0  0  0  0  0  0
  -19.0001   16.3362  -21.6847 C   0  0  0  0  0  0  0  0  0  0  0  0
  -19.7312   17.4109  -21.1954 C   0  0  0  0  0  0  0  0  0  0  0  0
  -19.5071   18.7041  -21.6282 C   0  0  0  0  0  0  0  0  0  0  0  0
  -18.5434   18.9417  -22.5623 C   0  0  0  0  0  0  0  0  0  0  0  0
  -17.8180   17.8772  -23.0483 C   0  0  0  0  0  0  0  0  0  0  0  0
  -18.0246   16.5806  -22.6301 C   0  0  0  0  0  0  0  0  0  0  0  0
  -17.4712   15.4028  -22.9357 N   0  0  0  0  0  0  0  0  0  0  0  0
  -16.4235   15.2576  -23.8792 C   0  0  0  0  0  0  0  0  0  0  0  0
  -16.7232   15.4063  -25.2198 C   0  0  0  0  0  0  0  0  0  0  0  0
  -15.7279   15.2703  -26.1513 C   0  0  0  0  0  0  0  0  0  0  0  0
  -16.0303   15.4210  -27.5226 N   0  0  0  0  0  0  0  0  0  0  0  0
  -14.4821   14.9931  -25.7096 N   0  0  0  0  0  0  0  0  0  0  0  0
  -14.2035   14.8509  -24.4046 C   0  0  0  0  0  0  0  0  0  0  0  0
  -15.1626   14.9797  -23.4763 N   0  0  0  0  0  0  0  0  0  0  0  0
  -16.5212   14.6651  -28.0253 H   0  0  0  0  0  0  0  0  0  0  0  0
  -15.7582   16.2848  -28.0124 H   0  0  0  0  0  0  0  0  0  0  0  0
 22 23  1  0  0  0
 23 24  1  0  0  0
 24 25  1  0  0  0
 25 26  1  0  0  0
 26 21  1  0  0  0
 21 12  1  0  0  0
 12 13  2  0  0  0
 13 14  1  0  0  0
 14 15  2  0  0  0
 15 16  1  0  0  0
 16 17  1  0  0  0
 17 18  1  0  0  0
 17 19  1  0  0  0
 17 20  1  0  0  0
 14  8  1  0  0  0
  8  9  2  0  0  0
  8 10  1  0  0  0
 10  1  1  0  0  0
  1  2  2  0  0  0
  2  3  1  0  0  0
  3  4  2  0  0  0
  4  5  1  0  0  0
  4  6  1  0  0  0
  6 29  1  0  0  0
 29 31  1  0  0  0
 31 32  2  0  0  0
 32 33  1  0  0  0
 33 34  2  0  0  0
 34 35  1  0  0  0
 35 36  2  0  0  0
 36 37  1  0  0  0
 37 38  2  0  0  0
 38 39  1  0  0  0
 39 40  1  0  0  0
 40 41  2  0  0  0
 41 42  1  0  0  0
 42 43  1  0  0  0
 42 44  2  0  0  0
 44 45  1  0  0  0
 45 46  2  0  0  0
  6  7  2  0  0  0
 26 27  1  0  0  0
 27 28  1  0  0  0
 28 23  1  0  0  0
 16 12  1  0  0  0
  7  1  1  0  0  0
 39 31  1  0  0  0
 46 40  1  0  0  0
 38 33  1  0  0  0
 10 11  1  0  0  0
 29 30  1  0  0  0
 43 47  1  0  0  0
 43 48  1  0  0  0
M  END
> <minimizedAffinity>
-9.88331

> <CNNscore>
0.1750739515

> <CNNaffinity>
6.9080224037

> <CNN_VS>
1.2094147205

> <CNNaffinity_variance>
0.4446891844

$$$$
[H]c1nc(N([H])[H])c([H])c(-n2c(N([H])c3c([H])c(N([H])C(=O)c4nn(C(C([H])([H])[H])(C([H])([H])[H])C([H])([H])[H])c(C([H])([H])N5C([H])([H])C([H])([H])N(C([H])([H])[H])C([H])([H])C5([H])[H])c4[H])c([H])c([H])c3C([H])([H])[H])nc3c([H])c([H])c([H])c([H])c32)n1


 48 53  0  0  0  0  0  0  0  0999 V2000
  -17.6217   11.0742  -19.7375 C   0  0  0  0  0  0  0  0  0  0  0  0
  -16.4357   10.3983  -19.8132 C   0  0  0  0  0  0  0  0  0  0  0  0
  -15.5432   10.5896  -20.8822 C   0  0  0  0  0  0  0  0  0  0  0  0
  -15.8777   11.4720  -21.8617 C   0  0  0  0  0  0  0  0  0  0  0  0
  -14.9712   11.7039  -23.0000 C   0  0  0  0  0  0  0  0  0  0  0  0
  -17.0887   12.1845  -21.8172 C   0  0  0  0  0  0  0  0  0  0  0  0
  -17.9505   11.9902  -20.7714 C   0  0  0  0  0  0  0  0  0  0  0  0
  -18.9194   11.8254  -17.6832 C   0  0  0  0  0  0  0  0  0  0  0  0
  -18.4813   13.0033  -17.6680 O   0  0  0  0  0  0  0  0  0  0  0  0
  -18.5165   10.9129  -18.6673 N   0  0  0  0  0  0  0  0  0  0  0  0
  -18.9563    9.9403  -18.5856 H   0  0  0  0  0  0  0  0  0  0  0  0
  -21.1643   10.2715  -15.2296 C   0  0  0  0  0  0  0  0  0  0  0  0
  -20.2358   10.1562  -16.2380 C   0  0  0  0  0  0  0  0  0  0  0  0
  -19.8817   11.4261  -16.6226 C   0  0  0  0  0  0  0  0  0  0  0  0
  -20.5994   12.2409  -15.8425 N   0  0  0  0  0  0  0  0  0  0  0  0
  -21.3713   11.5847  -15.0040 N   0  0  0  0  0  0  0  0  0  0  0  0
  -22.2821   12.1708  -14.0089 C   0  0  0  0  0  0  0  0  0  0  0  0
  -21.7467   12.0435  -12.6123 C   0  0  0  0  0  0  0  0  0  0  0  0
  -23.6903   11.6548  -14.1494 C   0  0  0  0  0  0  0  0  0  0  0  0
  -22.3515   13.6768  -14.3023 C   0  0  0  0  0  0  0  0  0  0  0  0
  -21.8423    9.1759  -14.4904 C   0  0  0  0  0  0  0  0  0  0  0  0
  -19.3663    4.5121  -14.1077 C   0  0  0  0  0  0  0  0  0  0  0  0
  -20.5718    5.2626  -13.9682 N   0  0  0  0  0  0  0  0  0  0  0  0
  -21.2298    5.6437  -15.1663 C   0  0  0  0  0  0  0  0  0  0  0  0
  -22.0324    6.8988  -14.9369 C   0  0  0  0  0  0  0  0  0  0  0  0
  -21.1052    7.9322  -14.4880 N   0  0  0  0  0  0  0  0  0  0  0  0
  -20.5938    7.6059  -13.1658 C   0  0  0  0  0  0  0  0  0  0  0  0
  -20.6440    6.1483  -12.8647 C   0  0  0  0  0  0  0  0  0  0  0  0
  -17.3265   13.0637  -22.8816 N   0  0  0  0  0  0  0  0  0  0  0  0
  -17.1859   12.7352  -23.8938 H   0  0  0  0  0  0  0  0  0  0  0  0
  -17.7537   14.4104  -22.7928 C   0  0  0  0  0  0  0  0  0  0  0  0
  -18.7182   14.9878  -22.0618 N   0  0  0  0  0  0  0  0  0  0  0  0
  -18.8220   16.2912  -22.2455 C   0  0  0  0  0  0  0  0  0  0  0  0
  -19.6231   17.3126  -21.7514 C   0  0  0  0  0  0  0  0  0  0  0  0
  -19.4706   18.6235  -22.1616 C   0  0  0  0  0  0  0  0  0  0  0  0
  -18.5098   18.9328  -23.0773 C   0  0  0  0  0  0  0  0  0  0  0  0
  -17.7151   17.9212  -23.5681 C   0  0  0  0  0  0  0  0  0  0  0  0
  -17.8496   16.6082  -23.1723 C   0  0  0  0  0  0  0  0  0  0  0  0
  -17.2224   15.4704  -23.4869 N   0  0  0  0  0  0  0  0  0  0  0  0
  -16.1545   15.4028  -24.4165 C   0  0  0  0  0  0  0  0  0  0  0  0
  -16.4318   15.6295  -25.7510 C   0  0  0  0  0  0  0  0  0  0  0  0
  -15.4167   15.5694  -26.6692 C   0  0  0  0  0  0  0  0  0  0  0  0
  -15.6960   15.7999  -28.0342 N   0  0  0  0  0  0  0  0  0  0  0  0
  -14.1745   15.2872  -26.2207 N   0  0  0  0  0  0  0  0  0  0  0  0
  -13.9179   15.0688  -24.9217 C   0  0  0  0  0  0  0  0  0  0  0  0
  -14.8964   15.1226  -24.0066 N   0  0  0  0  0  0  0  0  0  0  0  0
  -16.1631   15.0683  -28.5925 H   0  0  0  0  0  0  0  0  0  0  0  0
  -15.4311   16.6972  -28.4640 H   0  0  0  0  0  0  0  0  0  0  0  0
 22 23  1  0  0  0
 23 24  1  0  0  0
 24 25  1  0  0  0
 25 26  1  0  0  0
 26 21  1  0  0  0
 21 12  1  0  0  0
 12 13  2  0  0  0
 13 14  1  0  0  0
 14 15  2  0  0  0
 15 16  1  0  0  0
 16 17  1  0  0  0
 17 18  1  0  0  0
 17 19  1  0  0  0
 17 20  1  0  0  0
 14  8  1  0  0  0
  8  9  2  0  0  0
  8 10  1  0  0  0
 10  1  1  0  0  0
  1  2  2  0  0  0
  2  3  1  0  0  0
  3  4  2  0  0  0
  4  5  1  0  0  0
  4  6  1  0  0  0
  6 29  1  0  0  0
 29 31  1  0  0  0
 31 32  2  0  0  0
 32 33  1  0  0  0
 33 34  2  0  0  0
 34 35  1  0  0  0
 35 36  2  0  0  0
 36 37  1  0  0  0
 37 38  2  0  0  0
 38 39  1  0  0  0
 39 40  1  0  0  0
 40 41  2  0  0  0
 41 42  1  0  0  0
 42 43  1  0  0  0
 42 44  2  0  0  0
 44 45  1  0  0  0
 45 46  2  0  0  0
  6  7  2  0  0  0
 26 27  1  0  0  0
 27 28  1  0  0  0
 28 23  1  0  0  0
 16 12  1  0  0  0
  7  1  1  0  0  0
 39 31  1  0  0  0
 46 40  1  0  0  0
 38 33  1  0  0  0
 10 11  1  0  0  0
 29 30  1  0  0  0
 43 47  1  0  0  0
 43 48  1  0  0  0
M  END
> <minimizedAffinity>
-9.46142

> <CNNscore>
0.1608803421

> <CNNaffinity>
7.0013899803

> <CNN_VS>
1.1263860464

> <CNNaffinity_variance>
0.6347571015

$$$$
[H]c1nc(N([H])[H])c([H])c(-n2c(N([H])c3c([H])c(N([H])C(=O)c4nn(C(C([H])([H])[H])(C([H])([H])[H])C([H])([H])[H])c(C([H])([H])N5C([H])([H])C([H])([H])N(C([H])([H])[H])C([H])([H])C5([H])[H])c4[H])c([H])c([H])c3C([H])([H])[H])nc3c([H])c([H])c([H])c([H])c32)n1


 48 53  0  0  0  0  0  0  0  0999 V2000
  -18.4875   12.9711  -18.5921 C   0  0  0  0  0  0  0  0  0  0  0  0
  -17.6794   12.0376  -18.0049 C   0  0  0  0  0  0  0  0  0  0  0  0
  -16.8709   11.1761  -18.7667 C   0  0  0  0  0  0  0  0  0  0  0  0
  -16.9009   11.2819  -20.1224 C   0  0  0  0  0  0  0  0  0  0  0  0
  -16.0688   10.3995  -20.9593 C   0  0  0  0  0  0  0  0  0  0  0  0
  -17.7196   12.2296  -20.7608 C   0  0  0  0  0  0  0  0  0  0  0  0
  -18.5030   13.0635  -20.0089 C   0  0  0  0  0  0  0  0  0  0  0  0
  -18.9269   14.9886  -17.1074 C   0  0  0  0  0  0  0  0  0  0  0  0
  -17.7317   15.3710  -17.0390 O   0  0  0  0  0  0  0  0  0  0  0  0
  -19.2859   13.8547  -17.8481 N   0  0  0  0  0  0  0  0  0  0  0  0
  -20.3314   13.6248  -17.8399 H   0  0  0  0  0  0  0  0  0  0  0  0
  -21.8641   16.5932  -15.5998 C   0  0  0  0  0  0  0  0  0  0  0  0
  -21.3194   15.6442  -16.4333 C   0  0  0  0  0  0  0  0  0  0  0  0
  -19.9537   15.7775  -16.3768 C   0  0  0  0  0  0  0  0  0  0  0  0
  -19.7355   16.7848  -15.5252 N   0  0  0  0  0  0  0  0  0  0  0  0
  -20.8512   17.2903  -15.0464 N   0  0  0  0  0  0  0  0  0  0  0  0
  -20.9705   18.4000  -14.0884 C   0  0  0  0  0  0  0  0  0  0  0  0
  -21.9432   18.0908  -12.9877 C   0  0  0  0  0  0  0  0  0  0  0  0
  -21.2491   19.7147  -14.7689 C   0  0  0  0  0  0  0  0  0  0  0  0
  -19.5995   18.5543  -13.4137 C   0  0  0  0  0  0  0  0  0  0  0  0
  -23.3025   16.8416  -15.3247 C   0  0  0  0  0  0  0  0  0  0  0  0
  -25.8133   20.3268  -18.4195 C   0  0  0  0  0  0  0  0  0  0  0  0
  -25.8765   19.3898  -17.3452 N   0  0  0  0  0  0  0  0  0  0  0  0
  -25.2998   19.7910  -16.1123 C   0  0  0  0  0  0  0  0  0  0  0  0
  -24.8511   18.5802  -15.3347 C   0  0  0  0  0  0  0  0  0  0  0  0
  -23.8877   17.8633  -16.1636 N   0  0  0  0  0  0  0  0  0  0  0  0
  -24.5521   17.2967  -17.3271 C   0  0  0  0  0  0  0  0  0  0  0  0
  -25.8019   18.0185  -17.6939 C   0  0  0  0  0  0  0  0  0  0  0  0
  -17.6691   12.2452  -22.1606 N   0  0  0  0  0  0  0  0  0  0  0  0
  -18.2703   11.5616  -22.7293 H   0  0  0  0  0  0  0  0  0  0  0  0
  -16.8815   13.0953  -22.9737 C   0  0  0  0  0  0  0  0  0  0  0  0
  -15.9761   12.8226  -23.9245 N   0  0  0  0  0  0  0  0  0  0  0  0
  -15.4399   13.8953  -24.4770 C   0  0  0  0  0  0  0  0  0  0  0  0
  -14.4967   14.1492  -25.4645 C   0  0  0  0  0  0  0  0  0  0  0  0
  -14.1445   15.4363  -25.8242 C   0  0  0  0  0  0  0  0  0  0  0  0
  -14.7337   16.4933  -25.1972 C   0  0  0  0  0  0  0  0  0  0  0  0
  -15.6686   16.2430  -24.2181 C   0  0  0  0  0  0  0  0  0  0  0  0
  -16.0348   14.9682  -23.8447 C   0  0  0  0  0  0  0  0  0  0  0  0
  -16.8929   14.4689  -22.9496 N   0  0  0  0  0  0  0  0  0  0  0  0
  -17.6933   15.2779  -22.1046 C   0  0  0  0  0  0  0  0  0  0  0  0
  -17.0806   15.9389  -21.0573 C   0  0  0  0  0  0  0  0  0  0  0  0
  -17.8327   16.7266  -20.2262 C   0  0  0  0  0  0  0  0  0  0  0  0
  -17.2104   17.4034  -19.1543 N   0  0  0  0  0  0  0  0  0  0  0  0
  -19.1571   16.8218  -20.4729 N   0  0  0  0  0  0  0  0  0  0  0  0
  -19.7407   16.1748  -21.4935 C   0  0  0  0  0  0  0  0  0  0  0  0
  -19.0234   15.3986  -22.3187 N   0  0  0  0  0  0  0  0  0  0  0  0
  -16.9341   16.8799  -18.3088 H   0  0  0  0  0  0  0  0  0  0  0  0
  -17.0365   18.4159  -19.2232 H   0  0  0  0  0  0  0  0  0  0  0  0
 22 23  1  0  0  0
 23 24  1  0  0  0
 24 25  1  0  0  0
 25 26  1  0  0  0
 26 21  1  0  0  0
 21 12  1  0  0  0
 12 13  2  0  0  0
 13 14  1  0  0  0
 14 15  2  0  0  0
 15 16  1  0  0  0
 16 17  1  0  0  0
 17 18  1  0  0  0
 17 19  1  0  0  0
 17 20  1  0  0  0
 14  8  1  0  0  0
  8  9  2  0  0  0
  8 10  1  0  0  0
 10  1  1  0  0  0
  1  2  2  0  0  0
  2  3  1  0  0  0
  3  4  2  0  0  0
  4  5  1  0  0  0
  4  6  1  0  0  0
  6 29  1  0  0  0
 29 31  1  0  0  0
 31 32  2  0  0  0
 32 33  1  0  0  0
 33 34  2  0  0  0
 34 35  1  0  0  0
 35 36  2  0  0  0
 36 37  1  0  0  0
 37 38  2  0  0  0
 38 39  1  0  0  0
 39 40  1  0  0  0
 40 41  2  0  0  0
 41 42  1  0  0  0
 42 43  1  0  0  0
 42 44  2  0  0  0
 44 45  1  0  0  0
 45 46  2  0  0  0
  6  7  2  0  0  0
 26 27  1  0  0  0
 27 28  1  0  0  0
 28 23  1  0  0  0
 16 12  1  0  0  0
  7  1  1  0  0  0
 39 31  1  0  0  0
 46 40  1  0  0  0
 38 33  1  0  0  0
 10 11  1  0  0  0
 29 30  1  0  0  0
 43 47  1  0  0  0
 43 48  1  0  0  0
M  END
> <minimizedAffinity>
-8.63502

> <CNNscore>
0.1588052660

> <CNNaffinity>
7.3673515320

> <CNN_VS>
1.1699742079

> <CNNaffinity_variance>
0.1259215623

$$$$
[H]c1nc(N([H])[H])c([H])c(-n2c(N([H])c3c([H])c(N([H])C(=O)c4nn(C(C([H])([H])[H])(C([H])([H])[H])C([H])([H])[H])c(C([H])([H])N5C([H])([H])C([H])([H])N(C([H])([H])[H])C([H])([H])C5([H])[H])c4[H])c([H])c([H])c3C([H])([H])[H])nc3c([H])c([H])c([H])c([H])c32)n1


 48 53  0  0  0  0  0  0  0  0999 V2000
  -17.7946   11.3796  -19.1892 C   0  0  0  0  0  0  0  0  0  0  0  0
  -16.6926   10.5787  -19.3056 C   0  0  0  0  0  0  0  0  0  0  0  0
  -15.8802   10.6020  -20.4526 C   0  0  0  0  0  0  0  0  0  0  0  0
  -16.2077   11.4465  -21.4672 C   0  0  0  0  0  0  0  0  0  0  0  0
  -15.3832   11.5039  -22.6872 C   0  0  0  0  0  0  0  0  0  0  0  0
  -17.3334   12.2842  -21.3827 C   0  0  0  0  0  0  0  0  0  0  0  0
  -18.1176   12.2531  -20.2610 C   0  0  0  0  0  0  0  0  0  0  0  0
  -19.1204   10.3184  -17.2959 C   0  0  0  0  0  0  0  0  0  0  0  0
  -18.8698    9.1263  -17.6050 O   0  0  0  0  0  0  0  0  0  0  0  0
  -18.6061   11.3864  -18.0432 N   0  0  0  0  0  0  0  0  0  0  0  0
  -18.8801   12.3578  -17.6865 H   0  0  0  0  0  0  0  0  0  0  0  0
  -21.2299   11.5067  -14.5369 C   0  0  0  0  0  0  0  0  0  0  0  0
  -20.5093   11.7578  -15.6813 C   0  0  0  0  0  0  0  0  0  0  0  0
  -19.9817   10.5643  -16.1093 C   0  0  0  0  0  0  0  0  0  0  0  0
  -20.3997    9.6580  -15.2198 N   0  0  0  0  0  0  0  0  0  0  0  0
  -21.1436   10.1871  -14.2731 N   0  0  0  0  0  0  0  0  0  0  0  0
  -21.7651    9.4754  -13.1459 C   0  0  0  0  0  0  0  0  0  0  0  0
  -23.2584    9.4041  -13.2802 C   0  0  0  0  0  0  0  0  0  0  0  0
  -21.3185   10.0162  -11.8128 C   0  0  0  0  0  0  0  0  0  0  0  0
  -21.2629    8.0251  -13.2045 C   0  0  0  0  0  0  0  0  0  0  0  0
  -21.9858   12.4805  -13.7081 C   0  0  0  0  0  0  0  0  0  0  0  0
  -25.8896   15.2256  -15.9997 C   0  0  0  0  0  0  0  0  0  0  0  0
  -24.9818   15.0852  -14.9078 N   0  0  0  0  0  0  0  0  0  0  0  0
  -23.6216   15.3985  -15.1631 C   0  0  0  0  0  0  0  0  0  0  0  0
  -22.7297   14.6250  -14.2260 C   0  0  0  0  0  0  0  0  0  0  0  0
  -22.9978   13.2069  -14.4415 N   0  0  0  0  0  0  0  0  0  0  0  0
  -24.3400   12.8768  -13.9880 C   0  0  0  0  0  0  0  0  0  0  0  0
  -25.2583   14.0491  -13.9818 C   0  0  0  0  0  0  0  0  0  0  0  0
  -17.5725   13.1095  -22.4889 N   0  0  0  0  0  0  0  0  0  0  0  0
  -17.4644   12.7219  -23.4841 H   0  0  0  0  0  0  0  0  0  0  0  0
  -17.9615   14.4705  -22.4662 C   0  0  0  0  0  0  0  0  0  0  0  0
  -18.9284   15.1045  -21.7870 N   0  0  0  0  0  0  0  0  0  0  0  0
  -18.9880   16.4018  -22.0253 C   0  0  0  0  0  0  0  0  0  0  0  0
  -19.7717   17.4651  -21.5956 C   0  0  0  0  0  0  0  0  0  0  0  0
  -19.5687   18.7533  -22.0529 C   0  0  0  0  0  0  0  0  0  0  0  0
  -18.5739   18.9974  -22.9519 C   0  0  0  0  0  0  0  0  0  0  0  0
  -17.7965   17.9444  -23.3788 C   0  0  0  0  0  0  0  0  0  0  0  0
  -17.9811   16.6529  -22.9353 C   0  0  0  0  0  0  0  0  0  0  0  0
  -17.3797   15.4857  -23.1861 N   0  0  0  0  0  0  0  0  0  0  0  0
  -16.2888   15.3498  -24.0809 C   0  0  0  0  0  0  0  0  0  0  0  0
  -16.5007   15.6215  -25.4190 C   0  0  0  0  0  0  0  0  0  0  0  0
  -15.4623   15.4970  -26.3039 C   0  0  0  0  0  0  0  0  0  0  0  0
  -15.6749   15.7732  -27.6724 N   0  0  0  0  0  0  0  0  0  0  0  0
  -14.2626   15.1090  -25.8202 N   0  0  0  0  0  0  0  0  0  0  0  0
  -14.0693   14.8478  -24.5181 C   0  0  0  0  0  0  0  0  0  0  0  0
  -15.0718   14.9632  -23.6351 N   0  0  0  0  0  0  0  0  0  0  0  0
  -16.1786   15.0911  -28.2608 H   0  0  0  0  0  0  0  0  0  0  0  0
  -15.3252   16.6540  -28.0748 H   0  0  0  0  0  0  0  0  0  0  0  0
 22 23  1  0  0  0
 23 24  1  0  0  0
 24 25  1  0  0  0
 25 26  1  0  0  0
 26 21  1  0  0  0
 21 12  1  0  0  0
 12 13  2  0  0  0
 13 14  1  0  0  0
 14 15  2  0  0  0
 15 16  1  0  0  0
 16 17  1  0  0  0
 17 18  1  0  0  0
 17 19  1  0  0  0
 17 20  1  0  0  0
 14  8  1  0  0  0
  8  9  2  0  0  0
  8 10  1  0  0  0
 10  1  1  0  0  0
  1  2  2  0  0  0
  2  3  1  0  0  0
  3  4  2  0  0  0
  4  5  1  0  0  0
  4  6  1  0  0  0
  6 29  1  0  0  0
 29 31  1  0  0  0
 31 32  2  0  0  0
 32 33  1  0  0  0
 33 34  2  0  0  0
 34 35  1  0  0  0
 35 36  2  0  0  0
 36 37  1  0  0  0
 37 38  2  0  0  0
 38 39  1  0  0  0
 39 40  1  0  0  0
 40 41  2  0  0  0
 41 42  1  0  0  0
 42 43  1  0  0  0
 42 44  2  0  0  0
 44 45  1  0  0  0
 45 46  2  0  0  0
  6  7  2  0  0  0
 26 27  1  0  0  0
 27 28  1  0  0  0
 28 23  1  0  0  0
 16 12  1  0  0  0
  7  1  1  0  0  0
 39 31  1  0  0  0
 46 40  1  0  0  0
 38 33  1  0  0  0
 10 11  1  0  0  0
 29 30  1  0  0  0
 43 47  1  0  0  0
 43 48  1  0  0  0
M  END
> <minimizedAffinity>
-9.42003

> <CNNscore>
0.1470597386

> <CNNaffinity>
7.0490875244

> <CNN_VS>
1.0366369486

> <CNNaffinity_variance>
0.3980818391

$$$$
[H]c1nc(N([H])[H])c([H])c(-n2c(N([H])c3c([H])c(N([H])C(=O)c4nn(C(C([H])([H])[H])(C([H])([H])[H])C([H])([H])[H])c(C([H])([H])N5C([H])([H])C([H])([H])N(C([H])([H])[H])C([H])([H])C5([H])[H])c4[H])c([H])c([H])c3C([H])([H])[H])nc3c([H])c([H])c([H])c([H])c32)n1


 48 53  0  0  0  0  0  0  0  0999 V2000
  -18.7833   12.8515  -18.6659 C   0  0  0  0  0  0  0  0  0  0  0  0
  -17.9380   11.9941  -18.0182 C   0  0  0  0  0  0  0  0  0  0  0  0
  -17.0258   11.1860  -18.7189 C   0  0  0  0  0  0  0  0  0  0  0  0
  -16.9915   11.2664  -20.0763 C   0  0  0  0  0  0  0  0  0  0  0  0
  -16.0503   10.4380  -20.8503 C   0  0  0  0  0  0  0  0  0  0  0  0
  -17.8458   12.1363  -20.7759 C   0  0  0  0  0  0  0  0  0  0  0  0
  -18.7303   12.9187  -20.0832 C   0  0  0  0  0  0  0  0  0  0  0  0
  -19.4449   14.7467  -17.1043 C   0  0  0  0  0  0  0  0  0  0  0  0
  -18.2742   15.1058  -16.8214 O   0  0  0  0  0  0  0  0  0  0  0  0
  -19.6862   13.6822  -17.9829 N   0  0  0  0  0  0  0  0  0  0  0  0
  -20.7207   13.4668  -18.1546 H   0  0  0  0  0  0  0  0  0  0  0  0
  -22.5804   16.2429  -15.9191 C   0  0  0  0  0  0  0  0  0  0  0  0
  -21.9156   15.3423  -16.7186 C   0  0  0  0  0  0  0  0  0  0  0  0
  -20.5714   15.4872  -16.4775 C   0  0  0  0  0  0  0  0  0  0  0  0
  -20.4832   16.4532  -15.5573 N   0  0  0  0  0  0  0  0  0  0  0  0
  -21.6603   16.9223  -15.2050 N   0  0  0  0  0  0  0  0  0  0  0  0
  -21.9223   17.9815  -14.2188 C   0  0  0  0  0  0  0  0  0  0  0  0
  -22.7703   17.4932  -13.0806 C   0  0  0  0  0  0  0  0  0  0  0  0
  -22.4585   19.2363  -14.8570 C   0  0  0  0  0  0  0  0  0  0  0  0
  -20.5669   18.3638  -13.6061 C   0  0  0  0  0  0  0  0  0  0  0  0
  -24.0464   16.4619  -15.8232 C   0  0  0  0  0  0  0  0  0  0  0  0
  -27.0700   12.1350  -15.4196 C   0  0  0  0  0  0  0  0  0  0  0  0
  -26.9498   13.5501  -15.2822 N   0  0  0  0  0  0  0  0  0  0  0  0
  -26.9164   14.3082  -16.4812 C   0  0  0  0  0  0  0  0  0  0  0  0
  -26.1630   15.5944  -16.2573 C   0  0  0  0  0  0  0  0  0  0  0  0
  -24.8183   15.2396  -15.8153 N   0  0  0  0  0  0  0  0  0  0  0  0
  -24.8689   14.6370  -14.4923 C   0  0  0  0  0  0  0  0  0  0  0  0
  -26.1879   14.0186  -14.1833 C   0  0  0  0  0  0  0  0  0  0  0  0
  -17.7221   12.1324  -22.1712 N   0  0  0  0  0  0  0  0  0  0  0  0
  -18.2570   11.4098  -22.7578 H   0  0  0  0  0  0  0  0  0  0  0  0
  -16.9366   13.0090  -22.9577 C   0  0  0  0  0  0  0  0  0  0  0  0
  -16.0472   12.7688  -23.9321 N   0  0  0  0  0  0  0  0  0  0  0  0
  -15.5071   13.8590  -24.4451 C   0  0  0  0  0  0  0  0  0  0  0  0
  -14.5749   14.1461  -25.4338 C   0  0  0  0  0  0  0  0  0  0  0  0
  -14.2139   15.4440  -25.7423 C   0  0  0  0  0  0  0  0  0  0  0  0
  -14.7831   16.4787  -25.0620 C   0  0  0  0  0  0  0  0  0  0  0  0
  -15.7072   16.1955  -24.0815 C   0  0  0  0  0  0  0  0  0  0  0  0
  -16.0819   14.9094  -23.7585 C   0  0  0  0  0  0  0  0  0  0  0  0
  -16.9331   14.3803  -22.8739 N   0  0  0  0  0  0  0  0  0  0  0  0
  -17.7132   15.1599  -21.9836 C   0  0  0  0  0  0  0  0  0  0  0  0
  -17.0899   15.7221  -20.8861 C   0  0  0  0  0  0  0  0  0  0  0  0
  -17.8224   16.4795  -20.0105 C   0  0  0  0  0  0  0  0  0  0  0  0
  -17.1892   17.0554  -18.8872 N   0  0  0  0  0  0  0  0  0  0  0  0
  -19.1386   16.6437  -20.2645 N   0  0  0  0  0  0  0  0  0  0  0  0
  -19.7327   16.0923  -21.3340 C   0  0  0  0  0  0  0  0  0  0  0  0
  -19.0345   15.3474  -22.2034 N   0  0  0  0  0  0  0  0  0  0  0  0
  -16.9450   16.4642  -18.0772 H   0  0  0  0  0  0  0  0  0  0  0  0
  -16.9755   18.0626  -18.8834 H   0  0  0  0  0  0  0  0  0  0  0  0
 22 23  1  0  0  0
 23 24  1  0  0  0
 24 25  1  0  0  0
 25 26  1  0  0  0
 26 21  1  0  0  0
 21 12  1  0  0  0
 12 13  2  0  0  0
 13 14  1  0  0  0
 14 15  2  0  0  0
 15 16  1  0  0  0
 16 17  1  0  0  0
 17 18  1  0  0  0
 17 19  1  0  0  0
 17 20  1  0  0  0
 14  8  1  0  0  0
  8  9  2  0  0  0
  8 10  1  0  0  0
 10  1  1  0  0  0
  1  2  2  0  0  0
  2  3  1  0  0  0
  3  4  2  0  0  0
  4  5  1  0  0  0
  4  6  1  0  0  0
  6 29  1  0  0  0
 29 31  1  0  0  0
 31 32  2  0  0  0
 32 33  1  0  0  0
 33 34  2  0  0  0
 34 35  1  0  0  0
 35 36  2  0  0  0
 36 37  1  0  0  0
 37 38  2  0  0  0
 38 39  1  0  0  0
 39 40  1  0  0  0
 40 41  2  0  0  0
 41 42  1  0  0  0
 42 43  1  0  0  0
 42 44  2  0  0  0
 44 45  1  0  0  0
 45 46  2  0  0  0
  6  7  2  0  0  0
 26 27  1  0  0  0
 27 28  1  0  0  0
 28 23  1  0  0  0
 16 12  1  0  0  0
  7  1  1  0  0  0
 39 31  1  0  0  0
 46 40  1  0  0  0
 38 33  1  0  0  0
 10 11  1  0  0  0
 29 30  1  0  0  0
 43 47  1  0  0  0
 43 48  1  0  0  0
M  END
> <minimizedAffinity>
-8.86368

> <CNNscore>
0.1351059824

> <CNNaffinity>
7.2809324265

> <CNN_VS>
0.9836975336

> <CNNaffinity_variance>
0.1151767522

$$$$
[H]c1nc(N([H])[H])c([H])c(-n2c(N([H])c3c([H])c(N([H])C(=O)c4nn(C(C([H])([H])[H])(C([H])([H])[H])C([H])([H])[H])c(C([H])([H])N5C([H])([H])C([H])([H])N(C([H])([H])[H])C([H])([H])C5([H])[H])c4[H])c([H])c([H])c3C([H])([H])[H])nc3c([H])c([H])c([H])c([H])c32)n1


 48 53  0  0  0  0  0  0  0  0999 V2000
  -18.1191   11.5279  -19.1532 C   0  0  0  0  0  0  0  0  0  0  0  0
  -17.0773   10.6429  -19.1801 C   0  0  0  0  0  0  0  0  0  0  0  0
  -16.1850   10.5848  -20.2647 C   0  0  0  0  0  0  0  0  0  0  0  0
  -16.3717   11.4351  -21.3097 C   0  0  0  0  0  0  0  0  0  0  0  0
  -15.4595   11.4089  -22.4666 C   0  0  0  0  0  0  0  0  0  0  0  0
  -17.4319   12.3582  -21.3167 C   0  0  0  0  0  0  0  0  0  0  0  0
  -18.2949   12.4060  -20.2551 C   0  0  0  0  0  0  0  0  0  0  0  0
  -19.0995   12.5766  -17.0538 C   0  0  0  0  0  0  0  0  0  0  0  0
  -18.3198   13.5615  -17.0161 O   0  0  0  0  0  0  0  0  0  0  0  0
  -19.0081   11.6159  -18.0698 N   0  0  0  0  0  0  0  0  0  0  0  0
  -19.7252   10.8237  -18.0052 H   0  0  0  0  0  0  0  0  0  0  0  0
  -21.9498   12.6870  -14.7434 C   0  0  0  0  0  0  0  0  0  0  0  0
  -21.3457   13.0867  -15.9128 C   0  0  0  0  0  0  0  0  0  0  0  0
  -20.1262   12.4594  -15.9850 C   0  0  0  0  0  0  0  0  0  0  0  0
  -20.0473   11.7192  -14.8744 N   0  0  0  0  0  0  0  0  0  0  0  0
  -21.1157   11.8331  -14.1161 N   0  0  0  0  0  0  0  0  0  0  0  0
  -21.3560   11.1561  -12.8327 C   0  0  0  0  0  0  0  0  0  0  0  0
  -22.3465   10.0359  -12.9644 C   0  0  0  0  0  0  0  0  0  0  0  0
  -21.7041   12.1242  -11.7324 C   0  0  0  0  0  0  0  0  0  0  0  0
  -20.0286   10.5037  -12.4188 C   0  0  0  0  0  0  0  0  0  0  0  0
  -23.2809   13.0933  -14.2244 C   0  0  0  0  0  0  0  0  0  0  0  0
  -24.9411   18.0390  -15.1253 C   0  0  0  0  0  0  0  0  0  0  0  0
  -24.7145   16.9849  -14.1907 N   0  0  0  0  0  0  0  0  0  0  0  0
  -23.3652   16.7202  -13.8405 C   0  0  0  0  0  0  0  0  0  0  0  0
  -23.2134   15.2791  -13.4253 C   0  0  0  0  0  0  0  0  0  0  0  0
  -23.6420   14.4546  -14.5504 N   0  0  0  0  0  0  0  0  0  0  0  0
  -25.0737   14.6016  -14.7619 C   0  0  0  0  0  0  0  0  0  0  0  0
  -25.6111   15.8888  -14.2405 C   0  0  0  0  0  0  0  0  0  0  0  0
  -17.5256   13.1812  -22.4464 N   0  0  0  0  0  0  0  0  0  0  0  0
  -17.2687   12.7977  -23.4155 H   0  0  0  0  0  0  0  0  0  0  0  0
  -17.9396   14.5345  -22.4805 C   0  0  0  0  0  0  0  0  0  0  0  0
  -18.9243   15.1765  -21.8352 N   0  0  0  0  0  0  0  0  0  0  0  0
  -19.0053   16.4622  -22.1247 C   0  0  0  0  0  0  0  0  0  0  0  0
  -19.8122   17.5267  -21.7440 C   0  0  0  0  0  0  0  0  0  0  0  0
  -19.6285   18.7996  -22.2498 C   0  0  0  0  0  0  0  0  0  0  0  0
  -18.6298   19.0268  -23.1490 C   0  0  0  0  0  0  0  0  0  0  0  0
  -17.8293   17.9725  -23.5274 C   0  0  0  0  0  0  0  0  0  0  0  0
  -17.9946   16.6962  -23.0351 C   0  0  0  0  0  0  0  0  0  0  0  0
  -17.3696   15.5315  -23.2346 N   0  0  0  0  0  0  0  0  0  0  0  0
  -16.2680   15.3810  -24.1139 C   0  0  0  0  0  0  0  0  0  0  0  0
  -16.4606   15.6430  -25.4568 C   0  0  0  0  0  0  0  0  0  0  0  0
  -15.4115   15.5043  -26.3269 C   0  0  0  0  0  0  0  0  0  0  0  0
  -15.6043   15.7706  -27.7003 N   0  0  0  0  0  0  0  0  0  0  0  0
  -14.2208   15.1124  -25.8243 N   0  0  0  0  0  0  0  0  0  0  0  0
  -14.0464   14.8608  -24.5177 C   0  0  0  0  0  0  0  0  0  0  0  0
  -15.0596   14.9900  -23.6490 N   0  0  0  0  0  0  0  0  0  0  0  0
  -16.1047   15.0871  -28.2897 H   0  0  0  0  0  0  0  0  0  0  0  0
  -15.2434   16.6458  -28.1053 H   0  0  0  0  0  0  0  0  0  0  0  0
 22 23  1  0  0  0
 23 24  1  0  0  0
 24 25  1  0  0  0
 25 26  1  0  0  0
 26 21  1  0  0  0
 21 12  1  0  0  0
 12 13  2  0  0  0
 13 14  1  0  0  0
 14 15  2  0  0  0
 15 16  1  0  0  0
 16 17  1  0  0  0
 17 18  1  0  0  0
 17 19  1  0  0  0
 17 20  1  0  0  0
 14  8  1  0  0  0
  8  9  2  0  0  0
  8 10  1  0  0  0
 10  1  1  0  0  0
  1  2  2  0  0  0
  2  3  1  0  0  0
  3  4  2  0  0  0
  4  5  1  0  0  0
  4  6  1  0  0  0
  6 29  1  0  0  0
 29 31  1  0  0  0
 31 32  2  0  0  0
 32 33  1  0  0  0
 33 34  2  0  0  0
 34 35  1  0  0  0
 35 36  2  0  0  0
 36 37  1  0  0  0
 37 38  2  0  0  0
 38 39  1  0  0  0
 39 40  1  0  0  0
 40 41  2  0  0  0
 41 42  1  0  0  0
 42 43  1  0  0  0
 42 44  2  0  0  0
 44 45  1  0  0  0
 45 46  2  0  0  0
  6  7  2  0  0  0
 26 27  1  0  0  0
 27 28  1  0  0  0
 28 23  1  0  0  0
 16 12  1  0  0  0
  7  1  1  0  0  0
 39 31  1  0  0  0
 46 40  1  0  0  0
 38 33  1  0  0  0
 10 11  1  0  0  0
 29 30  1  0  0  0
 43 47  1  0  0  0
 43 48  1  0  0  0
M  END
> <minimizedAffinity>
-9.38466

> <CNNscore>
0.1293549538

> <CNNaffinity>
6.9874486923

> <CNN_VS>
0.9038611054

> <CNNaffinity_variance>
0.3914243579

$$$$
[H]c1nc(N([H])[H])c([H])c(-n2c(N([H])c3c([H])c(N([H])C(=O)c4nn(C(C([H])([H])[H])(C([H])([H])[H])C([H])([H])[H])c(C([H])([H])N5C([H])([H])C([H])([H])N(C([H])([H])[H])C([H])([H])C5([H])[H])c4[H])c([H])c([H])c3C([H])([H])[H])nc3c([H])c([H])c([H])c([H])c32)n1


 48 53  0  0  0  0  0  0  0  0999 V2000
  -18.0545   11.3232  -18.8189 C   0  0  0  0  0  0  0  0  0  0  0  0
  -16.9570   10.5085  -18.8503 C   0  0  0  0  0  0  0  0  0  0  0  0
  -16.0941   10.4738  -19.9595 C   0  0  0  0  0  0  0  0  0  0  0  0
  -16.3672   11.2751  -21.0241 C   0  0  0  0  0  0  0  0  0  0  0  0
  -15.4887   11.2710  -22.2071 C   0  0  0  0  0  0  0  0  0  0  0  0
  -17.4867   12.1253  -21.0272 C   0  0  0  0  0  0  0  0  0  0  0  0
  -18.3203   12.1509  -19.9416 C   0  0  0  0  0  0  0  0  0  0  0  0
  -19.3686   12.4969  -16.9848 C   0  0  0  0  0  0  0  0  0  0  0  0
  -19.0190   13.6644  -17.2920 O   0  0  0  0  0  0  0  0  0  0  0  0
  -18.9161   11.3879  -17.7120 N   0  0  0  0  0  0  0  0  0  0  0  0
  -19.2811   10.4433  -17.3646 H   0  0  0  0  0  0  0  0  0  0  0  0
  -21.2481   11.6221  -13.9556 C   0  0  0  0  0  0  0  0  0  0  0  0
  -20.1762   11.4218  -14.7940 C   0  0  0  0  0  0  0  0  0  0  0  0
  -20.2801   12.3255  -15.8229 C   0  0  0  0  0  0  0  0  0  0  0  0
  -21.3920   13.0219  -15.5659 N   0  0  0  0  0  0  0  0  0  0  0  0
  -21.9897   12.6276  -14.4628 N   0  0  0  0  0  0  0  0  0  0  0  0
  -23.2270   13.1800  -13.8907 C   0  0  0  0  0  0  0  0  0  0  0  0
  -23.0344   13.6446  -12.4764 C   0  0  0  0  0  0  0  0  0  0  0  0
  -24.3971   12.2447  -14.0495 C   0  0  0  0  0  0  0  0  0  0  0  0
  -23.5732   14.4340  -14.7071 C   0  0  0  0  0  0  0  0  0  0  0  0
  -21.5710   10.8898  -12.7042 C   0  0  0  0  0  0  0  0  0  0  0  0
  -22.3137    5.7708  -13.8316 C   0  0  0  0  0  0  0  0  0  0  0  0
  -21.4592    6.9126  -13.8747 N   0  0  0  0  0  0  0  0  0  0  0  0
  -20.8631    7.3115  -12.6504 C   0  0  0  0  0  0  0  0  0  0  0  0
  -20.5672    8.7892  -12.6783 C   0  0  0  0  0  0  0  0  0  0  0  0
  -21.8314    9.4820  -12.9043 N   0  0  0  0  0  0  0  0  0  0  0  0
  -22.3211    9.2049  -14.2458 C   0  0  0  0  0  0  0  0  0  0  0  0
  -21.8007    7.9262  -14.8040 C   0  0  0  0  0  0  0  0  0  0  0  0
  -17.6677   12.9026  -22.1784 N   0  0  0  0  0  0  0  0  0  0  0  0
  -17.6160   12.4480  -23.1494 H   0  0  0  0  0  0  0  0  0  0  0  0
  -17.9252   14.2936  -22.2334 C   0  0  0  0  0  0  0  0  0  0  0  0
  -18.3173   15.1602  -21.2883 N   0  0  0  0  0  0  0  0  0  0  0  0
  -18.4522   16.4002  -21.7213 C   0  0  0  0  0  0  0  0  0  0  0  0
  -18.8176   17.6210  -21.1685 C   0  0  0  0  0  0  0  0  0  0  0  0
  -18.8594   18.7797  -21.9205 C   0  0  0  0  0  0  0  0  0  0  0  0
  -18.5353   18.7333  -23.2435 C   0  0  0  0  0  0  0  0  0  0  0  0
  -18.1731   17.5239  -23.7927 C   0  0  0  0  0  0  0  0  0  0  0  0
  -18.1240   16.3572  -23.0612 C   0  0  0  0  0  0  0  0  0  0  0  0
  -17.8124   15.0892  -23.3477 N   0  0  0  0  0  0  0  0  0  0  0  0
  -17.4207   14.6579  -24.6399 C   0  0  0  0  0  0  0  0  0  0  0  0
  -16.5403   15.4467  -25.3554 C   0  0  0  0  0  0  0  0  0  0  0  0
  -16.1469   15.0517  -26.6069 C   0  0  0  0  0  0  0  0  0  0  0  0
  -15.2477   15.8553  -27.3417 N   0  0  0  0  0  0  0  0  0  0  0  0
  -16.6452   13.8930  -27.0899 N   0  0  0  0  0  0  0  0  0  0  0  0
  -17.4999   13.1356  -26.3851 C   0  0  0  0  0  0  0  0  0  0  0  0
  -17.8980   13.5036  -25.1587 N   0  0  0  0  0  0  0  0  0  0  0  0
  -15.5828   16.7238  -27.7871 H   0  0  0  0  0  0  0  0  0  0  0  0
  -14.2626   15.5688  -27.4287 H   0  0  0  0  0  0  0  0  0  0  0  0
 22 23  1  0  0  0
 23 24  1  0  0  0
 24 25  1  0  0  0
 25 26  1  0  0  0
 26 21  1  0  0  0
 21 12  1  0  0  0
 12 13  2  0  0  0
 13 14  1  0  0  0
 14 15  2  0  0  0
 15 16  1  0  0  0
 16 17  1  0  0  0
 17 18  1  0  0  0
 17 19  1  0  0  0
 17 20  1  0  0  0
 14  8  1  0  0  0
  8  9  2  0  0  0
  8 10  1  0  0  0
 10  1  1  0  0  0
  1  2  2  0  0  0
  2  3  1  0  0  0
  3  4  2  0  0  0
  4  5  1  0  0  0
  4  6  1  0  0  0
  6 29  1  0  0  0
 29 31  1  0  0  0
 31 32  2  0  0  0
 32 33  1  0  0  0
 33 34  2  0  0  0
 34 35  1  0  0  0
 35 36  2  0  0  0
 36 37  1  0  0  0
 37 38  2  0  0  0
 38 39  1  0  0  0
 39 40  1  0  0  0
 40 41  2  0  0  0
 41 42  1  0  0  0
 42 43  1  0  0  0
 42 44  2  0  0  0
 44 45  1  0  0  0
 45 46  2  0  0  0
  6  7  2  0  0  0
 26 27  1  0  0  0
 27 28  1  0  0  0
 28 23  1  0  0  0
 16 12  1  0  0  0
  7  1  1  0  0  0
 39 31  1  0  0  0
 46 40  1  0  0  0
 38 33  1  0  0  0
 10 11  1  0  0  0
 29 30  1  0  0  0
 43 47  1  0  0  0
 43 48  1  0  0  0
M  END
> <minimizedAffinity>
-9.06761

> <CNNscore>
0.1275318414

> <CNNaffinity>
6.9873132706

> <CNN_VS>
0.8911049366

> <CNNaffinity_variance>
0.4607176781

$$$$
[H]c1nc(N([H])[H])c([H])c(-n2c(N([H])c3c([H])c(N([H])C(=O)c4nn(C(C([H])([H])[H])(C([H])([H])[H])C([H])([H])[H])c(C([H])([H])N5C([H])([H])C([H])([H])N(C([H])([H])[H])C([H])([H])C5([H])[H])c4[H])c([H])c([H])c3C([H])([H])[H])nc3c([H])c([H])c([H])c([H])c32)n1


 48 53  0  0  0  0  0  0  0  0999 V2000
  -18.0435   11.5075  -18.7063 C   0  0  0  0  0  0  0  0  0  0  0  0
  -16.8609   10.8788  -18.4321 C   0  0  0  0  0  0  0  0  0  0  0  0
  -15.9292   10.5839  -19.4425 C   0  0  0  0  0  0  0  0  0  0  0  0
  -16.2215   10.9370  -20.7231 C   0  0  0  0  0  0  0  0  0  0  0  0
  -15.2730   10.6479  -21.8130 C   0  0  0  0  0  0  0  0  0  0  0  0
  -17.4277   11.5845  -21.0424 C   0  0  0  0  0  0  0  0  0  0  0  0
  -18.3279   11.8667  -20.0503 C   0  0  0  0  0  0  0  0  0  0  0  0
  -19.7483   10.9931  -16.8905 C   0  0  0  0  0  0  0  0  0  0  0  0
  -19.6617    9.7420  -16.9722 O   0  0  0  0  0  0  0  0  0  0  0  0
  -18.9772   11.8298  -17.7083 N   0  0  0  0  0  0  0  0  0  0  0  0
  -19.1289   12.8776  -17.5495 H   0  0  0  0  0  0  0  0  0  0  0  0
  -22.0870   12.8904  -14.7917 C   0  0  0  0  0  0  0  0  0  0  0  0
  -21.3047   12.7936  -15.9189 C   0  0  0  0  0  0  0  0  0  0  0  0
  -20.6963   11.5625  -15.8968 C   0  0  0  0  0  0  0  0  0  0  0  0
  -21.1304   10.9779  -14.7756 N   0  0  0  0  0  0  0  0  0  0  0  0
  -21.9584   11.7418  -14.0971 N   0  0  0  0  0  0  0  0  0  0  0  0
  -22.6198   11.4060  -12.8271 C   0  0  0  0  0  0  0  0  0  0  0  0
  -22.2538   10.0311  -12.3485 C   0  0  0  0  0  0  0  0  0  0  0  0
  -24.1078   11.6348  -12.8799 C   0  0  0  0  0  0  0  0  0  0  0  0
  -22.0783   12.3819  -11.7720 C   0  0  0  0  0  0  0  0  0  0  0  0
  -22.9394   14.0329  -14.3738 C   0  0  0  0  0  0  0  0  0  0  0  0
  -21.6307   18.8305  -16.1897 C   0  0  0  0  0  0  0  0  0  0  0  0
  -22.5465   18.0166  -15.4584 N   0  0  0  0  0  0  0  0  0  0  0  0
  -22.1315   17.5847  -14.1721 C   0  0  0  0  0  0  0  0  0  0  0  0
  -22.8172   16.2902  -13.8167 C   0  0  0  0  0  0  0  0  0  0  0  0
  -22.4654   15.3152  -14.8438 N   0  0  0  0  0  0  0  0  0  0  0  0
  -23.0698   15.6860  -16.1139 C   0  0  0  0  0  0  0  0  0  0  0  0
  -23.3638   17.1422  -16.2168 C   0  0  0  0  0  0  0  0  0  0  0  0
  -17.6204   11.8980  -22.3940 N   0  0  0  0  0  0  0  0  0  0  0  0
  -18.2949   11.3149  -22.9918 H   0  0  0  0  0  0  0  0  0  0  0  0
  -17.0052   12.9462  -23.1199 C   0  0  0  0  0  0  0  0  0  0  0  0
  -16.2284   12.9301  -24.2128 N   0  0  0  0  0  0  0  0  0  0  0  0
  -15.8378   14.1272  -24.6101 C   0  0  0  0  0  0  0  0  0  0  0  0
  -15.0590   14.6367  -25.6411 C   0  0  0  0  0  0  0  0  0  0  0  0
  -14.8356   15.9929  -25.7858 C   0  0  0  0  0  0  0  0  0  0  0  0
  -15.3905   16.8632  -24.8958 C   0  0  0  0  0  0  0  0  0  0  0  0
  -16.1625   16.3594  -23.8732 C   0  0  0  0  0  0  0  0  0  0  0  0
  -16.3986   15.0116  -23.7110 C   0  0  0  0  0  0  0  0  0  0  0  0
  -17.0921   14.2859  -22.8282 N   0  0  0  0  0  0  0  0  0  0  0  0
  -17.8109   14.8555  -21.7475 C   0  0  0  0  0  0  0  0  0  0  0  0
  -17.1017   15.5253  -20.7690 C   0  0  0  0  0  0  0  0  0  0  0  0
  -17.7735   16.0842  -19.7140 C   0  0  0  0  0  0  0  0  0  0  0  0
  -17.0522   16.7691  -18.7114 N   0  0  0  0  0  0  0  0  0  0  0  0
  -19.1172   15.9526  -19.6790 N   0  0  0  0  0  0  0  0  0  0  0  0
  -19.7949   15.2996  -20.6356 C   0  0  0  0  0  0  0  0  0  0  0  0
  -19.1571   14.7450  -21.6766 N   0  0  0  0  0  0  0  0  0  0  0  0
  -16.5171   16.2346  -18.0092 H   0  0  0  0  0  0  0  0  0  0  0  0
  -17.0654   17.7983  -18.6873 H   0  0  0  0  0  0  0  0  0  0  0  0
 22 23  1  0  0  0
 23 24  1  0  0  0
 24 25  1  0  0  0
 25 26  1  0  0  0
 26 21  1  0  0  0
 21 12  1  0  0  0
 12 13  2  0  0  0
 13 14  1  0  0  0
 14 15  2  0  0  0
 15 16  1  0  0  0
 16 17  1  0  0  0
 17 18  1  0  0  0
 17 19  1  0  0  0
 17 20  1  0  0  0
 14  8  1  0  0  0
  8  9  2  0  0  0
  8 10  1  0  0  0
 10  1  1  0  0  0
  1  2  2  0  0  0
  2  3  1  0  0  0
  3  4  2  0  0  0
  4  5  1  0  0  0
  4  6  1  0  0  0
  6 29  1  0  0  0
 29 31  1  0  0  0
 31 32  2  0  0  0
 32 33  1  0  0  0
 33 34  2  0  0  0
 34 35  1  0  0  0
 35 36  2  0  0  0
 36 37  1  0  0  0
 37 38  2  0  0  0
 38 39  1  0  0  0
 39 40  1  0  0  0
 40 41  2  0  0  0
 41 42  1  0  0  0
 42 43  1  0  0  0
 42 44  2  0  0  0
 44 45  1  0  0  0
 45 46  2  0  0  0
  6  7  2  0  0  0
 26 27  1  0  0  0
 27 28  1  0  0  0
 28 23  1  0  0  0
 16 12  1  0  0  0
  7  1  1  0  0  0
 39 31  1  0  0  0
 46 40  1  0  0  0
 38 33  1  0  0  0
 10 11  1  0  0  0
 29 30  1  0  0  0
 43 47  1  0  0  0
 43 48  1  0  0  0
M  END
> <minimizedAffinity>
-9.02331

> <CNNscore>
0.1264234781

> <CNNaffinity>
7.1342926025

> <CNN_VS>
0.9019420743

> <CNNaffinity_variance>
0.3821315765

$$$$
[H]c1nc(N([H])[H])c([H])c(-n2c(N([H])c3c([H])c(N([H])C(=O)c4nn(C(C([H])([H])[H])(C([H])([H])[H])C([H])([H])[H])c(C([H])([H])N5C([H])([H])C([H])([H])N(C([H])([H])[H])C([H])([H])C5([H])[H])c4[H])c([H])c([H])c3C([H])([H])[H])nc3c([H])c([H])c([H])c([H])c32)n1


 48 53  0  0  0  0  0  0  0  0999 V2000
  -18.0652   11.1449  -19.0261 C   0  0  0  0  0  0  0  0  0  0  0  0
  -17.2965   10.0657  -19.3634 C   0  0  0  0  0  0  0  0  0  0  0  0
  -16.4271   10.0940  -20.4676 C   0  0  0  0  0  0  0  0  0  0  0  0
  -16.3564   11.2292  -21.2136 C   0  0  0  0  0  0  0  0  0  0  0  0
  -15.4577   11.3026  -22.3790 C   0  0  0  0  0  0  0  0  0  0  0  0
  -17.1319   12.3580  -20.8969 C   0  0  0  0  0  0  0  0  0  0  0  0
  -17.9754   12.3192  -19.8192 C   0  0  0  0  0  0  0  0  0  0  0  0
  -19.2987   10.0935  -17.0661 C   0  0  0  0  0  0  0  0  0  0  0  0
  -18.8475    8.9317  -17.2280 O   0  0  0  0  0  0  0  0  0  0  0  0
  -18.9235   11.1436  -17.9147 N   0  0  0  0  0  0  0  0  0  0  0  0
  -19.3651   12.0903  -17.6808 H   0  0  0  0  0  0  0  0  0  0  0  0
  -22.0016   10.8976  -14.7162 C   0  0  0  0  0  0  0  0  0  0  0  0
  -21.5026   10.8742  -15.9978 C   0  0  0  0  0  0  0  0  0  0  0  0
  -20.2459   10.3230  -15.9435 C   0  0  0  0  0  0  0  0  0  0  0  0
  -20.0430   10.0413  -14.6523 N   0  0  0  0  0  0  0  0  0  0  0  0
  -21.0683   10.3710  -13.8976 N   0  0  0  0  0  0  0  0  0  0  0  0
  -21.1773   10.1954  -12.4414 C   0  0  0  0  0  0  0  0  0  0  0  0
  -22.4252    9.4556  -12.0558 C   0  0  0  0  0  0  0  0  0  0  0  0
  -21.0071   11.4928  -11.6952 C   0  0  0  0  0  0  0  0  0  0  0  0
  -20.0036    9.3026  -12.0122 C   0  0  0  0  0  0  0  0  0  0  0  0
  -23.3251   11.3999  -14.2665 C   0  0  0  0  0  0  0  0  0  0  0  0
  -23.2817   16.5849  -13.1979 C   0  0  0  0  0  0  0  0  0  0  0  0
  -23.7615   15.5165  -14.0130 N   0  0  0  0  0  0  0  0  0  0  0  0
  -24.7353   14.6604  -13.4366 C   0  0  0  0  0  0  0  0  0  0  0  0
  -24.6630   13.2955  -14.0720 C   0  0  0  0  0  0  0  0  0  0  0  0
  -23.3128   12.7859  -13.8558 N   0  0  0  0  0  0  0  0  0  0  0  0
  -22.3537   13.5704  -14.6180 C   0  0  0  0  0  0  0  0  0  0  0  0
  -22.8358   14.9462  -14.9216 C   0  0  0  0  0  0  0  0  0  0  0  0
  -16.9770   13.4682  -21.7369 N   0  0  0  0  0  0  0  0  0  0  0  0
  -16.1168   13.5460  -22.3743 H   0  0  0  0  0  0  0  0  0  0  0  0
  -17.8589   14.5684  -21.8636 C   0  0  0  0  0  0  0  0  0  0  0  0
  -18.7224   15.1163  -20.9962 N   0  0  0  0  0  0  0  0  0  0  0  0
  -19.3821   16.1528  -21.4796 C   0  0  0  0  0  0  0  0  0  0  0  0
  -20.3463   17.0353  -21.0098 C   0  0  0  0  0  0  0  0  0  0  0  0
  -20.8496   18.0537  -21.7969 C   0  0  0  0  0  0  0  0  0  0  0  0
  -20.3935   18.2041  -23.0724 C   0  0  0  0  0  0  0  0  0  0  0  0
  -19.4379   17.3299  -23.5394 C   0  0  0  0  0  0  0  0  0  0  0  0
  -18.9221   16.3086  -22.7716 C   0  0  0  0  0  0  0  0  0  0  0  0
  -18.0126   15.3517  -22.9817 N   0  0  0  0  0  0  0  0  0  0  0  0
  -17.3175   15.1954  -24.2071 C   0  0  0  0  0  0  0  0  0  0  0  0
  -16.2399   16.0225  -24.4595 C   0  0  0  0  0  0  0  0  0  0  0  0
  -15.5520   15.8914  -25.6370 C   0  0  0  0  0  0  0  0  0  0  0  0
  -14.4502   16.7352  -25.8991 N   0  0  0  0  0  0  0  0  0  0  0  0
  -15.9652   14.9463  -26.5088 N   0  0  0  0  0  0  0  0  0  0  0  0
  -17.0136   14.1490  -26.2521 C   0  0  0  0  0  0  0  0  0  0  0  0
  -17.7009   14.2605  -25.1062 N   0  0  0  0  0  0  0  0  0  0  0  0
  -14.6104   17.7175  -26.1721 H   0  0  0  0  0  0  0  0  0  0  0  0
  -13.4933   16.3642  -25.8165 H   0  0  0  0  0  0  0  0  0  0  0  0
 22 23  1  0  0  0
 23 24  1  0  0  0
 24 25  1  0  0  0
 25 26  1  0  0  0
 26 21  1  0  0  0
 21 12  1  0  0  0
 12 13  2  0  0  0
 13 14  1  0  0  0
 14 15  2  0  0  0
 15 16  1  0  0  0
 16 17  1  0  0  0
 17 18  1  0  0  0
 17 19  1  0  0  0
 17 20  1  0  0  0
 14  8  1  0  0  0
  8  9  2  0  0  0
  8 10  1  0  0  0
 10  1  1  0  0  0
  1  2  2  0  0  0
  2  3  1  0  0  0
  3  4  2  0  0  0
  4  5  1  0  0  0
  4  6  1  0  0  0
  6 29  1  0  0  0
 29 31  1  0  0  0
 31 32  2  0  0  0
 32 33  1  0  0  0
 33 34  2  0  0  0
 34 35  1  0  0  0
 35 36  2  0  0  0
 36 37  1  0  0  0
 37 38  2  0  0  0
 38 39  1  0  0  0
 39 40  1  0  0  0
 40 41  2  0  0  0
 41 42  1  0  0  0
 42 43  1  0  0  0
 42 44  2  0  0  0
 44 45  1  0  0  0
 45 46  2  0  0  0
  6  7  2  0  0  0
 26 27  1  0  0  0
 27 28  1  0  0  0
 28 23  1  0  0  0
 16 12  1  0  0  0
  7  1  1  0  0  0
 39 31  1  0  0  0
 46 40  1  0  0  0
 38 33  1  0  0  0
 10 11  1  0  0  0
 29 30  1  0  0  0
 43 47  1  0  0  0
 43 48  1  0  0  0
M  END
> <minimizedAffinity>
-9.48730

> <CNNscore>
0.1201842204

> <CNNaffinity>
7.1350150108

> <CNN_VS>
0.8575162292

> <CNNaffinity_variance>
0.1996309608

$$$$
[H]c1nc([H])c(-c2nc(N([H])c3c([H])c(N([H])C(=O)c4c([H])c([H])c(C([H])([H])N5C([H])([H])C([H])([H])[C@@]([H])(N(C([H])([H])[H])C([H])([H])[H])C5([H])[H])c(C(F)(F)F)c4[H])c([H])c([H])c3C([H])([H])[H])nc([H])c2[H])c([H])n1


 44 48  0  0  0  0  0  0  0  0999 V2000
  -20.6449   15.1391  -19.0947 C   0  0  0  0  0  0  0  0  0  0  0  0
  -20.4416   14.5917  -20.2059 O   0  0  0  0  0  0  0  0  0  0  0  0
  -20.4739   14.4332  -17.8948 N   0  0  0  0  0  0  0  0  0  0  0  0
  -20.6883   15.0004  -17.0083 H   0  0  0  0  0  0  0  0  0  0  0  0
  -20.0635   13.0926  -17.7173 C   0  0  0  0  0  0  0  0  0  0  0  0
  -20.7357   12.3062  -16.7627 C   0  0  0  0  0  0  0  0  0  0  0  0
  -20.3916   11.0043  -16.5174 C   0  0  0  0  0  0  0  0  0  0  0  0
  -19.3533   10.4357  -17.2234 C   0  0  0  0  0  0  0  0  0  0  0  0
  -18.9491    9.0276  -16.9827 C   0  0  0  0  0  0  0  0  0  0  0  0
  -18.6400   11.1622  -18.1885 C   0  0  0  0  0  0  0  0  0  0  0  0
  -19.0322   12.4701  -18.3926 C   0  0  0  0  0  0  0  0  0  0  0  0
  -17.6178   10.5110  -18.8880 N   0  0  0  0  0  0  0  0  0  0  0  0
  -17.2504    9.5955  -18.4345 H   0  0  0  0  0  0  0  0  0  0  0  0
  -16.9847   10.8401  -20.0931 C   0  0  0  0  0  0  0  0  0  0  0  0
  -15.8153   10.1763  -20.3624 N   0  0  0  0  0  0  0  0  0  0  0  0
  -15.0928   10.4051  -21.4571 C   0  0  0  0  0  0  0  0  0  0  0  0
  -15.5183   11.3428  -22.3698 C   0  0  0  0  0  0  0  0  0  0  0  0
  -16.6881   12.0232  -22.1230 C   0  0  0  0  0  0  0  0  0  0  0  0
  -17.3548   11.7344  -21.0012 N   0  0  0  0  0  0  0  0  0  0  0  0
  -17.1911   13.0508  -23.0374 C   0  0  0  0  0  0  0  0  0  0  0  0
  -17.0841   12.9658  -24.3858 C   0  0  0  0  0  0  0  0  0  0  0  0
  -17.5678   13.9698  -25.1481 N   0  0  0  0  0  0  0  0  0  0  0  0
  -18.1509   15.0509  -24.6310 C   0  0  0  0  0  0  0  0  0  0  0  0
  -18.2587   15.1393  -23.3026 N   0  0  0  0  0  0  0  0  0  0  0  0
  -17.8017   14.1815  -22.4802 C   0  0  0  0  0  0  0  0  0  0  0  0
  -21.7850   19.2830  -19.2784 C   0  0  0  0  0  0  0  0  0  0  0  0
  -22.6384   18.3296  -18.8019 C   0  0  0  0  0  0  0  0  0  0  0  0
  -22.2968   16.9697  -18.7263 C   0  0  0  0  0  0  0  0  0  0  0  0
  -21.0661   16.5413  -19.1369 C   0  0  0  0  0  0  0  0  0  0  0  0
  -20.1886   17.4743  -19.6187 C   0  0  0  0  0  0  0  0  0  0  0  0
  -20.5307   18.8246  -19.6931 C   0  0  0  0  0  0  0  0  0  0  0  0
  -19.5598   19.7819  -20.2145 C   0  0  0  0  0  0  0  0  0  0  0  0
  -19.7784   20.2053  -21.5030 F   0  0  0  0  0  0  0  0  0  0  0  0
  -18.3093   19.1405  -20.2640 F   0  0  0  0  0  0  0  0  0  0  0  0
  -19.3371   20.8536  -19.3550 F   0  0  0  0  0  0  0  0  0  0  0  0
  -22.1424   20.6849  -19.3196 C   0  0  0  0  0  0  0  0  0  0  0  0
  -22.5475   20.9040  -22.5690 C   0  0  0  0  0  0  0  0  0  0  0  0
  -23.3716   19.6913  -22.2672 C   0  0  0  0  0  0  0  0  0  0  0  0
  -23.8574   19.8997  -20.8456 C   0  0  0  0  0  0  0  0  0  0  0  0
  -23.1341   20.9963  -20.2881 N   0  0  0  0  0  0  0  0  0  0  0  0
  -22.7035   21.8021  -21.3863 C   0  0  0  0  0  0  0  0  0  0  0  0
  -24.4180   21.7861  -23.6626 C   0  0  0  0  0  0  0  0  0  0  0  0
  -23.0025   21.5035  -23.8022 N   0  0  0  0  0  0  0  0  0  0  0  0
  -22.8328   20.6291  -24.9377 C   0  0  0  0  0  0  0  0  0  0  0  0
 42 43  1  0  0  0
 43 44  1  0  0  0
 43 37  1  0  0  0
 37 38  1  0  0  0
 38 39  1  0  0  0
 39 40  1  0  0  0
 40 36  1  0  0  0
 36 26  1  0  0  0
 26 27  2  0  0  0
 27 28  1  0  0  0
 28 29  2  0  0  0
 29 30  1  0  0  0
 30 31  2  0  0  0
 31 32  1  0  0  0
 32 33  1  0  0  0
 32 34  1  0  0  0
 32 35  1  0  0  0
 29  1  1  0  0  0
  1  2  2  0  0  0
  1  3  1  0  0  0
  3  5  1  0  0  0
  5  6  2  0  0  0
  6  7  1  0  0  0
  7  8  2  0  0  0
  8  9  1  0  0  0
  8 10  1  0  0  0
 10 12  1  0  0  0
 12 14  1  0  0  0
 14 15  2  0  0  0
 15 16  1  0  0  0
 16 17  2  0  0  0
 17 18  1  0  0  0
 18 19  2  0  0  0
 18 20  1  0  0  0
 20 21  2  0  0  0
 21 22  1  0  0  0
 22 23  2  0  0  0
 23 24  1  0  0  0
 24 25  2  0  0  0
 10 11  2  0  0  0
 40 41  1  0  0  0
 41 37  1  0  0  0
 31 26  1  0  0  0
 11  5  1  0  0  0
 19 14  1  0  0  0
 25 20  1  0  0  0
  3  4  1  0  0  0
 12 13  1  0  0  0
M  END
> <minimizedAffinity>
-8.29433

> <CNNscore>
0.3384723663

> <CNNaffinity>
7.4413895607

> <CNN_VS>
2.5187046528

> <CNNaffinity_variance>
0.1178634763

$$$$
[H]c1nc([H])c(-c2nc(N([H])c3c([H])c(N([H])C(=O)c4c([H])c([H])c(C([H])([H])N5C([H])([H])C([H])([H])[C@@]([H])(N(C([H])([H])[H])C([H])([H])[H])C5([H])[H])c(C(F)(F)F)c4[H])c([H])c([H])c3C([H])([H])[H])nc([H])c2[H])c([H])n1


 44 48  0  0  0  0  0  0  0  0999 V2000
  -19.7187   14.3709  -17.9044 C   0  0  0  0  0  0  0  0  0  0  0  0
  -18.6081   14.9197  -17.7014 O   0  0  0  0  0  0  0  0  0  0  0  0
  -19.8253   13.2161  -18.6934 N   0  0  0  0  0  0  0  0  0  0  0  0
  -20.8261   12.8433  -18.8067 H   0  0  0  0  0  0  0  0  0  0  0  0
  -18.7948   12.5013  -19.3445 C   0  0  0  0  0  0  0  0  0  0  0  0
  -18.0652   11.5524  -18.6037 C   0  0  0  0  0  0  0  0  0  0  0  0
  -17.0416   10.8285  -19.1530 C   0  0  0  0  0  0  0  0  0  0  0  0
  -16.7064   11.0287  -20.4748 C   0  0  0  0  0  0  0  0  0  0  0  0
  -15.6000   10.2648  -21.1047 C   0  0  0  0  0  0  0  0  0  0  0  0
  -17.3911   11.9590  -21.2709 C   0  0  0  0  0  0  0  0  0  0  0  0
  -18.4137   12.6592  -20.6624 C   0  0  0  0  0  0  0  0  0  0  0  0
  -17.0163   12.0876  -22.6130 N   0  0  0  0  0  0  0  0  0  0  0  0
  -16.7207   11.1666  -23.1062 H   0  0  0  0  0  0  0  0  0  0  0  0
  -16.9637   13.2159  -23.4409 C   0  0  0  0  0  0  0  0  0  0  0  0
  -16.1035   13.1441  -24.5065 N   0  0  0  0  0  0  0  0  0  0  0  0
  -15.9310   14.1496  -25.3619 C   0  0  0  0  0  0  0  0  0  0  0  0
  -16.6347   15.3193  -25.1884 C   0  0  0  0  0  0  0  0  0  0  0  0
  -17.5038   15.4173  -24.1266 C   0  0  0  0  0  0  0  0  0  0  0  0
  -17.6200   14.3625  -23.3141 N   0  0  0  0  0  0  0  0  0  0  0  0
  -18.2691   16.6385  -23.8657 C   0  0  0  0  0  0  0  0  0  0  0  0
  -19.6058   16.6470  -23.6420 C   0  0  0  0  0  0  0  0  0  0  0  0
  -20.2279   17.8251  -23.4221 N   0  0  0  0  0  0  0  0  0  0  0  0
  -19.5821   18.9909  -23.4148 C   0  0  0  0  0  0  0  0  0  0  0  0
  -18.2646   18.9876  -23.6347 N   0  0  0  0  0  0  0  0  0  0  0  0
  -17.5776   17.8565  -23.8609 C   0  0  0  0  0  0  0  0  0  0  0  0
  -23.1426   16.2944  -16.1487 C   0  0  0  0  0  0  0  0  0  0  0  0
  -22.4233   15.3569  -15.4647 C   0  0  0  0  0  0  0  0  0  0  0  0
  -21.3000   14.7124  -16.0073 C   0  0  0  0  0  0  0  0  0  0  0  0
  -20.8755   15.0088  -17.2718 C   0  0  0  0  0  0  0  0  0  0  0  0
  -21.5762   15.9455  -17.9819 C   0  0  0  0  0  0  0  0  0  0  0  0
  -22.6921   16.5840  -17.4404 C   0  0  0  0  0  0  0  0  0  0  0  0
  -23.4065   17.5765  -18.2376 C   0  0  0  0  0  0  0  0  0  0  0  0
  -24.7608   17.3786  -18.3553 F   0  0  0  0  0  0  0  0  0  0  0  0
  -22.9246   17.4951  -19.5561 F   0  0  0  0  0  0  0  0  0  0  0  0
  -23.1114   18.8855  -17.8683 F   0  0  0  0  0  0  0  0  0  0  0  0
  -24.2790   16.9718  -15.5619 C   0  0  0  0  0  0  0  0  0  0  0  0
  -23.0434   17.5908  -12.5851 C   0  0  0  0  0  0  0  0  0  0  0  0
  -21.9075   18.0313  -13.4549 C   0  0  0  0  0  0  0  0  0  0  0  0
  -22.5630   18.4807  -14.7466 C   0  0  0  0  0  0  0  0  0  0  0  0
  -23.9265   18.0602  -14.7194 N   0  0  0  0  0  0  0  0  0  0  0  0
  -24.2853   17.9266  -13.3431 C   0  0  0  0  0  0  0  0  0  0  0  0
  -23.9016   19.3603  -11.3182 C   0  0  0  0  0  0  0  0  0  0  0  0
  -22.9602   18.2574  -11.3060 N   0  0  0  0  0  0  0  0  0  0  0  0
  -21.6465   18.7961  -11.0477 C   0  0  0  0  0  0  0  0  0  0  0  0
 42 43  1  0  0  0
 43 44  1  0  0  0
 43 37  1  0  0  0
 37 38  1  0  0  0
 38 39  1  0  0  0
 39 40  1  0  0  0
 40 36  1  0  0  0
 36 26  1  0  0  0
 26 27  2  0  0  0
 27 28  1  0  0  0
 28 29  2  0  0  0
 29 30  1  0  0  0
 30 31  2  0  0  0
 31 32  1  0  0  0
 32 33  1  0  0  0
 32 34  1  0  0  0
 32 35  1  0  0  0
 29  1  1  0  0  0
  1  2  2  0  0  0
  1  3  1  0  0  0
  3  5  1  0  0  0
  5  6  2  0  0  0
  6  7  1  0  0  0
  7  8  2  0  0  0
  8  9  1  0  0  0
  8 10  1  0  0  0
 10 12  1  0  0  0
 12 14  1  0  0  0
 14 15  2  0  0  0
 15 16  1  0  0  0
 16 17  2  0  0  0
 17 18  1  0  0  0
 18 19  2  0  0  0
 18 20  1  0  0  0
 20 21  2  0  0  0
 21 22  1  0  0  0
 22 23  2  0  0  0
 23 24  1  0  0  0
 24 25  2  0  0  0
 10 11  2  0  0  0
 40 41  1  0  0  0
 41 37  1  0  0  0
 31 26  1  0  0  0
 11  5  1  0  0  0
 19 14  1  0  0  0
 25 20  1  0  0  0
  3  4  1  0  0  0
 12 13  1  0  0  0
M  END
> <minimizedAffinity>
-7.76246

> <CNNscore>
0.1214952469

> <CNNaffinity>
6.8374571800

> <CNN_VS>
0.8307185769

> <CNNaffinity_variance>
0.0849745199

$$$$
[H]c1nc([H])c(-c2nc(N([H])c3c([H])c(N([H])C(=O)c4c([H])c([H])c(C([H])([H])N5C([H])([H])C([H])([H])[C@@]([H])(N(C([H])([H])[H])C([H])([H])[H])C5([H])[H])c(C(F)(F)F)c4[H])c([H])c([H])c3C([H])([H])[H])nc([H])c2[H])c([H])n1


 44 48  0  0  0  0  0  0  0  0999 V2000
  -19.2132   14.2485  -17.3902 C   0  0  0  0  0  0  0  0  0  0  0  0
  -18.0337   14.4462  -17.0088 O   0  0  0  0  0  0  0  0  0  0  0  0
  -19.5058   13.3101  -18.3907 N   0  0  0  0  0  0  0  0  0  0  0  0
  -20.5471   13.2360  -18.6431 H   0  0  0  0  0  0  0  0  0  0  0  0
  -18.6123   12.4698  -19.0926 C   0  0  0  0  0  0  0  0  0  0  0  0
  -18.1557   11.2984  -18.4594 C   0  0  0  0  0  0  0  0  0  0  0  0
  -17.2778   10.4384  -19.0619 C   0  0  0  0  0  0  0  0  0  0  0  0
  -16.8195   10.7205  -20.3308 C   0  0  0  0  0  0  0  0  0  0  0  0
  -15.8641    9.8133  -21.0153 C   0  0  0  0  0  0  0  0  0  0  0  0
  -17.2326   11.8707  -21.0194 C   0  0  0  0  0  0  0  0  0  0  0  0
  -18.1187   12.7004  -20.3616 C   0  0  0  0  0  0  0  0  0  0  0  0
  -16.7498   12.0772  -22.3166 N   0  0  0  0  0  0  0  0  0  0  0  0
  -16.1442   11.2733  -22.7237 H   0  0  0  0  0  0  0  0  0  0  0  0
  -16.9233   13.1557  -23.1931 C   0  0  0  0  0  0  0  0  0  0  0  0
  -16.5144   12.9549  -24.4866 N   0  0  0  0  0  0  0  0  0  0  0  0
  -16.5948   13.8989  -25.4221 C   0  0  0  0  0  0  0  0  0  0  0  0
  -17.1057   15.1351  -25.0996 C   0  0  0  0  0  0  0  0  0  0  0  0
  -17.5225   15.3625  -23.8085 C   0  0  0  0  0  0  0  0  0  0  0  0
  -17.4087   14.3623  -22.9292 N   0  0  0  0  0  0  0  0  0  0  0  0
  -18.0556   16.6598  -23.3866 C   0  0  0  0  0  0  0  0  0  0  0  0
  -17.3411   17.5623  -22.6713 C   0  0  0  0  0  0  0  0  0  0  0  0
  -17.9221   18.7286  -22.3172 N   0  0  0  0  0  0  0  0  0  0  0  0
  -19.1776   19.0362  -22.6417 C   0  0  0  0  0  0  0  0  0  0  0  0
  -19.8858   18.1499  -23.3467 N   0  0  0  0  0  0  0  0  0  0  0  0
  -19.3764   16.9698  -23.7346 C   0  0  0  0  0  0  0  0  0  0  0  0
  -22.1745   16.7013  -15.4614 C   0  0  0  0  0  0  0  0  0  0  0  0
  -22.4433   15.4131  -15.8251 C   0  0  0  0  0  0  0  0  0  0  0  0
  -21.4991   14.5854  -16.4536 C   0  0  0  0  0  0  0  0  0  0  0  0
  -20.2449   15.0518  -16.7301 C   0  0  0  0  0  0  0  0  0  0  0  0
  -19.9457   16.3394  -16.3764 C   0  0  0  0  0  0  0  0  0  0  0  0
  -20.8858   17.1596  -15.7525 C   0  0  0  0  0  0  0  0  0  0  0  0
  -20.5186   18.5263  -15.3944 C   0  0  0  0  0  0  0  0  0  0  0  0
  -21.0134   19.5080  -16.2183 F   0  0  0  0  0  0  0  0  0  0  0  0
  -19.1221   18.6403  -15.5133 F   0  0  0  0  0  0  0  0  0  0  0  0
  -20.7516   18.8186  -14.0538 F   0  0  0  0  0  0  0  0  0  0  0  0
  -23.1498   17.5300  -14.7856 C   0  0  0  0  0  0  0  0  0  0  0  0
  -23.8389   19.4706  -17.3410 C   0  0  0  0  0  0  0  0  0  0  0  0
  -23.9853   18.1200  -17.9699 C   0  0  0  0  0  0  0  0  0  0  0  0
  -24.4105   17.2099  -16.8336 C   0  0  0  0  0  0  0  0  0  0  0  0
  -24.2389   17.9226  -15.6092 N   0  0  0  0  0  0  0  0  0  0  0  0
  -24.3084   19.3125  -15.9324 C   0  0  0  0  0  0  0  0  0  0  0  0
  -24.8836   19.8710  -19.3956 C   0  0  0  0  0  0  0  0  0  0  0  0
  -24.6055   20.4390  -18.0906 N   0  0  0  0  0  0  0  0  0  0  0  0
  -23.8909   21.6774  -18.2871 C   0  0  0  0  0  0  0  0  0  0  0  0
 42 43  1  0  0  0
 43 44  1  0  0  0
 43 37  1  0  0  0
 37 38  1  0  0  0
 38 39  1  0  0  0
 39 40  1  0  0  0
 40 36  1  0  0  0
 36 26  1  0  0  0
 26 27  2  0  0  0
 27 28  1  0  0  0
 28 29  2  0  0  0
 29 30  1  0  0  0
 30 31  2  0  0  0
 31 32  1  0  0  0
 32 33  1  0  0  0
 32 34  1  0  0  0
 32 35  1  0  0  0
 29  1  1  0  0  0
  1  2  2  0  0  0
  1  3  1  0  0  0
  3  5  1  0  0  0
  5  6  2  0  0  0
  6  7  1  0  0  0
  7  8  2  0  0  0
  8  9  1  0  0  0
  8 10  1  0  0  0
 10 12  1  0  0  0
 12 14  1  0  0  0
 14 15  2  0  0  0
 15 16  1  0  0  0
 16 17  2  0  0  0
 17 18  1  0  0  0
 18 19  2  0  0  0
 18 20  1  0  0  0
 20 21  2  0  0  0
 21 22  1  0  0  0
 22 23  2  0  0  0
 23 24  1  0  0  0
 24 25  2  0  0  0
 10 11  2  0  0  0
 40 41  1  0  0  0
 41 37  1  0  0  0
 31 26  1  0  0  0
 11  5  1  0  0  0
 19 14  1  0  0  0
 25 20  1  0  0  0
  3  4  1  0  0  0
 12 13  1  0  0  0
M  END
> <minimizedAffinity>
-7.94396

> <CNNscore>
0.0917651653

> <CNNaffinity>
6.8222284317

> <CNN_VS>
0.6260429025

> <CNNaffinity_variance>
0.1708849967

$$$$
[H]c1nc([H])c(-c2nc(N([H])c3c([H])c(N([H])C(=O)c4c([H])c([H])c(C([H])([H])N5C([H])([H])C([H])([H])[C@@]([H])(N(C([H])([H])[H])C([H])([H])[H])C5([H])[H])c(C(F)(F)F)c4[H])c([H])c([H])c3C([H])([H])[H])nc([H])c2[H])c([H])n1


 44 48  0  0  0  0  0  0  0  0999 V2000
  -17.7693   11.5935  -19.2901 C   0  0  0  0  0  0  0  0  0  0  0  0
  -16.5141   11.5877  -19.2736 O   0  0  0  0  0  0  0  0  0  0  0  0
  -18.4798   12.2867  -20.2811 N   0  0  0  0  0  0  0  0  0  0  0  0
  -19.5482   12.2306  -20.1867 H   0  0  0  0  0  0  0  0  0  0  0  0
  -17.9680   13.0356  -21.3647 C   0  0  0  0  0  0  0  0  0  0  0  0
  -17.1918   12.3704  -22.3325 C   0  0  0  0  0  0  0  0  0  0  0  0
  -16.6457   13.0234  -23.4043 C   0  0  0  0  0  0  0  0  0  0  0  0
  -16.8570   14.3777  -23.5492 C   0  0  0  0  0  0  0  0  0  0  0  0
  -16.2782   15.1209  -24.6968 C   0  0  0  0  0  0  0  0  0  0  0  0
  -17.6196   15.1029  -22.6216 C   0  0  0  0  0  0  0  0  0  0  0  0
  -18.1449   14.3909  -21.5617 C   0  0  0  0  0  0  0  0  0  0  0  0
  -17.8177   16.4694  -22.8490 N   0  0  0  0  0  0  0  0  0  0  0  0
  -16.9796   16.9955  -23.2957 H   0  0  0  0  0  0  0  0  0  0  0  0
  -18.9305   17.2830  -22.6014 C   0  0  0  0  0  0  0  0  0  0  0  0
  -19.0463   17.7775  -21.3276 N   0  0  0  0  0  0  0  0  0  0  0  0
  -20.0651   18.5429  -20.9418 C   0  0  0  0  0  0  0  0  0  0  0  0
  -21.0548   18.8633  -21.8425 C   0  0  0  0  0  0  0  0  0  0  0  0
  -20.9627   18.3794  -23.1269 C   0  0  0  0  0  0  0  0  0  0  0  0
  -19.9079   17.6182  -23.4342 N   0  0  0  0  0  0  0  0  0  0  0  0
  -21.9895   18.6599  -24.1330 C   0  0  0  0  0  0  0  0  0  0  0  0
  -22.3443   19.9134  -24.5065 C   0  0  0  0  0  0  0  0  0  0  0  0
  -23.3115   20.0735  -25.4349 N   0  0  0  0  0  0  0  0  0  0  0  0
  -23.9393   19.0462  -26.0064 C   0  0  0  0  0  0  0  0  0  0  0  0
  -23.5931   17.8088  -25.6416 N   0  0  0  0  0  0  0  0  0  0  0  0
  -22.6410   17.5707  -24.7253 C   0  0  0  0  0  0  0  0  0  0  0  0
  -19.7873    9.4652  -16.1431 C   0  0  0  0  0  0  0  0  0  0  0  0
  -18.7695    8.8935  -16.8511 C   0  0  0  0  0  0  0  0  0  0  0  0
  -18.0888    9.5610  -17.8820 C   0  0  0  0  0  0  0  0  0  0  0  0
  -18.4293   10.8399  -18.2215 C   0  0  0  0  0  0  0  0  0  0  0  0
  -19.4455   11.4398  -17.5287 C   0  0  0  0  0  0  0  0  0  0  0  0
  -20.1203   10.7741  -16.5052 C   0  0  0  0  0  0  0  0  0  0  0  0
  -21.1977   11.4569  -15.7952 C   0  0  0  0  0  0  0  0  0  0  0  0
  -22.4239   10.8394  -15.8439 F   0  0  0  0  0  0  0  0  0  0  0  0
  -21.4055   12.6982  -16.4224 F   0  0  0  0  0  0  0  0  0  0  0  0
  -20.8538   11.8086  -14.4933 F   0  0  0  0  0  0  0  0  0  0  0  0
  -20.4567    8.7735  -15.0623 C   0  0  0  0  0  0  0  0  0  0  0  0
  -20.2565    8.7205  -11.7869 C   0  0  0  0  0  0  0  0  0  0  0  0
  -20.4272    7.2622  -12.0788 C   0  0  0  0  0  0  0  0  0  0  0  0
  -19.8198    7.0711  -13.4553 C   0  0  0  0  0  0  0  0  0  0  0  0
  -19.5861    8.3617  -14.0179 N   0  0  0  0  0  0  0  0  0  0  0  0
  -19.4539    9.2674  -12.9210 C   0  0  0  0  0  0  0  0  0  0  0  0
  -18.7052   10.0112  -10.6036 C   0  0  0  0  0  0  0  0  0  0  0  0
  -19.6134    8.8851  -10.5037 N   0  0  0  0  0  0  0  0  0  0  0  0
  -18.8450    7.7261  -10.1176 C   0  0  0  0  0  0  0  0  0  0  0  0
 42 43  1  0  0  0
 43 44  1  0  0  0
 43 37  1  0  0  0
 37 38  1  0  0  0
 38 39  1  0  0  0
 39 40  1  0  0  0
 40 36  1  0  0  0
 36 26  1  0  0  0
 26 27  2  0  0  0
 27 28  1  0  0  0
 28 29  2  0  0  0
 29 30  1  0  0  0
 30 31  2  0  0  0
 31 32  1  0  0  0
 32 33  1  0  0  0
 32 34  1  0  0  0
 32 35  1  0  0  0
 29  1  1  0  0  0
  1  2  2  0  0  0
  1  3  1  0  0  0
  3  5  1  0  0  0
  5  6  2  0  0  0
  6  7  1  0  0  0
  7  8  2  0  0  0
  8  9  1  0  0  0
  8 10  1  0  0  0
 10 12  1  0  0  0
 12 14  1  0  0  0
 14 15  2  0  0  0
 15 16  1  0  0  0
 16 17  2  0  0  0
 17 18  1  0  0  0
 18 19  2  0  0  0
 18 20  1  0  0  0
 20 21  2  0  0  0
 21 22  1  0  0  0
 22 23  2  0  0  0
 23 24  1  0  0  0
 24 25  2  0  0  0
 10 11  2  0  0  0
 40 41  1  0  0  0
 41 37  1  0  0  0
 31 26  1  0  0  0
 11  5  1  0  0  0
 19 14  1  0  0  0
 25 20  1  0  0  0
  3  4  1  0  0  0
 12 13  1  0  0  0
M  END
> <minimizedAffinity>
-9.14173

> <CNNscore>
0.0791496411

> <CNNaffinity>
6.6324257851

> <CNN_VS>
0.5249541402

> <CNNaffinity_variance>
0.0671897978

$$$$
[H]c1nc([H])c(-c2nc(N([H])c3c([H])c(N([H])C(=O)c4c([H])c([H])c(C([H])([H])N5C([H])([H])C([H])([H])[C@@]([H])(N(C([H])([H])[H])C([H])([H])[H])C5([H])[H])c(C(F)(F)F)c4[H])c([H])c([H])c3C([H])([H])[H])nc([H])c2[H])c([H])n1


 44 48  0  0  0  0  0  0  0  0999 V2000
  -17.7751   11.5791  -19.2700 C   0  0  0  0  0  0  0  0  0  0  0  0
  -16.5199   11.5918  -19.2661 O   0  0  0  0  0  0  0  0  0  0  0  0
  -18.5062   12.2990  -20.2263 N   0  0  0  0  0  0  0  0  0  0  0  0
  -19.5725   12.2230  -20.1236 H   0  0  0  0  0  0  0  0  0  0  0  0
  -18.0169   13.0968  -21.2852 C   0  0  0  0  0  0  0  0  0  0  0  0
  -17.2979   12.4699  -22.3204 C   0  0  0  0  0  0  0  0  0  0  0  0
  -16.7765   13.1705  -23.3744 C   0  0  0  0  0  0  0  0  0  0  0  0
  -16.9561   14.5358  -23.4326 C   0  0  0  0  0  0  0  0  0  0  0  0
  -16.4027   15.3301  -24.5583 C   0  0  0  0  0  0  0  0  0  0  0  0
  -17.6615   15.2246  -22.4346 C   0  0  0  0  0  0  0  0  0  0  0  0
  -18.1641   14.4653  -21.3967 C   0  0  0  0  0  0  0  0  0  0  0  0
  -17.8308   16.6066  -22.5749 N   0  0  0  0  0  0  0  0  0  0  0  0
  -16.9484   17.1565  -22.8877 H   0  0  0  0  0  0  0  0  0  0  0  0
  -18.9616   17.4106  -22.3847 C   0  0  0  0  0  0  0  0  0  0  0  0
  -19.1359   17.9198  -21.1233 N   0  0  0  0  0  0  0  0  0  0  0  0
  -20.1782   18.6785  -20.7905 C   0  0  0  0  0  0  0  0  0  0  0  0
  -21.1326   18.9764  -21.7358 C   0  0  0  0  0  0  0  0  0  0  0  0
  -20.9816   18.4775  -23.0088 C   0  0  0  0  0  0  0  0  0  0  0  0
  -19.9068   17.7244  -23.2619 N   0  0  0  0  0  0  0  0  0  0  0  0
  -21.9683   18.7337  -24.0604 C   0  0  0  0  0  0  0  0  0  0  0  0
  -22.2766   19.9758  -24.5066 C   0  0  0  0  0  0  0  0  0  0  0  0
  -23.2095   20.1142  -25.4729 N   0  0  0  0  0  0  0  0  0  0  0  0
  -23.8471   19.0761  -26.0133 C   0  0  0  0  0  0  0  0  0  0  0  0
  -23.5466   17.8500  -25.5769 N   0  0  0  0  0  0  0  0  0  0  0  0
  -22.6306   17.6335  -24.6194 C   0  0  0  0  0  0  0  0  0  0  0  0
  -19.7322    9.2970  -16.1931 C   0  0  0  0  0  0  0  0  0  0  0  0
  -18.6647    8.7965  -16.8815 C   0  0  0  0  0  0  0  0  0  0  0  0
  -18.0021    9.5156  -17.8892 C   0  0  0  0  0  0  0  0  0  0  0  0
  -18.4126   10.7749  -18.2248 C   0  0  0  0  0  0  0  0  0  0  0  0
  -19.4799   11.3038  -17.5513 C   0  0  0  0  0  0  0  0  0  0  0  0
  -20.1365   10.5869  -16.5509 C   0  0  0  0  0  0  0  0  0  0  0  0
  -21.2705   11.1945  -15.8610 C   0  0  0  0  0  0  0  0  0  0  0  0
  -22.4509   10.4953  -15.9315 F   0  0  0  0  0  0  0  0  0  0  0  0
  -21.5506   12.4193  -16.4926 F   0  0  0  0  0  0  0  0  0  0  0  0
  -20.9749   11.5680  -14.5533 F   0  0  0  0  0  0  0  0  0  0  0  0
  -20.3832    8.5539  -15.1354 C   0  0  0  0  0  0  0  0  0  0  0  0
  -21.0888    5.7771  -13.5347 C   0  0  0  0  0  0  0  0  0  0  0  0
  -22.0746    5.7081  -14.6591 C   0  0  0  0  0  0  0  0  0  0  0  0
  -21.4128    6.4595  -15.7983 C   0  0  0  0  0  0  0  0  0  0  0  0
  -20.2757    7.1441  -15.2741 N   0  0  0  0  0  0  0  0  0  0  0  0
  -19.8727    6.4301  -14.1041 C   0  0  0  0  0  0  0  0  0  0  0  0
  -21.1307    4.4478  -11.6101 C   0  0  0  0  0  0  0  0  0  0  0  0
  -20.8365    4.4470  -13.0301 N   0  0  0  0  0  0  0  0  0  0  0  0
  -19.4615    4.0429  -13.1997 C   0  0  0  0  0  0  0  0  0  0  0  0
 42 43  1  0  0  0
 43 44  1  0  0  0
 43 37  1  0  0  0
 37 38  1  0  0  0
 38 39  1  0  0  0
 39 40  1  0  0  0
 40 36  1  0  0  0
 36 26  1  0  0  0
 26 27  2  0  0  0
 27 28  1  0  0  0
 28 29  2  0  0  0
 29 30  1  0  0  0
 30 31  2  0  0  0
 31 32  1  0  0  0
 32 33  1  0  0  0
 32 34  1  0  0  0
 32 35  1  0  0  0
 29  1  1  0  0  0
  1  2  2  0  0  0
  1  3  1  0  0  0
  3  5  1  0  0  0
  5  6  2  0  0  0
  6  7  1  0  0  0
  7  8  2  0  0  0
  8  9  1  0  0  0
  8 10  1  0  0  0
 10 12  1  0  0  0
 12 14  1  0  0  0
 14 15  2  0  0  0
 15 16  1  0  0  0
 16 17  2  0  0  0
 17 18  1  0  0  0
 18 19  2  0  0  0
 18 20  1  0  0  0
 20 21  2  0  0  0
 21 22  1  0  0  0
 22 23  2  0  0  0
 23 24  1  0  0  0
 24 25  2  0  0  0
 10 11  2  0  0  0
 40 41  1  0  0  0
 41 37  1  0  0  0
 31 26  1  0  0  0
 11  5  1  0  0  0
 19 14  1  0  0  0
 25 20  1  0  0  0
  3  4  1  0  0  0
 12 13  1  0  0  0
M  END
> <minimizedAffinity>
-8.99806

> <CNNscore>
0.0650630891

> <CNNaffinity>
6.5074586868

> <CNN_VS>
0.4233953655

> <CNNaffinity_variance>
0.0702460855

$$$$
[H]c1nc([H])c(-c2nc(N([H])c3c([H])c(N([H])C(=O)c4c([H])c([H])c(C([H])([H])N5C([H])([H])C([H])([H])[C@@]([H])(N(C([H])([H])[H])C([H])([H])[H])C5([H])[H])c(C(F)(F)F)c4[H])c([H])c([H])c3C([H])([H])[H])nc([H])c2[H])c([H])n1


 44 48  0  0  0  0  0  0  0  0999 V2000
  -20.2653   14.0005  -17.6760 C   0  0  0  0  0  0  0  0  0  0  0  0
  -19.2287   14.6354  -17.3629 O   0  0  0  0  0  0  0  0  0  0  0  0
  -21.1981   14.5317  -18.5788 N   0  0  0  0  0  0  0  0  0  0  0  0
  -22.0508   13.9047  -18.7609 H   0  0  0  0  0  0  0  0  0  0  0  0
  -21.1512   15.7683  -19.2613 C   0  0  0  0  0  0  0  0  0  0  0  0
  -21.7267   16.8961  -18.6462 C   0  0  0  0  0  0  0  0  0  0  0  0
  -21.7383   18.1270  -19.2446 C   0  0  0  0  0  0  0  0  0  0  0  0
  -21.1701   18.2770  -20.4914 C   0  0  0  0  0  0  0  0  0  0  0  0
  -21.1664   19.5957  -21.1736 C   0  0  0  0  0  0  0  0  0  0  0  0
  -20.5800   17.1953  -21.1620 C   0  0  0  0  0  0  0  0  0  0  0  0
  -20.5983   15.9789  -20.5091 C   0  0  0  0  0  0  0  0  0  0  0  0
  -19.9956   17.4280  -22.4120 N   0  0  0  0  0  0  0  0  0  0  0  0
  -20.5633   18.0663  -23.0821 H   0  0  0  0  0  0  0  0  0  0  0  0
  -18.7835   16.9773  -22.9499 C   0  0  0  0  0  0  0  0  0  0  0  0
  -18.1314   17.8488  -23.7840 N   0  0  0  0  0  0  0  0  0  0  0  0
  -16.9835   17.5463  -24.3868 C   0  0  0  0  0  0  0  0  0  0  0  0
  -16.4098   16.3130  -24.1787 C   0  0  0  0  0  0  0  0  0  0  0  0
  -17.0442   15.4200  -23.3466 C   0  0  0  0  0  0  0  0  0  0  0  0
  -18.1929   15.8012  -22.7795 N   0  0  0  0  0  0  0  0  0  0  0  0
  -16.5051   14.0815  -23.0958 C   0  0  0  0  0  0  0  0  0  0  0  0
  -15.4178   13.5842  -23.7341 C   0  0  0  0  0  0  0  0  0  0  0  0
  -15.0011   12.3329  -23.4447 N   0  0  0  0  0  0  0  0  0  0  0  0
  -15.6153   11.5569  -22.5521 C   0  0  0  0  0  0  0  0  0  0  0  0
  -16.6873   12.0426  -21.9205 N   0  0  0  0  0  0  0  0  0  0  0  0
  -17.1606   13.2769  -22.1552 C   0  0  0  0  0  0  0  0  0  0  0  0
  -20.6532   10.1148  -15.8714 C   0  0  0  0  0  0  0  0  0  0  0  0
  -21.4770   11.1469  -15.5246 C   0  0  0  0  0  0  0  0  0  0  0  0
  -21.3787   12.4259  -16.0958 C   0  0  0  0  0  0  0  0  0  0  0  0
  -20.4310   12.6895  -17.0441 C   0  0  0  0  0  0  0  0  0  0  0  0
  -19.5910   11.6741  -17.4128 C   0  0  0  0  0  0  0  0  0  0  0  0
  -19.6907   10.4045  -16.8434 C   0  0  0  0  0  0  0  0  0  0  0  0
  -18.7713    9.3539  -17.2701 C   0  0  0  0  0  0  0  0  0  0  0  0
  -17.9159    8.8861  -16.3024 F   0  0  0  0  0  0  0  0  0  0  0  0
  -17.9249    9.8978  -18.2527 F   0  0  0  0  0  0  0  0  0  0  0  0
  -19.4084    8.3114  -17.9366 F   0  0  0  0  0  0  0  0  0  0  0  0
  -20.7894    8.7941  -15.2952 C   0  0  0  0  0  0  0  0  0  0  0  0
  -20.9687    6.7143  -12.7628 C   0  0  0  0  0  0  0  0  0  0  0  0
  -19.5164    7.0751  -12.7241 C   0  0  0  0  0  0  0  0  0  0  0  0
  -19.4528    8.4787  -13.2952 C   0  0  0  0  0  0  0  0  0  0  0  0
  -20.7216    8.7769  -13.8762 N   0  0  0  0  0  0  0  0  0  0  0  0
  -21.6787    7.9476  -13.2150 C   0  0  0  0  0  0  0  0  0  0  0  0
  -21.1207    4.8398  -11.3714 C   0  0  0  0  0  0  0  0  0  0  0  0
  -21.3899    6.2622  -11.4569 N   0  0  0  0  0  0  0  0  0  0  0  0
  -22.8011    6.4626  -11.2309 C   0  0  0  0  0  0  0  0  0  0  0  0
 42 43  1  0  0  0
 43 44  1  0  0  0
 43 37  1  0  0  0
 37 38  1  0  0  0
 38 39  1  0  0  0
 39 40  1  0  0  0
 40 36  1  0  0  0
 36 26  1  0  0  0
 26 27  2  0  0  0
 27 28  1  0  0  0
 28 29  2  0  0  0
 29 30  1  0  0  0
 30 31  2  0  0  0
 31 32  1  0  0  0
 32 33  1  0  0  0
 32 34  1  0  0  0
 32 35  1  0  0  0
 29  1  1  0  0  0
  1  2  2  0  0  0
  1  3  1  0  0  0
  3  5  1  0  0  0
  5  6  2  0  0  0
  6  7  1  0  0  0
  7  8  2  0  0  0
  8  9  1  0  0  0
  8 10  1  0  0  0
 10 12  1  0  0  0
 12 14  1  0  0  0
 14 15  2  0  0  0
 15 16  1  0  0  0
 16 17  2  0  0  0
 17 18  1  0  0  0
 18 19  2  0  0  0
 18 20  1  0  0  0
 20 21  2  0  0  0
 21 22  1  0  0  0
 22 23  2  0  0  0
 23 24  1  0  0  0
 24 25  2  0  0  0
 10 11  2  0  0  0
 40 41  1  0  0  0
 41 37  1  0  0  0
 31 26  1  0  0  0
 11  5  1  0  0  0
 19 14  1  0  0  0
 25 20  1  0  0  0
  3  4  1  0  0  0
 12 13  1  0  0  0
M  END
> <minimizedAffinity>
-7.83457

> <CNNscore>
0.0592685267

> <CNNaffinity>
6.7171478271

> <CNN_VS>
0.3981154561

> <CNNaffinity_variance>
0.0965233222

$$$$
[H]c1nc([H])c(-c2nc(N([H])c3c([H])c(N([H])C(=O)c4c([H])c([H])c(C([H])([H])N5C([H])([H])C([H])([H])[C@@]([H])(N(C([H])([H])[H])C([H])([H])[H])C5([H])[H])c(C(F)(F)F)c4[H])c([H])c([H])c3C([H])([H])[H])nc([H])c2[H])c([H])n1


 44 48  0  0  0  0  0  0  0  0999 V2000
  -20.1404   11.3355  -16.1495 C   0  0  0  0  0  0  0  0  0  0  0  0
  -19.8021   10.1309  -16.0481 O   0  0  0  0  0  0  0  0  0  0  0  0
  -20.8145   11.9911  -15.1088 N   0  0  0  0  0  0  0  0  0  0  0  0
  -21.0636   13.0156  -15.3134 H   0  0  0  0  0  0  0  0  0  0  0  0
  -21.1985   11.4744  -13.8508 C   0  0  0  0  0  0  0  0  0  0  0  0
  -22.5315   11.0574  -13.6755 C   0  0  0  0  0  0  0  0  0  0  0  0
  -22.9896   10.5599  -12.4854 C   0  0  0  0  0  0  0  0  0  0  0  0
  -22.1244   10.4606  -11.4172 C   0  0  0  0  0  0  0  0  0  0  0  0
  -22.5854    9.9292  -10.1098 C   0  0  0  0  0  0  0  0  0  0  0  0
  -20.7833   10.8587  -11.5219 C   0  0  0  0  0  0  0  0  0  0  0  0
  -20.3786   11.3522  -12.7463 C   0  0  0  0  0  0  0  0  0  0  0  0
  -19.9548   10.7009  -10.4052 N   0  0  0  0  0  0  0  0  0  0  0  0
  -20.1974   11.3254   -9.5509 H   0  0  0  0  0  0  0  0  0  0  0  0
  -18.8558    9.8581  -10.1972 C   0  0  0  0  0  0  0  0  0  0  0  0
  -17.8138   10.3893   -9.4811 N   0  0  0  0  0  0  0  0  0  0  0  0
  -16.6949    9.7135   -9.2284 C   0  0  0  0  0  0  0  0  0  0  0  0
  -16.5566    8.4267   -9.6959 C   0  0  0  0  0  0  0  0  0  0  0  0
  -17.5872    7.8705  -10.4176 C   0  0  0  0  0  0  0  0  0  0  0  0
  -18.6771    8.6153  -10.6272 N   0  0  0  0  0  0  0  0  0  0  0  0
  -17.5021    6.5152  -10.9660 C   0  0  0  0  0  0  0  0  0  0  0  0
  -16.3943    5.7404  -10.8700 C   0  0  0  0  0  0  0  0  0  0  0  0
  -16.4058    4.5063  -11.4178 N   0  0  0  0  0  0  0  0  0  0  0  0
  -17.4662    4.0103  -12.0546 C   0  0  0  0  0  0  0  0  0  0  0  0
  -18.5605    4.7700  -12.1519 N   0  0  0  0  0  0  0  0  0  0  0  0
  -18.6240    6.0066  -11.6327 C   0  0  0  0  0  0  0  0  0  0  0  0
  -19.1799   13.3680  -19.8172 C   0  0  0  0  0  0  0  0  0  0  0  0
  -18.5034   12.2490  -19.4244 C   0  0  0  0  0  0  0  0  0  0  0  0
  -18.7933   11.5608  -18.2353 C   0  0  0  0  0  0  0  0  0  0  0  0
  -19.7891   11.9976  -17.4079 C   0  0  0  0  0  0  0  0  0  0  0  0
  -20.4855   13.1166  -17.7757 C   0  0  0  0  0  0  0  0  0  0  0  0
  -20.1951   13.7986  -18.9574 C   0  0  0  0  0  0  0  0  0  0  0  0
  -20.9666   14.9877  -19.3063 C   0  0  0  0  0  0  0  0  0  0  0  0
  -20.2471   16.1541  -19.4014 F   0  0  0  0  0  0  0  0  0  0  0  0
  -21.8827   15.2251  -18.2661 F   0  0  0  0  0  0  0  0  0  0  0  0
  -21.7839   14.7993  -20.4169 F   0  0  0  0  0  0  0  0  0  0  0  0
  -18.8887   14.0464  -21.0621 C   0  0  0  0  0  0  0  0  0  0  0  0
  -16.8698   14.7938  -23.5392 C   0  0  0  0  0  0  0  0  0  0  0  0
  -16.5865   15.9236  -22.5989 C   0  0  0  0  0  0  0  0  0  0  0  0
  -16.8497   15.3518  -21.2191 C   0  0  0  0  0  0  0  0  0  0  0  0
  -17.5048   14.0942  -21.3799 N   0  0  0  0  0  0  0  0  0  0  0  0
  -17.1438   13.6081  -22.6738 C   0  0  0  0  0  0  0  0  0  0  0  0
  -14.8790   13.6002  -23.8312 C   0  0  0  0  0  0  0  0  0  0  0  0
  -15.7420   14.6047  -24.4222 N   0  0  0  0  0  0  0  0  0  0  0  0
  -14.9678   15.8102  -24.5962 C   0  0  0  0  0  0  0  0  0  0  0  0
 42 43  1  0  0  0
 43 44  1  0  0  0
 43 37  1  0  0  0
 37 38  1  0  0  0
 38 39  1  0  0  0
 39 40  1  0  0  0
 40 36  1  0  0  0
 36 26  1  0  0  0
 26 27  2  0  0  0
 27 28  1  0  0  0
 28 29  2  0  0  0
 29 30  1  0  0  0
 30 31  2  0  0  0
 31 32  1  0  0  0
 32 33  1  0  0  0
 32 34  1  0  0  0
 32 35  1  0  0  0
 29  1  1  0  0  0
  1  2  2  0  0  0
  1  3  1  0  0  0
  3  5  1  0  0  0
  5  6  2  0  0  0
  6  7  1  0  0  0
  7  8  2  0  0  0
  8  9  1  0  0  0
  8 10  1  0  0  0
 10 12  1  0  0  0
 12 14  1  0  0  0
 14 15  2  0  0  0
 15 16  1  0  0  0
 16 17  2  0  0  0
 17 18  1  0  0  0
 18 19  2  0  0  0
 18 20  1  0  0  0
 20 21  2  0  0  0
 21 22  1  0  0  0
 22 23  2  0  0  0
 23 24  1  0  0  0
 24 25  2  0  0  0
 10 11  2  0  0  0
 40 41  1  0  0  0
 41 37  1  0  0  0
 31 26  1  0  0  0
 11  5  1  0  0  0
 19 14  1  0  0  0
 25 20  1  0  0  0
  3  4  1  0  0  0
 12 13  1  0  0  0
M  END
> <minimizedAffinity>
-8.49329

> <CNNscore>
0.0589533411

> <CNNaffinity>
5.9459214211

> <CNN_VS>
0.3505319357

> <CNNaffinity_variance>
0.4038500786

$$$$
[H]c1nc([H])c(-c2nc(N([H])c3c([H])c(N([H])C(=O)c4c([H])c([H])c(C([H])([H])N5C([H])([H])C([H])([H])[C@@]([H])(N(C([H])([H])[H])C([H])([H])[H])C5([H])[H])c(C(F)(F)F)c4[H])c([H])c([H])c3C([H])([H])[H])nc([H])c2[H])c([H])n1


 44 48  0  0  0  0  0  0  0  0999 V2000
  -19.4718   11.5730  -17.4324 C   0  0  0  0  0  0  0  0  0  0  0  0
  -20.0184   12.6434  -17.7946 O   0  0  0  0  0  0  0  0  0  0  0  0
  -18.4736   10.9675  -18.2097 N   0  0  0  0  0  0  0  0  0  0  0  0
  -18.0882   10.0498  -17.8062 H   0  0  0  0  0  0  0  0  0  0  0  0
  -17.9276   11.4108  -19.4355 C   0  0  0  0  0  0  0  0  0  0  0  0
  -16.9539   10.6119  -20.0641 C   0  0  0  0  0  0  0  0  0  0  0  0
  -16.3633   10.9749  -21.2443 C   0  0  0  0  0  0  0  0  0  0  0  0
  -16.7275   12.1609  -21.8447 C   0  0  0  0  0  0  0  0  0  0  0  0
  -16.1067   12.5899  -23.1234 C   0  0  0  0  0  0  0  0  0  0  0  0
  -17.6904   13.0056  -21.2728 C   0  0  0  0  0  0  0  0  0  0  0  0
  -18.2513   12.5871  -20.0826 C   0  0  0  0  0  0  0  0  0  0  0  0
  -18.0325   14.1793  -21.9537 N   0  0  0  0  0  0  0  0  0  0  0  0
  -18.6167   14.0417  -22.8585 H   0  0  0  0  0  0  0  0  0  0  0  0
  -17.7517   15.5193  -21.6588 C   0  0  0  0  0  0  0  0  0  0  0  0
  -16.6636   15.7462  -20.8555 N   0  0  0  0  0  0  0  0  0  0  0  0
  -16.2931   16.9662  -20.4723 C   0  0  0  0  0  0  0  0  0  0  0  0
  -17.0180   18.0595  -20.8875 C   0  0  0  0  0  0  0  0  0  0  0  0
  -18.1146   17.8592  -21.6936 C   0  0  0  0  0  0  0  0  0  0  0  0
  -18.4194   16.6032  -22.0339 N   0  0  0  0  0  0  0  0  0  0  0  0
  -18.9467   18.9724  -22.1555 C   0  0  0  0  0  0  0  0  0  0  0  0
  -19.8869   19.5705  -21.3840 C   0  0  0  0  0  0  0  0  0  0  0  0
  -20.6147   20.5832  -21.9015 N   0  0  0  0  0  0  0  0  0  0  0  0
  -20.4498   21.0260  -23.1477 C   0  0  0  0  0  0  0  0  0  0  0  0
  -19.5245   20.4397  -23.9119 N   0  0  0  0  0  0  0  0  0  0  0  0
  -18.7627   19.4275  -23.4673 C   0  0  0  0  0  0  0  0  0  0  0  0
  -20.8299    9.8107  -13.7506 C   0  0  0  0  0  0  0  0  0  0  0  0
  -20.6359   11.1571  -13.8672 C   0  0  0  0  0  0  0  0  0  0  0  0
  -20.1960   11.7642  -15.0544 C   0  0  0  0  0  0  0  0  0  0  0  0
  -19.9405   11.0094  -16.1643 C   0  0  0  0  0  0  0  0  0  0  0  0
  -20.1268    9.6565  -16.0782 C   0  0  0  0  0  0  0  0  0  0  0  0
  -20.5635    9.0560  -14.8972 C   0  0  0  0  0  0  0  0  0  0  0  0
  -20.7474    7.6084  -14.8552 C   0  0  0  0  0  0  0  0  0  0  0  0
  -19.8422    6.9182  -14.0861 F   0  0  0  0  0  0  0  0  0  0  0  0
  -20.5509    7.1131  -16.1566 F   0  0  0  0  0  0  0  0  0  0  0  0
  -22.0559    7.2346  -14.5637 F   0  0  0  0  0  0  0  0  0  0  0  0
  -21.3142    9.2056  -12.5284 C   0  0  0  0  0  0  0  0  0  0  0  0
  -19.3719    7.2770  -10.7176 C   0  0  0  0  0  0  0  0  0  0  0  0
  -18.3515    8.0421  -11.5013 C   0  0  0  0  0  0  0  0  0  0  0  0
  -19.0095    9.3777  -11.7901 C   0  0  0  0  0  0  0  0  0  0  0  0
  -20.3915    9.2718  -11.4501 N   0  0  0  0  0  0  0  0  0  0  0  0
  -20.4937    8.2322  -10.4755 C   0  0  0  0  0  0  0  0  0  0  0  0
  -17.3400    6.7159   -9.7030 C   0  0  0  0  0  0  0  0  0  0  0  0
  -18.7743    6.7812   -9.4993 N   0  0  0  0  0  0  0  0  0  0  0  0
  -19.2359    5.4577   -9.1557 C   0  0  0  0  0  0  0  0  0  0  0  0
 42 43  1  0  0  0
 43 44  1  0  0  0
 43 37  1  0  0  0
 37 38  1  0  0  0
 38 39  1  0  0  0
 39 40  1  0  0  0
 40 36  1  0  0  0
 36 26  1  0  0  0
 26 27  2  0  0  0
 27 28  1  0  0  0
 28 29  2  0  0  0
 29 30  1  0  0  0
 30 31  2  0  0  0
 31 32  1  0  0  0
 32 33  1  0  0  0
 32 34  1  0  0  0
 32 35  1  0  0  0
 29  1  1  0  0  0
  1  2  2  0  0  0
  1  3  1  0  0  0
  3  5  1  0  0  0
  5  6  2  0  0  0
  6  7  1  0  0  0
  7  8  2  0  0  0
  8  9  1  0  0  0
  8 10  1  0  0  0
 10 12  1  0  0  0
 12 14  1  0  0  0
 14 15  2  0  0  0
 15 16  1  0  0  0
 16 17  2  0  0  0
 17 18  1  0  0  0
 18 19  2  0  0  0
 18 20  1  0  0  0
 20 21  2  0  0  0
 21 22  1  0  0  0
 22 23  2  0  0  0
 23 24  1  0  0  0
 24 25  2  0  0  0
 10 11  2  0  0  0
 40 41  1  0  0  0
 41 37  1  0  0  0
 31 26  1  0  0  0
 11  5  1  0  0  0
 19 14  1  0  0  0
 25 20  1  0  0  0
  3  4  1  0  0  0
 12 13  1  0  0  0
M  END
> <minimizedAffinity>
-8.17375

> <CNNscore>
0.0521729439

> <CNNaffinity>
6.2925658226

> <CNN_VS>
0.3283016980

> <CNNaffinity_variance>
0.1330682933

$$$$
[H]c1nc([H])c(-c2nc(N([H])c3c([H])c(N([H])C(=O)c4c([H])c([H])c(C([H])([H])N5C([H])([H])C([H])([H])[C@@]([H])(N(C([H])([H])[H])C([H])([H])[H])C5([H])[H])c(C(F)(F)F)c4[H])c([H])c([H])c3C([H])([H])[H])nc([H])c2[H])c([H])n1


 44 48  0  0  0  0  0  0  0  0999 V2000
  -18.5682   13.0954  -19.3117 C   0  0  0  0  0  0  0  0  0  0  0  0
  -18.0260   14.1812  -18.9913 O   0  0  0  0  0  0  0  0  0  0  0  0
  -18.4688   12.5907  -20.6166 N   0  0  0  0  0  0  0  0  0  0  0  0
  -18.9825   11.6612  -20.7765 H   0  0  0  0  0  0  0  0  0  0  0  0
  -17.7891   13.1489  -21.7228 C   0  0  0  0  0  0  0  0  0  0  0  0
  -16.7905   12.3824  -22.3528 C   0  0  0  0  0  0  0  0  0  0  0  0
  -16.0741   12.8532  -23.4198 C   0  0  0  0  0  0  0  0  0  0  0  0
  -16.3316   14.1192  -23.9003 C   0  0  0  0  0  0  0  0  0  0  0  0
  -15.5730   14.6656  -25.0537 C   0  0  0  0  0  0  0  0  0  0  0  0
  -17.3122   14.9372  -23.3195 C   0  0  0  0  0  0  0  0  0  0  0  0
  -18.0023   14.4086  -22.2468 C   0  0  0  0  0  0  0  0  0  0  0  0
  -17.5404   16.1994  -23.8790 N   0  0  0  0  0  0  0  0  0  0  0  0
  -17.0484   16.3858  -24.8288 H   0  0  0  0  0  0  0  0  0  0  0  0
  -18.3114   17.2745  -23.4195 C   0  0  0  0  0  0  0  0  0  0  0  0
  -17.7731   18.0098  -22.3947 N   0  0  0  0  0  0  0  0  0  0  0  0
  -18.4039   19.0433  -21.8410 C   0  0  0  0  0  0  0  0  0  0  0  0
  -19.6491   19.4061  -22.3004 C   0  0  0  0  0  0  0  0  0  0  0  0
  -20.2118   18.6844  -23.3274 C   0  0  0  0  0  0  0  0  0  0  0  0
  -19.5130   17.6614  -23.8289 N   0  0  0  0  0  0  0  0  0  0  0  0
  -21.5426   18.9979  -23.8526 C   0  0  0  0  0  0  0  0  0  0  0  0
  -21.8203   20.1223  -24.5566 C   0  0  0  0  0  0  0  0  0  0  0  0
  -23.0817   20.3312  -24.9906 N   0  0  0  0  0  0  0  0  0  0  0  0
  -24.0757   19.4749  -24.7564 C   0  0  0  0  0  0  0  0  0  0  0  0
  -23.8070   18.3654  -24.0630 N   0  0  0  0  0  0  0  0  0  0  0  0
  -22.5777   18.0891  -23.5990 C   0  0  0  0  0  0  0  0  0  0  0  0
  -20.6360   10.9791  -16.1891 C   0  0  0  0  0  0  0  0  0  0  0  0
  -20.9959   12.2454  -16.5508 C   0  0  0  0  0  0  0  0  0  0  0  0
  -20.3439   12.9627  -17.5667 C   0  0  0  0  0  0  0  0  0  0  0  0
  -19.2994   12.4038  -18.2475 C   0  0  0  0  0  0  0  0  0  0  0  0
  -18.9162   11.1349  -17.9077 C   0  0  0  0  0  0  0  0  0  0  0  0
  -19.5655   10.4248  -16.8976 C   0  0  0  0  0  0  0  0  0  0  0  0
  -19.1197    9.0734  -16.5718 C   0  0  0  0  0  0  0  0  0  0  0  0
  -18.5849    8.9124  -15.3167 F   0  0  0  0  0  0  0  0  0  0  0  0
  -18.0675    8.7466  -17.4456 F   0  0  0  0  0  0  0  0  0  0  0  0
  -20.0787    8.1032  -16.8472 F   0  0  0  0  0  0  0  0  0  0  0  0
  -21.3399   10.2426  -15.1610 C   0  0  0  0  0  0  0  0  0  0  0  0
  -20.6828    9.4101  -12.0552 C   0  0  0  0  0  0  0  0  0  0  0  0
  -19.4582   10.2006  -12.3963 C   0  0  0  0  0  0  0  0  0  0  0  0
  -19.9220   11.1986  -13.4399 C   0  0  0  0  0  0  0  0  0  0  0  0
  -21.2293   10.8164  -13.8660 N   0  0  0  0  0  0  0  0  0  0  0  0
  -21.8029   10.0616  -12.7972 C   0  0  0  0  0  0  0  0  0  0  0  0
  -21.9873   10.2884  -10.3232 C   0  0  0  0  0  0  0  0  0  0  0  0
  -20.8743    9.4085  -10.6232 N   0  0  0  0  0  0  0  0  0  0  0  0
  -19.7177    9.8946   -9.9100 C   0  0  0  0  0  0  0  0  0  0  0  0
 42 43  1  0  0  0
 43 44  1  0  0  0
 43 37  1  0  0  0
 37 38  1  0  0  0
 38 39  1  0  0  0
 39 40  1  0  0  0
 40 36  1  0  0  0
 36 26  1  0  0  0
 26 27  2  0  0  0
 27 28  1  0  0  0
 28 29  2  0  0  0
 29 30  1  0  0  0
 30 31  2  0  0  0
 31 32  1  0  0  0
 32 33  1  0  0  0
 32 34  1  0  0  0
 32 35  1  0  0  0
 29  1  1  0  0  0
  1  2  2  0  0  0
  1  3  1  0  0  0
  3  5  1  0  0  0
  5  6  2  0  0  0
  6  7  1  0  0  0
  7  8  2  0  0  0
  8  9  1  0  0  0
  8 10  1  0  0  0
 10 12  1  0  0  0
 12 14  1  0  0  0
 14 15  2  0  0  0
 15 16  1  0  0  0
 16 17  2  0  0  0
 17 18  1  0  0  0
 18 19  2  0  0  0
 18 20  1  0  0  0
 20 21  2  0  0  0
 21 22  1  0  0  0
 22 23  2  0  0  0
 23 24  1  0  0  0
 24 25  2  0  0  0
 10 11  2  0  0  0
 40 41  1  0  0  0
 41 37  1  0  0  0
 31 26  1  0  0  0
 11  5  1  0  0  0
 19 14  1  0  0  0
 25 20  1  0  0  0
  3  4  1  0  0  0
 12 13  1  0  0  0
M  END
> <minimizedAffinity>
-8.89778

> <CNNscore>
0.0502515510

> <CNNaffinity>
6.4128584862

> <CNN_VS>
0.3222560883

> <CNNaffinity_variance>
0.2065737695

$$$$
[H]c1nc2c(c([H])c1-c1c([H])c([H])c(C([H])([H])N([H])[H])c([H])c1[H])c(-c1c([H])c([H])c([H])c(N([H])C(=O)N([H])c3c([H])c([H])c(C(F)(F)F)c([H])c3F)c1[H])c([H])n2[H]


 43 47  0  0  0  0  0  0  0  0999 V2000
  -19.1658   12.3885  -18.3276 C   0  0  0  0  0  0  0  0  0  0  0  0
  -19.6775   12.5092  -17.0683 C   0  0  0  0  0  0  0  0  0  0  0  0
  -20.6925   13.4269  -16.7500 C   0  0  0  0  0  0  0  0  0  0  0  0
  -21.2237   14.2482  -17.7185 C   0  0  0  0  0  0  0  0  0  0  0  0
  -20.7183   14.1441  -18.9923 C   0  0  0  0  0  0  0  0  0  0  0  0
  -19.7129   13.2493  -19.2947 C   0  0  0  0  0  0  0  0  0  0  0  0
  -16.4160   12.0139  -22.0001 C   0  0  0  0  0  0  0  0  0  0  0  0
  -15.7037   10.7844  -21.9298 C   0  0  0  0  0  0  0  0  0  0  0  0
  -15.8534    9.9373  -20.9350 N   0  0  0  0  0  0  0  0  0  0  0  0
  -16.7084   10.1979  -19.9191 C   0  0  0  0  0  0  0  0  0  0  0  0
  -17.0483    9.5165  -18.7895 N   0  0  0  0  0  0  0  0  0  0  0  0
  -17.9440   10.2114  -18.0986 C   0  0  0  0  0  0  0  0  0  0  0  0
  -18.2174   11.4264  -18.8199 C   0  0  0  0  0  0  0  0  0  0  0  0
  -17.4386   11.3857  -19.9289 C   0  0  0  0  0  0  0  0  0  0  0  0
  -17.2682   12.2893  -20.9960 C   0  0  0  0  0  0  0  0  0  0  0  0
  -16.6264    8.5678  -18.5659 H   0  0  0  0  0  0  0  0  0  0  0  0
  -15.8697   14.6748  -25.3280 C   0  0  0  0  0  0  0  0  0  0  0  0
  -17.0859   14.1437  -24.9676 C   0  0  0  0  0  0  0  0  0  0  0  0
  -17.2535   13.2796  -23.9230 C   0  0  0  0  0  0  0  0  0  0  0  0
  -16.1469   12.8798  -23.1384 C   0  0  0  0  0  0  0  0  0  0  0  0
  -14.9396   13.4041  -23.4972 C   0  0  0  0  0  0  0  0  0  0  0  0
  -14.7710   14.2959  -24.5712 C   0  0  0  0  0  0  0  0  0  0  0  0
  -14.4196   16.3918  -26.2443 N   0  0  0  0  0  0  0  0  0  0  0  0
  -15.6784   15.6612  -26.4510 C   0  0  0  0  0  0  0  0  0  0  0  0
  -13.7388   15.6897  -25.8301 H   0  0  0  0  0  0  0  0  0  0  0  0
  -14.0105   16.6016  -27.1958 H   0  0  0  0  0  0  0  0  0  0  0  0
  -21.2664   14.9076  -20.0698 N   0  0  0  0  0  0  0  0  0  0  0  0
  -20.6888   16.2187  -20.3309 C   0  0  0  0  0  0  0  0  0  0  0  0
  -19.7462   16.4900  -19.5711 O   0  0  0  0  0  0  0  0  0  0  0  0
  -21.1949   17.0473  -21.3475 N   0  0  0  0  0  0  0  0  0  0  0  0
  -22.0383   14.5030  -20.6203 H   0  0  0  0  0  0  0  0  0  0  0  0
  -20.0790   17.8680  -21.2094 H   0  0  0  0  0  0  0  0  0  0  0  0
  -21.6371   17.8435  -22.2802 C   0  0  0  0  0  0  0  0  0  0  0  0
  -20.9551   18.8649  -22.9816 C   0  0  0  0  0  0  0  0  0  0  0  0
  -21.6007   19.7079  -23.8602 C   0  0  0  0  0  0  0  0  0  0  0  0
  -22.9324   19.5793  -24.0855 C   0  0  0  0  0  0  0  0  0  0  0  0
  -23.6803   18.5882  -23.4231 C   0  0  0  0  0  0  0  0  0  0  0  0
  -23.0486   17.7765  -22.5763 C   0  0  0  0  0  0  0  0  0  0  0  0
  -23.7615   16.7840  -21.9128 F   0  0  0  0  0  0  0  0  0  0  0  0
  -23.5896   20.4819  -25.0714 C   0  0  0  0  0  0  0  0  0  0  0  0
  -24.8305   19.9308  -25.4385 F   0  0  0  0  0  0  0  0  0  0  0  0
  -23.8033   21.7151  -24.4488 F   0  0  0  0  0  0  0  0  0  0  0  0
  -22.8268   20.5683  -26.1996 F   0  0  0  0  0  0  0  0  0  0  0  0
 23 24  1  0  0  0
 24 17  1  0  0  0
 17 18  2  0  0  0
 18 19  1  0  0  0
 19 20  2  0  0  0
 20 21  1  0  0  0
 21 22  2  0  0  0
 20  7  1  0  0  0
  7  8  2  0  0  0
  8  9  1  0  0  0
  9 10  2  0  0  0
 10 11  1  0  0  0
 11 12  1  0  0  0
 12 13  2  0  0  0
 13  1  1  0  0  0
  1  2  2  0  0  0
  2  3  1  0  0  0
  3  4  2  0  0  0
  4  5  1  0  0  0
  5 27  1  0  0  0
 27 28  1  0  0  0
 28 29  2  0  0  0
 28 30  1  0  0  0
 30 33  1  0  0  0
 33 34  2  0  0  0
 34 35  1  0  0  0
 35 36  2  0  0  0
 36 37  1  0  0  0
 37 38  2  0  0  0
 38 39  1  0  0  0
 36 40  1  0  0  0
 40 41  1  0  0  0
 40 42  1  0  0  0
 40 43  1  0  0  0
  5  6  2  0  0  0
 13 14  1  0  0  0
 14 15  2  0  0  0
 22 17  1  0  0  0
 15  7  1  0  0  0
 14 10  1  0  0  0
  6  1  1  0  0  0
 38 33  1  0  0  0
 23 25  1  0  0  0
 23 26  1  0  0  0
 11 16  1  0  0  0
 27 31  1  0  0  0
 30 32  1  0  0  0
M  END
> <minimizedAffinity>
-11.66590

> <CNNscore>
0.9216758609

> <CNNaffinity>
8.0315570831

> <CNN_VS>
7.4024925232

> <CNNaffinity_variance>
0.0662884116

$$$$
[H]c1nc2c(c([H])c1-c1c([H])c([H])c(C([H])([H])N([H])[H])c([H])c1[H])c(-c1c([H])c([H])c([H])c(N([H])C(=O)N([H])c3c([H])c([H])c(C(F)(F)F)c([H])c3F)c1[H])c([H])n2[H]


 43 47  0  0  0  0  0  0  0  0999 V2000
  -19.0825   12.4553  -18.6905 C   0  0  0  0  0  0  0  0  0  0  0  0
  -19.7300   12.4336  -17.4895 C   0  0  0  0  0  0  0  0  0  0  0  0
  -20.8020   13.2921  -17.1935 C   0  0  0  0  0  0  0  0  0  0  0  0
  -21.2519   14.1988  -18.1264 C   0  0  0  0  0  0  0  0  0  0  0  0
  -20.6095   14.2383  -19.3407 C   0  0  0  0  0  0  0  0  0  0  0  0
  -19.5496   13.4007  -19.6198 C   0  0  0  0  0  0  0  0  0  0  0  0
  -16.3231   12.2517  -22.3694 C   0  0  0  0  0  0  0  0  0  0  0  0
  -15.5077   11.0893  -22.2808 C   0  0  0  0  0  0  0  0  0  0  0  0
  -15.5808   10.2507  -21.2705 N   0  0  0  0  0  0  0  0  0  0  0  0
  -16.4514   10.4552  -20.2551 C   0  0  0  0  0  0  0  0  0  0  0  0
  -16.7278    9.7677  -19.1119 N   0  0  0  0  0  0  0  0  0  0  0  0
  -17.6775   10.3955  -18.4290 C   0  0  0  0  0  0  0  0  0  0  0  0
  -18.0567   11.5693  -19.1704 C   0  0  0  0  0  0  0  0  0  0  0  0
  -17.2810   11.5756  -20.2823 C   0  0  0  0  0  0  0  0  0  0  0  0
  -17.1924   12.4711  -21.3661 C   0  0  0  0  0  0  0  0  0  0  0  0
  -16.2252    8.8629  -18.8737 H   0  0  0  0  0  0  0  0  0  0  0  0
  -15.4976   14.7493  -25.7656 C   0  0  0  0  0  0  0  0  0  0  0  0
  -14.6160   14.5569  -24.7279 C   0  0  0  0  0  0  0  0  0  0  0  0
  -14.8897   13.7805  -23.6378 C   0  0  0  0  0  0  0  0  0  0  0  0
  -16.1333   13.1168  -23.5241 C   0  0  0  0  0  0  0  0  0  0  0  0
  -17.0095   13.3094  -24.5519 C   0  0  0  0  0  0  0  0  0  0  0  0
  -16.7233   14.1068  -25.6743 C   0  0  0  0  0  0  0  0  0  0  0  0
  -16.2380   15.3410  -27.9999 N   0  0  0  0  0  0  0  0  0  0  0  0
  -15.1916   15.5686  -26.9927 C   0  0  0  0  0  0  0  0  0  0  0  0
  -17.1461   15.2359  -27.4593 H   0  0  0  0  0  0  0  0  0  0  0  0
  -16.3709   16.2432  -28.5338 H   0  0  0  0  0  0  0  0  0  0  0  0
  -21.0628   15.0986  -20.3891 N   0  0  0  0  0  0  0  0  0  0  0  0
  -20.4183   16.3976  -20.5231 C   0  0  0  0  0  0  0  0  0  0  0  0
  -19.5112   16.5731  -19.6949 O   0  0  0  0  0  0  0  0  0  0  0  0
  -20.8305   17.3165  -21.5038 N   0  0  0  0  0  0  0  0  0  0  0  0
  -21.8172   14.7680  -21.0089 H   0  0  0  0  0  0  0  0  0  0  0  0
  -19.6921   18.0751  -21.2457 H   0  0  0  0  0  0  0  0  0  0  0  0
  -21.1852   18.1945  -22.3997 C   0  0  0  0  0  0  0  0  0  0  0  0
  -22.3275   18.2102  -23.2335 C   0  0  0  0  0  0  0  0  0  0  0  0
  -22.4994   19.1529  -24.2240 C   0  0  0  0  0  0  0  0  0  0  0  0
  -21.5637   20.1131  -24.4309 C   0  0  0  0  0  0  0  0  0  0  0  0
  -20.3983   20.1617  -23.6433 C   0  0  0  0  0  0  0  0  0  0  0  0
  -20.2402   19.2476  -22.6871 C   0  0  0  0  0  0  0  0  0  0  0  0
  -19.1014   19.2755  -21.8897 F   0  0  0  0  0  0  0  0  0  0  0  0
  -21.8012   21.1397  -25.4837 C   0  0  0  0  0  0  0  0  0  0  0  0
  -22.4764   22.2328  -24.9116 F   0  0  0  0  0  0  0  0  0  0  0  0
  -20.5565   21.5670  -25.9553 F   0  0  0  0  0  0  0  0  0  0  0  0
  -22.6036   20.6242  -26.4597 F   0  0  0  0  0  0  0  0  0  0  0  0
 23 24  1  0  0  0
 24 17  1  0  0  0
 17 18  2  0  0  0
 18 19  1  0  0  0
 19 20  2  0  0  0
 20 21  1  0  0  0
 21 22  2  0  0  0
 20  7  1  0  0  0
  7  8  2  0  0  0
  8  9  1  0  0  0
  9 10  2  0  0  0
 10 11  1  0  0  0
 11 12  1  0  0  0
 12 13  2  0  0  0
 13  1  1  0  0  0
  1  2  2  0  0  0
  2  3  1  0  0  0
  3  4  2  0  0  0
  4  5  1  0  0  0
  5 27  1  0  0  0
 27 28  1  0  0  0
 28 29  2  0  0  0
 28 30  1  0  0  0
 30 33  1  0  0  0
 33 34  2  0  0  0
 34 35  1  0  0  0
 35 36  2  0  0  0
 36 37  1  0  0  0
 37 38  2  0  0  0
 38 39  1  0  0  0
 36 40  1  0  0  0
 40 41  1  0  0  0
 40 42  1  0  0  0
 40 43  1  0  0  0
  5  6  2  0  0  0
 13 14  1  0  0  0
 14 15  2  0  0  0
 22 17  1  0  0  0
 15  7  1  0  0  0
 14 10  1  0  0  0
  6  1  1  0  0  0
 38 33  1  0  0  0
 23 25  1  0  0  0
 23 26  1  0  0  0
 11 16  1  0  0  0
 27 31  1  0  0  0
 30 32  1  0  0  0
M  END
> <minimizedAffinity>
-11.37990

> <CNNscore>
0.5211343169

> <CNNaffinity>
7.6669683456

> <CNN_VS>
3.9955203533

> <CNNaffinity_variance>
0.1054670811

$$$$
[H]c1nc2c(c([H])c1-c1c([H])c([H])c(C([H])([H])N([H])[H])c([H])c1[H])c(-c1c([H])c([H])c([H])c(N([H])C(=O)N([H])c3c([H])c([H])c(C(F)(F)F)c([H])c3F)c1[H])c([H])n2[H]


 43 47  0  0  0  0  0  0  0  0999 V2000
  -17.2410   14.8627  -22.4286 C   0  0  0  0  0  0  0  0  0  0  0  0
  -16.6504   16.0015  -22.8940 C   0  0  0  0  0  0  0  0  0  0  0  0
  -17.2573   17.2642  -22.7899 C   0  0  0  0  0  0  0  0  0  0  0  0
  -18.4912   17.4018  -22.1953 C   0  0  0  0  0  0  0  0  0  0  0  0
  -19.1038   16.2655  -21.7240 C   0  0  0  0  0  0  0  0  0  0  0  0
  -18.5072   15.0272  -21.8408 C   0  0  0  0  0  0  0  0  0  0  0  0
  -17.6663   11.2301  -19.6334 C   0  0  0  0  0  0  0  0  0  0  0  0
  -16.8329   10.1768  -20.1025 C   0  0  0  0  0  0  0  0  0  0  0  0
  -16.0882   10.2921  -21.1802 N   0  0  0  0  0  0  0  0  0  0  0  0
  -16.0763   11.4369  -21.9013 C   0  0  0  0  0  0  0  0  0  0  0  0
  -15.4192   11.8192  -23.0318 N   0  0  0  0  0  0  0  0  0  0  0  0
  -15.7590   13.0627  -23.3496 C   0  0  0  0  0  0  0  0  0  0  0  0
  -16.6958   13.5338  -22.3639 C   0  0  0  0  0  0  0  0  0  0  0  0
  -16.8698   12.5087  -21.4940 C   0  0  0  0  0  0  0  0  0  0  0  0
  -17.6681   12.3745  -20.3411 C   0  0  0  0  0  0  0  0  0  0  0  0
  -14.7404   11.1686  -23.5256 H   0  0  0  0  0  0  0  0  0  0  0  0
  -19.8279   10.2984  -16.0400 C   0  0  0  0  0  0  0  0  0  0  0  0
  -19.0359    9.3954  -16.7096 C   0  0  0  0  0  0  0  0  0  0  0  0
  -18.3677    9.6872  -17.8648 C   0  0  0  0  0  0  0  0  0  0  0  0
  -18.4630   10.9744  -18.4427 C   0  0  0  0  0  0  0  0  0  0  0  0
  -19.2508   11.8699  -17.7805 C   0  0  0  0  0  0  0  0  0  0  0  0
  -19.9348   11.5672  -16.5897 C   0  0  0  0  0  0  0  0  0  0  0  0
  -20.4964    8.5542  -14.4903 N   0  0  0  0  0  0  0  0  0  0  0  0
  -20.5357   10.0019  -14.7431 C   0  0  0  0  0  0  0  0  0  0  0  0
  -19.5514    8.2215  -14.8428 H   0  0  0  0  0  0  0  0  0  0  0  0
  -20.4344    8.4127  -13.4450 H   0  0  0  0  0  0  0  0  0  0  0  0
  -20.3508   16.3325  -21.0277 N   0  0  0  0  0  0  0  0  0  0  0  0
  -20.3157   16.6598  -19.6091 C   0  0  0  0  0  0  0  0  0  0  0  0
  -19.1665   16.8710  -19.1917 O   0  0  0  0  0  0  0  0  0  0  0  0
  -21.4942   16.7089  -18.8444 N   0  0  0  0  0  0  0  0  0  0  0  0
  -21.2204   16.1546  -21.5520 H   0  0  0  0  0  0  0  0  0  0  0  0
  -20.7791   17.3130  -17.8141 H   0  0  0  0  0  0  0  0  0  0  0  0
  -22.5651   16.7634  -18.1030 C   0  0  0  0  0  0  0  0  0  0  0  0
  -22.8824   16.0316  -16.9350 C   0  0  0  0  0  0  0  0  0  0  0  0
  -24.1177   16.1161  -16.3298 C   0  0  0  0  0  0  0  0  0  0  0  0
  -25.0825   16.9202  -16.8428 C   0  0  0  0  0  0  0  0  0  0  0  0
  -24.8431   17.6779  -18.0044 C   0  0  0  0  0  0  0  0  0  0  0  0
  -23.6460   17.5916  -18.5828 C   0  0  0  0  0  0  0  0  0  0  0  0
  -23.3797   18.3339  -19.7279 F   0  0  0  0  0  0  0  0  0  0  0  0
  -26.3922   17.0175  -16.1401 C   0  0  0  0  0  0  0  0  0  0  0  0
  -27.3008   17.7091  -16.9614 F   0  0  0  0  0  0  0  0  0  0  0  0
  -26.8638   15.7186  -15.9292 F   0  0  0  0  0  0  0  0  0  0  0  0
  -26.2473   17.7361  -14.9891 F   0  0  0  0  0  0  0  0  0  0  0  0
 23 24  1  0  0  0
 24 17  1  0  0  0
 17 18  2  0  0  0
 18 19  1  0  0  0
 19 20  2  0  0  0
 20 21  1  0  0  0
 21 22  2  0  0  0
 20  7  1  0  0  0
  7  8  2  0  0  0
  8  9  1  0  0  0
  9 10  2  0  0  0
 10 11  1  0  0  0
 11 12  1  0  0  0
 12 13  2  0  0  0
 13  1  1  0  0  0
  1  2  2  0  0  0
  2  3  1  0  0  0
  3  4  2  0  0  0
  4  5  1  0  0  0
  5 27  1  0  0  0
 27 28  1  0  0  0
 28 29  2  0  0  0
 28 30  1  0  0  0
 30 33  1  0  0  0
 33 34  2  0  0  0
 34 35  1  0  0  0
 35 36  2  0  0  0
 36 37  1  0  0  0
 37 38  2  0  0  0
 38 39  1  0  0  0
 36 40  1  0  0  0
 40 41  1  0  0  0
 40 42  1  0  0  0
 40 43  1  0  0  0
  5  6  2  0  0  0
 13 14  1  0  0  0
 14 15  2  0  0  0
 22 17  1  0  0  0
 15  7  1  0  0  0
 14 10  1  0  0  0
  6  1  1  0  0  0
 38 33  1  0  0  0
 23 25  1  0  0  0
 23 26  1  0  0  0
 11 16  1  0  0  0
 27 31  1  0  0  0
 30 32  1  0  0  0
M  END
> <minimizedAffinity>
-8.65695

> <CNNscore>
0.4634009600

> <CNNaffinity>
7.2529029846

> <CNN_VS>
3.3610022068

> <CNNaffinity_variance>
0.1263354719

$$$$
[H]c1nc2c(c([H])c1-c1c([H])c([H])c(C([H])([H])N([H])[H])c([H])c1[H])c(-c1c([H])c([H])c([H])c(N([H])C(=O)N([H])c3c([H])c([H])c(C(F)(F)F)c([H])c3F)c1[H])c([H])n2[H]


 43 47  0  0  0  0  0  0  0  0999 V2000
  -17.6615   14.0479  -22.7472 C   0  0  0  0  0  0  0  0  0  0  0  0
  -17.9409   14.3766  -24.0418 C   0  0  0  0  0  0  0  0  0  0  0  0
  -18.4885   15.6184  -24.4047 C   0  0  0  0  0  0  0  0  0  0  0  0
  -18.7608   16.5706  -23.4485 C   0  0  0  0  0  0  0  0  0  0  0  0
  -18.4899   16.2562  -22.1383 C   0  0  0  0  0  0  0  0  0  0  0  0
  -17.9637   15.0301  -21.7883 C   0  0  0  0  0  0  0  0  0  0  0  0
  -18.1452   11.2658  -19.1119 C   0  0  0  0  0  0  0  0  0  0  0  0
  -17.1476   10.2525  -19.1601 C   0  0  0  0  0  0  0  0  0  0  0  0
  -16.2609   10.1800  -20.1286 N   0  0  0  0  0  0  0  0  0  0  0  0
  -16.2532   11.0822  -21.1369 C   0  0  0  0  0  0  0  0  0  0  0  0
  -15.4714   11.2383  -22.2416 N   0  0  0  0  0  0  0  0  0  0  0  0
  -15.8815   12.2927  -22.9364 C   0  0  0  0  0  0  0  0  0  0  0  0
  -17.0018   12.8733  -22.2444 C   0  0  0  0  0  0  0  0  0  0  0  0
  -17.2039   12.1022  -21.1478 C   0  0  0  0  0  0  0  0  0  0  0  0
  -18.1529   12.1692  -20.1089 C   0  0  0  0  0  0  0  0  0  0  0  0
  -14.6625   10.5811  -22.4459 H   0  0  0  0  0  0  0  0  0  0  0  0
  -20.7600   10.9713  -15.7163 C   0  0  0  0  0  0  0  0  0  0  0  0
  -19.9888    9.9305  -16.1778 C   0  0  0  0  0  0  0  0  0  0  0  0
  -19.1753   10.0197  -17.2716 C   0  0  0  0  0  0  0  0  0  0  0  0
  -19.0862   11.2271  -18.0024 C   0  0  0  0  0  0  0  0  0  0  0  0
  -19.8532   12.2592  -17.5469 C   0  0  0  0  0  0  0  0  0  0  0  0
  -20.6871   12.1650  -16.4186 C   0  0  0  0  0  0  0  0  0  0  0  0
  -23.0361   11.0606  -14.8786 N   0  0  0  0  0  0  0  0  0  0  0  0
  -21.6284   10.8985  -14.4870 C   0  0  0  0  0  0  0  0  0  0  0  0
  -23.1374   10.5698  -15.8149 H   0  0  0  0  0  0  0  0  0  0  0  0
  -23.6207   10.4706  -14.2253 H   0  0  0  0  0  0  0  0  0  0  0  0
  -18.6742   17.2160  -21.0946 N   0  0  0  0  0  0  0  0  0  0  0  0
  -19.8885   17.1212  -20.2964 C   0  0  0  0  0  0  0  0  0  0  0  0
  -20.6091   16.1668  -20.6270 O   0  0  0  0  0  0  0  0  0  0  0  0
  -20.1627   18.0486  -19.2762 N   0  0  0  0  0  0  0  0  0  0  0  0
  -17.9447   17.9285  -20.9434 H   0  0  0  0  0  0  0  0  0  0  0  0
  -21.1906   17.2239  -18.8276 H   0  0  0  0  0  0  0  0  0  0  0  0
  -20.4516   18.8896  -18.3229 C   0  0  0  0  0  0  0  0  0  0  0  0
  -20.9732   20.2010  -18.4148 C   0  0  0  0  0  0  0  0  0  0  0  0
  -21.1101   21.0146  -17.3109 C   0  0  0  0  0  0  0  0  0  0  0  0
  -20.7456   20.5737  -16.0808 C   0  0  0  0  0  0  0  0  0  0  0  0
  -20.2160   19.2812  -15.9091 C   0  0  0  0  0  0  0  0  0  0  0  0
  -20.0879   18.5004  -16.9810 C   0  0  0  0  0  0  0  0  0  0  0  0
  -19.5734   17.2164  -16.8397 F   0  0  0  0  0  0  0  0  0  0  0  0
  -20.9447   21.4654  -14.9044 C   0  0  0  0  0  0  0  0  0  0  0  0
  -20.0399   21.0959  -13.8929 F   0  0  0  0  0  0  0  0  0  0  0  0
  -20.6700   22.7755  -15.3073 F   0  0  0  0  0  0  0  0  0  0  0  0
  -22.2058   21.3030  -14.4090 F   0  0  0  0  0  0  0  0  0  0  0  0
 23 24  1  0  0  0
 24 17  1  0  0  0
 17 18  2  0  0  0
 18 19  1  0  0  0
 19 20  2  0  0  0
 20 21  1  0  0  0
 21 22  2  0  0  0
 20  7  1  0  0  0
  7  8  2  0  0  0
  8  9  1  0  0  0
  9 10  2  0  0  0
 10 11  1  0  0  0
 11 12  1  0  0  0
 12 13  2  0  0  0
 13  1  1  0  0  0
  1  2  2  0  0  0
  2  3  1  0  0  0
  3  4  2  0  0  0
  4  5  1  0  0  0
  5 27  1  0  0  0
 27 28  1  0  0  0
 28 29  2  0  0  0
 28 30  1  0  0  0
 30 33  1  0  0  0
 33 34  2  0  0  0
 34 35  1  0  0  0
 35 36  2  0  0  0
 36 37  1  0  0  0
 37 38  2  0  0  0
 38 39  1  0  0  0
 36 40  1  0  0  0
 40 41  1  0  0  0
 40 42  1  0  0  0
 40 43  1  0  0  0
  5  6  2  0  0  0
 13 14  1  0  0  0
 14 15  2  0  0  0
 22 17  1  0  0  0
 15  7  1  0  0  0
 14 10  1  0  0  0
  6  1  1  0  0  0
 38 33  1  0  0  0
 23 25  1  0  0  0
 23 26  1  0  0  0
 11 16  1  0  0  0
 27 31  1  0  0  0
 30 32  1  0  0  0
M  END
> <minimizedAffinity>
-9.41428

> <CNNscore>
0.4617552757

> <CNNaffinity>
7.2570281029

> <CNN_VS>
3.3509709835

> <CNNaffinity_variance>
0.1201379150

$$$$
[H]c1nc2c(c([H])c1-c1c([H])c([H])c(C([H])([H])N([H])[H])c([H])c1[H])c(-c1c([H])c([H])c([H])c(N([H])C(=O)N([H])c3c([H])c([H])c(C(F)(F)F)c([H])c3F)c1[H])c([H])n2[H]


 43 47  0  0  0  0  0  0  0  0999 V2000
  -16.7740   15.1089  -23.2762 C   0  0  0  0  0  0  0  0  0  0  0  0
  -16.1644   15.8991  -24.2069 C   0  0  0  0  0  0  0  0  0  0  0  0
  -16.5135   17.2463  -24.3995 C   0  0  0  0  0  0  0  0  0  0  0  0
  -17.4976   17.8314  -23.6352 C   0  0  0  0  0  0  0  0  0  0  0  0
  -18.1260   17.0502  -22.6952 C   0  0  0  0  0  0  0  0  0  0  0  0
  -17.7863   15.7247  -22.5201 C   0  0  0  0  0  0  0  0  0  0  0  0
  -18.0588   12.1958  -19.9516 C   0  0  0  0  0  0  0  0  0  0  0  0
  -17.3466   10.9729  -20.0979 C   0  0  0  0  0  0  0  0  0  0  0  0
  -16.4754   10.7741  -21.0628 N   0  0  0  0  0  0  0  0  0  0  0  0
  -16.2086   11.7398  -21.9722 C   0  0  0  0  0  0  0  0  0  0  0  0
  -15.3771   11.8009  -23.0496 N   0  0  0  0  0  0  0  0  0  0  0  0
  -15.4864   12.9878  -23.6343 C   0  0  0  0  0  0  0  0  0  0  0  0
  -16.4470   13.7620  -22.8933 C   0  0  0  0  0  0  0  0  0  0  0  0
  -16.8719   12.9631  -21.8838 C   0  0  0  0  0  0  0  0  0  0  0  0
  -17.8070   13.1654  -20.8498 C   0  0  0  0  0  0  0  0  0  0  0  0
  -14.7529   10.9838  -23.3155 H   0  0  0  0  0  0  0  0  0  0  0  0
  -20.7082   12.3234  -16.5726 C   0  0  0  0  0  0  0  0  0  0  0  0
  -19.8556   11.2767  -16.8343 C   0  0  0  0  0  0  0  0  0  0  0  0
  -19.0305   11.2279  -17.9219 C   0  0  0  0  0  0  0  0  0  0  0  0
  -19.0151   12.2874  -18.8584 C   0  0  0  0  0  0  0  0  0  0  0  0
  -19.8628   13.3248  -18.6010 C   0  0  0  0  0  0  0  0  0  0  0  0
  -20.7086   13.3734  -17.4786 C   0  0  0  0  0  0  0  0  0  0  0  0
  -22.5928   11.3331  -15.4072 N   0  0  0  0  0  0  0  0  0  0  0  0
  -21.5918   12.4085  -15.3549 C   0  0  0  0  0  0  0  0  0  0  0  0
  -22.0996   10.4952  -15.8344 H   0  0  0  0  0  0  0  0  0  0  0  0
  -22.7865   11.0267  -14.4146 H   0  0  0  0  0  0  0  0  0  0  0  0
  -19.1054   17.6013  -21.8112 N   0  0  0  0  0  0  0  0  0  0  0  0
  -20.4150   17.9153  -22.3654 C   0  0  0  0  0  0  0  0  0  0  0  0
  -20.5120   17.6237  -23.5675 O   0  0  0  0  0  0  0  0  0  0  0  0
  -21.4209   18.4942  -21.5722 N   0  0  0  0  0  0  0  0  0  0  0  0
  -18.8527   17.7485  -20.8227 H   0  0  0  0  0  0  0  0  0  0  0  0
  -22.3428   18.2320  -22.5817 H   0  0  0  0  0  0  0  0  0  0  0  0
  -22.3778   19.0315  -20.8686 C   0  0  0  0  0  0  0  0  0  0  0  0
  -22.4555   20.3269  -20.3063 C   0  0  0  0  0  0  0  0  0  0  0  0
  -23.4899   20.7061  -19.4783 C   0  0  0  0  0  0  0  0  0  0  0  0
  -24.4841   19.8343  -19.1748 C   0  0  0  0  0  0  0  0  0  0  0  0
  -24.4754   18.5262  -19.6938 C   0  0  0  0  0  0  0  0  0  0  0  0
  -23.4726   18.1678  -20.4944 C   0  0  0  0  0  0  0  0  0  0  0  0
  -23.4419   16.8836  -21.0266 F   0  0  0  0  0  0  0  0  0  0  0  0
  -25.6069   20.2906  -18.3089 C   0  0  0  0  0  0  0  0  0  0  0  0
  -26.0657   19.2025  -17.5448 F   0  0  0  0  0  0  0  0  0  0  0  0
  -25.1133   21.2768  -17.4499 F   0  0  0  0  0  0  0  0  0  0  0  0
  -26.6455   20.7167  -19.0847 F   0  0  0  0  0  0  0  0  0  0  0  0
 23 24  1  0  0  0
 24 17  1  0  0  0
 17 18  2  0  0  0
 18 19  1  0  0  0
 19 20  2  0  0  0
 20 21  1  0  0  0
 21 22  2  0  0  0
 20  7  1  0  0  0
  7  8  2  0  0  0
  8  9  1  0  0  0
  9 10  2  0  0  0
 10 11  1  0  0  0
 11 12  1  0  0  0
 12 13  2  0  0  0
 13  1  1  0  0  0
  1  2  2  0  0  0
  2  3  1  0  0  0
  3  4  2  0  0  0
  4  5  1  0  0  0
  5 27  1  0  0  0
 27 28  1  0  0  0
 28 29  2  0  0  0
 28 30  1  0  0  0
 30 33  1  0  0  0
 33 34  2  0  0  0
 34 35  1  0  0  0
 35 36  2  0  0  0
 36 37  1  0  0  0
 37 38  2  0  0  0
 38 39  1  0  0  0
 36 40  1  0  0  0
 40 41  1  0  0  0
 40 42  1  0  0  0
 40 43  1  0  0  0
  5  6  2  0  0  0
 13 14  1  0  0  0
 14 15  2  0  0  0
 22 17  1  0  0  0
 15  7  1  0  0  0
 14 10  1  0  0  0
  6  1  1  0  0  0
 38 33  1  0  0  0
 23 25  1  0  0  0
 23 26  1  0  0  0
 11 16  1  0  0  0
 27 31  1  0  0  0
 30 32  1  0  0  0
M  END
> <minimizedAffinity>
-8.76827

> <CNNscore>
0.4434688091

> <CNNaffinity>
7.3590393066

> <CNN_VS>
3.2635045052

> <CNNaffinity_variance>
0.2037835568

$$$$
[H]c1nc2c(c([H])c1-c1c([H])c([H])c(C([H])([H])N([H])[H])c([H])c1[H])c(-c1c([H])c([H])c([H])c(N([H])C(=O)N([H])c3c([H])c([H])c(C(F)(F)F)c([H])c3F)c1[H])c([H])n2[H]


 43 47  0  0  0  0  0  0  0  0999 V2000
  -17.6304   14.2153  -22.6949 C   0  0  0  0  0  0  0  0  0  0  0  0
  -17.6929   14.9769  -23.8256 C   0  0  0  0  0  0  0  0  0  0  0  0
  -18.4085   16.1844  -23.8846 C   0  0  0  0  0  0  0  0  0  0  0  0
  -19.0794   16.6562  -22.7791 C   0  0  0  0  0  0  0  0  0  0  0  0
  -19.0315   15.9008  -21.6320 C   0  0  0  0  0  0  0  0  0  0  0  0
  -18.3370   14.7099  -21.5851 C   0  0  0  0  0  0  0  0  0  0  0  0
  -17.5449   10.8816  -19.5219 C   0  0  0  0  0  0  0  0  0  0  0  0
  -16.5026    9.9645  -19.8325 C   0  0  0  0  0  0  0  0  0  0  0  0
  -15.7269   10.1070  -20.8848 N   0  0  0  0  0  0  0  0  0  0  0  0
  -15.8836   11.1509  -21.7313 C   0  0  0  0  0  0  0  0  0  0  0  0
  -15.2402   11.5317  -22.8701 N   0  0  0  0  0  0  0  0  0  0  0  0
  -15.7851   12.6466  -23.3421 C   0  0  0  0  0  0  0  0  0  0  0  0
  -16.8525   13.0299  -22.4561 C   0  0  0  0  0  0  0  0  0  0  0  0
  -16.8864   12.0872  -21.4824 C   0  0  0  0  0  0  0  0  0  0  0  0
  -17.7157   11.9239  -20.3554 C   0  0  0  0  0  0  0  0  0  0  0  0
  -14.4229   10.9753  -23.2579 H   0  0  0  0  0  0  0  0  0  0  0  0
  -19.7352    9.8897  -15.9620 C   0  0  0  0  0  0  0  0  0  0  0  0
  -18.9110    9.0080  -16.6211 C   0  0  0  0  0  0  0  0  0  0  0  0
  -18.2334    9.3185  -17.7659 C   0  0  0  0  0  0  0  0  0  0  0  0
  -18.3524   10.6039  -18.3434 C   0  0  0  0  0  0  0  0  0  0  0  0
  -19.1721   11.4782  -17.6917 C   0  0  0  0  0  0  0  0  0  0  0  0
  -19.8657   11.1564  -16.5115 C   0  0  0  0  0  0  0  0  0  0  0  0
  -19.5312    9.7580  -13.5472 N   0  0  0  0  0  0  0  0  0  0  0  0
  -20.4544    9.5733  -14.6762 C   0  0  0  0  0  0  0  0  0  0  0  0
  -18.9223   10.5904  -13.8007 H   0  0  0  0  0  0  0  0  0  0  0  0
  -20.0960   10.1060  -12.7247 H   0  0  0  0  0  0  0  0  0  0  0  0
  -19.6388   16.3571  -20.4206 N   0  0  0  0  0  0  0  0  0  0  0  0
  -18.7578   16.7734  -19.3384 C   0  0  0  0  0  0  0  0  0  0  0  0
  -17.5564   16.6983  -19.6392 O   0  0  0  0  0  0  0  0  0  0  0  0
  -19.2747   17.1993  -18.1024 N   0  0  0  0  0  0  0  0  0  0  0  0
  -20.6677   16.3802  -20.3611 H   0  0  0  0  0  0  0  0  0  0  0  0
  -18.0102   17.6668  -17.7552 H   0  0  0  0  0  0  0  0  0  0  0  0
  -19.7164   17.5995  -16.9431 C   0  0  0  0  0  0  0  0  0  0  0  0
  -19.0244   18.2613  -15.9022 C   0  0  0  0  0  0  0  0  0  0  0  0
  -19.6059   18.5107  -14.6779 C   0  0  0  0  0  0  0  0  0  0  0  0
  -20.8830   18.1253  -14.4306 C   0  0  0  0  0  0  0  0  0  0  0  0
  -21.6355   17.4592  -15.4158 C   0  0  0  0  0  0  0  0  0  0  0  0
  -21.0666   17.2229  -16.5970 C   0  0  0  0  0  0  0  0  0  0  0  0
  -21.7890   16.5722  -17.5911 F   0  0  0  0  0  0  0  0  0  0  0  0
  -21.4927   18.4466  -13.1101 C   0  0  0  0  0  0  0  0  0  0  0  0
  -20.4783   18.4874  -12.1366 F   0  0  0  0  0  0  0  0  0  0  0  0
  -22.0850   19.7091  -13.2064 F   0  0  0  0  0  0  0  0  0  0  0  0
  -22.3677   17.4622  -12.7529 F   0  0  0  0  0  0  0  0  0  0  0  0
 23 24  1  0  0  0
 24 17  1  0  0  0
 17 18  2  0  0  0
 18 19  1  0  0  0
 19 20  2  0  0  0
 20 21  1  0  0  0
 21 22  2  0  0  0
 20  7  1  0  0  0
  7  8  2  0  0  0
  8  9  1  0  0  0
  9 10  2  0  0  0
 10 11  1  0  0  0
 11 12  1  0  0  0
 12 13  2  0  0  0
 13  1  1  0  0  0
  1  2  2  0  0  0
  2  3  1  0  0  0
  3  4  2  0  0  0
  4  5  1  0  0  0
  5 27  1  0  0  0
 27 28  1  0  0  0
 28 29  2  0  0  0
 28 30  1  0  0  0
 30 33  1  0  0  0
 33 34  2  0  0  0
 34 35  1  0  0  0
 35 36  2  0  0  0
 36 37  1  0  0  0
 37 38  2  0  0  0
 38 39  1  0  0  0
 36 40  1  0  0  0
 40 41  1  0  0  0
 40 42  1  0  0  0
 40 43  1  0  0  0
  5  6  2  0  0  0
 13 14  1  0  0  0
 14 15  2  0  0  0
 22 17  1  0  0  0
 15  7  1  0  0  0
 14 10  1  0  0  0
  6  1  1  0  0  0
 38 33  1  0  0  0
 23 25  1  0  0  0
 23 26  1  0  0  0
 11 16  1  0  0  0
 27 31  1  0  0  0
 30 32  1  0  0  0
M  END
> <minimizedAffinity>
-10.39806

> <CNNscore>
0.4232549965

> <CNNaffinity>
7.3182234764

> <CNN_VS>
3.0974745750

> <CNNaffinity_variance>
0.0936121047

$$$$
[H]c1nc2c(c([H])c1-c1c([H])c([H])c(C([H])([H])N([H])[H])c([H])c1[H])c(-c1c([H])c([H])c([H])c(N([H])C(=O)N([H])c3c([H])c([H])c(C(F)(F)F)c([H])c3F)c1[H])c([H])n2[H]


 43 47  0  0  0  0  0  0  0  0999 V2000
  -17.3904   14.1049  -23.0005 C   0  0  0  0  0  0  0  0  0  0  0  0
  -17.4411   14.7854  -24.1822 C   0  0  0  0  0  0  0  0  0  0  0  0
  -18.1606   15.9823  -24.3346 C   0  0  0  0  0  0  0  0  0  0  0  0
  -18.8478   16.5269  -23.2734 C   0  0  0  0  0  0  0  0  0  0  0  0
  -18.8120   15.8536  -22.0758 C   0  0  0  0  0  0  0  0  0  0  0  0
  -18.1134   14.6723  -21.9370 C   0  0  0  0  0  0  0  0  0  0  0  0
  -17.3934   10.9465  -19.6518 C   0  0  0  0  0  0  0  0  0  0  0  0
  -16.3316   10.0260  -19.8737 C   0  0  0  0  0  0  0  0  0  0  0  0
  -15.5182   10.1209  -20.9026 N   0  0  0  0  0  0  0  0  0  0  0  0
  -15.6526   11.1163  -21.8092 C   0  0  0  0  0  0  0  0  0  0  0  0
  -14.9703   11.4431  -22.9422 N   0  0  0  0  0  0  0  0  0  0  0  0
  -15.5074   12.5250  -23.4933 C   0  0  0  0  0  0  0  0  0  0  0  0
  -16.6110   12.9428  -22.6695 C   0  0  0  0  0  0  0  0  0  0  0  0
  -16.6728   12.0531  -21.6484 C   0  0  0  0  0  0  0  0  0  0  0  0
  -17.5424   11.9408  -20.5459 C   0  0  0  0  0  0  0  0  0  0  0  0
  -14.1338   10.8761  -23.2689 H   0  0  0  0  0  0  0  0  0  0  0  0
  -20.0778   10.4590  -16.3336 C   0  0  0  0  0  0  0  0  0  0  0  0
  -19.9573   11.6251  -17.0523 C   0  0  0  0  0  0  0  0  0  0  0  0
  -19.0864   11.7851  -18.0926 C   0  0  0  0  0  0  0  0  0  0  0  0
  -18.2422   10.7229  -18.4909 C   0  0  0  0  0  0  0  0  0  0  0  0
  -18.3592    9.5666  -17.7765 C   0  0  0  0  0  0  0  0  0  0  0  0
  -19.2590    9.4041  -16.7082 C   0  0  0  0  0  0  0  0  0  0  0  0
  -22.4073   10.6330  -15.6750 N   0  0  0  0  0  0  0  0  0  0  0  0
  -21.0637   10.2562  -15.2122 C   0  0  0  0  0  0  0  0  0  0  0  0
  -22.4607   10.3330  -16.6923 H   0  0  0  0  0  0  0  0  0  0  0  0
  -23.1019    9.9989  -15.1932 H   0  0  0  0  0  0  0  0  0  0  0  0
  -19.4369   16.3904  -20.9071 N   0  0  0  0  0  0  0  0  0  0  0  0
  -18.5817   17.0299  -19.9170 C   0  0  0  0  0  0  0  0  0  0  0  0
  -17.3868   17.0460  -20.2510 O   0  0  0  0  0  0  0  0  0  0  0  0
  -19.1128   17.5493  -18.7236 N   0  0  0  0  0  0  0  0  0  0  0  0
  -20.4604   16.3110  -20.8127 H   0  0  0  0  0  0  0  0  0  0  0  0
  -17.8997   18.1883  -18.4830 H   0  0  0  0  0  0  0  0  0  0  0  0
  -19.5683   18.0418  -17.6059 C   0  0  0  0  0  0  0  0  0  0  0  0
  -20.0892   19.3301  -17.3427 C   0  0  0  0  0  0  0  0  0  0  0  0
  -20.4192   19.7416  -16.0695 C   0  0  0  0  0  0  0  0  0  0  0  0
  -20.2548   18.9079  -15.0119 C   0  0  0  0  0  0  0  0  0  0  0  0
  -19.7393   17.6110  -15.1933 C   0  0  0  0  0  0  0  0  0  0  0  0
  -19.4239   17.2204  -16.4273 C   0  0  0  0  0  0  0  0  0  0  0  0
  -18.9186   15.9420  -16.6367 F   0  0  0  0  0  0  0  0  0  0  0  0
  -20.6592   19.3718  -13.6555 C   0  0  0  0  0  0  0  0  0  0  0  0
  -19.8887   18.6951  -12.6929 F   0  0  0  0  0  0  0  0  0  0  0  0
  -20.3934   20.7417  -13.5732 F   0  0  0  0  0  0  0  0  0  0  0  0
  -21.9681   19.0583  -13.4307 F   0  0  0  0  0  0  0  0  0  0  0  0
 23 24  1  0  0  0
 24 17  1  0  0  0
 17 18  2  0  0  0
 18 19  1  0  0  0
 19 20  2  0  0  0
 20 21  1  0  0  0
 21 22  2  0  0  0
 20  7  1  0  0  0
  7  8  2  0  0  0
  8  9  1  0  0  0
  9 10  2  0  0  0
 10 11  1  0  0  0
 11 12  1  0  0  0
 12 13  2  0  0  0
 13  1  1  0  0  0
  1  2  2  0  0  0
  2  3  1  0  0  0
  3  4  2  0  0  0
  4  5  1  0  0  0
  5 27  1  0  0  0
 27 28  1  0  0  0
 28 29  2  0  0  0
 28 30  1  0  0  0
 30 33  1  0  0  0
 33 34  2  0  0  0
 34 35  1  0  0  0
 35 36  2  0  0  0
 36 37  1  0  0  0
 37 38  2  0  0  0
 38 39  1  0  0  0
 36 40  1  0  0  0
 40 41  1  0  0  0
 40 42  1  0  0  0
 40 43  1  0  0  0
  5  6  2  0  0  0
 13 14  1  0  0  0
 14 15  2  0  0  0
 22 17  1  0  0  0
 15  7  1  0  0  0
 14 10  1  0  0  0
  6  1  1  0  0  0
 38 33  1  0  0  0
 23 25  1  0  0  0
 23 26  1  0  0  0
 11 16  1  0  0  0
 27 31  1  0  0  0
 30 32  1  0  0  0
M  END
> <minimizedAffinity>
-10.89459

> <CNNscore>
0.4197722673

> <CNNaffinity>
7.4086523056

> <CNN_VS>
3.1099467278

> <CNNaffinity_variance>
0.0655597895

$$$$
[H]c1nc2c(c([H])c1-c1c([H])c([H])c(C([H])([H])N([H])[H])c([H])c1[H])c(-c1c([H])c([H])c([H])c(N([H])C(=O)N([H])c3c([H])c([H])c(C(F)(F)F)c([H])c3F)c1[H])c([H])n2[H]


 43 47  0  0  0  0  0  0  0  0999 V2000
  -17.7099   10.8682  -19.0582 C   0  0  0  0  0  0  0  0  0  0  0  0
  -18.0190    9.7524  -18.3360 C   0  0  0  0  0  0  0  0  0  0  0  0
  -18.9518    9.7667  -17.2856 C   0  0  0  0  0  0  0  0  0  0  0  0
  -19.6067   10.9288  -16.9457 C   0  0  0  0  0  0  0  0  0  0  0  0
  -19.3055   12.0642  -17.6591 C   0  0  0  0  0  0  0  0  0  0  0  0
  -18.3793   12.0452  -18.6812 C   0  0  0  0  0  0  0  0  0  0  0  0
  -17.1885   13.8718  -22.5073 C   0  0  0  0  0  0  0  0  0  0  0  0
  -16.1723   13.4050  -23.3868 C   0  0  0  0  0  0  0  0  0  0  0  0
  -15.5197   12.2823  -23.1792 N   0  0  0  0  0  0  0  0  0  0  0  0
  -15.7919   11.5049  -22.1057 C   0  0  0  0  0  0  0  0  0  0  0  0
  -15.2806   10.3249  -21.6562 N   0  0  0  0  0  0  0  0  0  0  0  0
  -15.8905    9.9709  -20.5313 C   0  0  0  0  0  0  0  0  0  0  0  0
  -16.8706   10.9780  -20.2207 C   0  0  0  0  0  0  0  0  0  0  0  0
  -16.7787   11.9050  -21.2055 C   0  0  0  0  0  0  0  0  0  0  0  0
  -17.4693   13.1116  -21.4333 C   0  0  0  0  0  0  0  0  0  0  0  0
  -14.5156    9.8139  -22.1868 H   0  0  0  0  0  0  0  0  0  0  0  0
  -19.1022   17.6559  -23.1945 C   0  0  0  0  0  0  0  0  0  0  0  0
  -19.4327   16.8103  -22.1617 C   0  0  0  0  0  0  0  0  0  0  0  0
  -18.8386   15.5971  -21.9586 C   0  0  0  0  0  0  0  0  0  0  0  0
  -17.8224   15.1414  -22.8300 C   0  0  0  0  0  0  0  0  0  0  0  0
  -17.4959   15.9785  -23.8566 C   0  0  0  0  0  0  0  0  0  0  0  0
  -18.1072   17.2283  -24.0609 C   0  0  0  0  0  0  0  0  0  0  0  0
  -18.8379   20.0410  -22.8311 N   0  0  0  0  0  0  0  0  0  0  0  0
  -19.7200   19.0142  -23.4045 C   0  0  0  0  0  0  0  0  0  0  0  0
  -17.8457   19.7079  -23.0117 H   0  0  0  0  0  0  0  0  0  0  0  0
  -18.9213   20.9069  -23.4310 H   0  0  0  0  0  0  0  0  0  0  0  0
  -19.9951   13.2933  -17.4181 N   0  0  0  0  0  0  0  0  0  0  0  0
  -20.6467   13.9357  -18.5510 C   0  0  0  0  0  0  0  0  0  0  0  0
  -20.5327   13.2880  -19.6032 O   0  0  0  0  0  0  0  0  0  0  0  0
  -21.3135   15.1647  -18.4058 N   0  0  0  0  0  0  0  0  0  0  0  0
  -20.0106   13.6721  -16.4595 H   0  0  0  0  0  0  0  0  0  0  0  0
  -21.8675   14.9930  -19.6714 H   0  0  0  0  0  0  0  0  0  0  0  0
  -21.9405   16.3036  -18.3104 C   0  0  0  0  0  0  0  0  0  0  0  0
  -22.2114   17.0818  -17.1609 C   0  0  0  0  0  0  0  0  0  0  0  0
  -22.9987   18.2119  -17.2093 C   0  0  0  0  0  0  0  0  0  0  0  0
  -23.5446   18.6213  -18.3819 C   0  0  0  0  0  0  0  0  0  0  0  0
  -23.3228   17.8978  -19.5686 C   0  0  0  0  0  0  0  0  0  0  0  0
  -22.5596   16.8073  -19.5135 C   0  0  0  0  0  0  0  0  0  0  0  0
  -22.3184   16.0768  -20.6718 F   0  0  0  0  0  0  0  0  0  0  0  0
  -24.3575   19.8693  -18.4047 C   0  0  0  0  0  0  0  0  0  0  0  0
  -25.1999   19.8450  -19.5308 F   0  0  0  0  0  0  0  0  0  0  0  0
  -25.1415   19.8922  -17.2476 F   0  0  0  0  0  0  0  0  0  0  0  0
  -23.5374   20.9531  -18.5264 F   0  0  0  0  0  0  0  0  0  0  0  0
 23 24  1  0  0  0
 24 17  1  0  0  0
 17 18  2  0  0  0
 18 19  1  0  0  0
 19 20  2  0  0  0
 20 21  1  0  0  0
 21 22  2  0  0  0
 20  7  1  0  0  0
  7  8  2  0  0  0
  8  9  1  0  0  0
  9 10  2  0  0  0
 10 11  1  0  0  0
 11 12  1  0  0  0
 12 13  2  0  0  0
 13  1  1  0  0  0
  1  2  2  0  0  0
  2  3  1  0  0  0
  3  4  2  0  0  0
  4  5  1  0  0  0
  5 27  1  0  0  0
 27 28  1  0  0  0
 28 29  2  0  0  0
 28 30  1  0  0  0
 30 33  1  0  0  0
 33 34  2  0  0  0
 34 35  1  0  0  0
 35 36  2  0  0  0
 36 37  1  0  0  0
 37 38  2  0  0  0
 38 39  1  0  0  0
 36 40  1  0  0  0
 40 41  1  0  0  0
 40 42  1  0  0  0
 40 43  1  0  0  0
  5  6  2  0  0  0
 13 14  1  0  0  0
 14 15  2  0  0  0
 22 17  1  0  0  0
 15  7  1  0  0  0
 14 10  1  0  0  0
  6  1  1  0  0  0
 38 33  1  0  0  0
 23 25  1  0  0  0
 23 26  1  0  0  0
 11 16  1  0  0  0
 27 31  1  0  0  0
 30 32  1  0  0  0
M  END
> <minimizedAffinity>
-9.25307

> <CNNscore>
0.3602621257

> <CNNaffinity>
7.2735924721

> <CNN_VS>
2.6203999519

> <CNNaffinity_variance>
0.0601782203

$$$$
[H]c1nc2c(c([H])c1-c1c([H])c([H])c(C([H])([H])N([H])[H])c([H])c1[H])c(-c1c([H])c([H])c([H])c(N([H])C(=O)N([H])c3c([H])c([H])c(C(F)(F)F)c([H])c3F)c1[H])c([H])n2[H]


 43 47  0  0  0  0  0  0  0  0999 V2000
  -16.9783   12.5379  -23.5056 C   0  0  0  0  0  0  0  0  0  0  0  0
  -17.1807   12.0606  -24.7680 C   0  0  0  0  0  0  0  0  0  0  0  0
  -17.5472   12.8913  -25.8400 C   0  0  0  0  0  0  0  0  0  0  0  0
  -17.7108   14.2453  -25.6533 C   0  0  0  0  0  0  0  0  0  0  0  0
  -17.5152   14.7441  -24.3877 C   0  0  0  0  0  0  0  0  0  0  0  0
  -17.1675   13.9205  -23.3373 C   0  0  0  0  0  0  0  0  0  0  0  0
  -18.1193   12.2836  -19.0533 C   0  0  0  0  0  0  0  0  0  0  0  0
  -17.2268   11.3963  -18.3900 C   0  0  0  0  0  0  0  0  0  0  0  0
  -16.2530   10.7741  -19.0177 N   0  0  0  0  0  0  0  0  0  0  0  0
  -16.0488   10.9554  -20.3429 C   0  0  0  0  0  0  0  0  0  0  0  0
  -15.1417   10.4484  -21.2239 N   0  0  0  0  0  0  0  0  0  0  0  0
  -15.3694   10.9404  -22.4357 C   0  0  0  0  0  0  0  0  0  0  0  0
  -16.4948   11.8333  -22.3492 C   0  0  0  0  0  0  0  0  0  0  0  0
  -16.8879   11.8142  -21.0519 C   0  0  0  0  0  0  0  0  0  0  0  0
  -17.9314   12.4727  -20.3722 C   0  0  0  0  0  0  0  0  0  0  0  0
  -14.3842    9.7723  -20.9124 H   0  0  0  0  0  0  0  0  0  0  0  0
  -21.1984   13.8838  -16.5211 C   0  0  0  0  0  0  0  0  0  0  0  0
  -20.9298   12.5403  -16.6397 C   0  0  0  0  0  0  0  0  0  0  0  0
  -19.9654   12.0322  -17.4630 C   0  0  0  0  0  0  0  0  0  0  0  0
  -19.1728   12.8939  -18.2562 C   0  0  0  0  0  0  0  0  0  0  0  0
  -19.4406   14.2266  -18.1412 C   0  0  0  0  0  0  0  0  0  0  0  0
  -20.4320   14.7467  -17.2902 C   0  0  0  0  0  0  0  0  0  0  0  0
  -21.9431   14.0126  -14.2148 N   0  0  0  0  0  0  0  0  0  0  0  0
  -22.2300   14.4593  -15.5857 C   0  0  0  0  0  0  0  0  0  0  0  0
  -20.8847   13.9884  -14.1308 H   0  0  0  0  0  0  0  0  0  0  0  0
  -22.2257   14.7909  -13.5581 H   0  0  0  0  0  0  0  0  0  0  0  0
  -17.5925   16.1478  -24.1263 N   0  0  0  0  0  0  0  0  0  0  0  0
  -18.7535   16.6358  -23.3952 C   0  0  0  0  0  0  0  0  0  0  0  0
  -19.5306   15.7273  -23.0631 O   0  0  0  0  0  0  0  0  0  0  0  0
  -18.9234   18.0059  -23.1303 N   0  0  0  0  0  0  0  0  0  0  0  0
  -16.8279   16.7553  -24.4563 H   0  0  0  0  0  0  0  0  0  0  0  0
  -19.9498   17.6891  -22.2449 H   0  0  0  0  0  0  0  0  0  0  0  0
  -19.1156   19.2680  -22.8664 C   0  0  0  0  0  0  0  0  0  0  0  0
  -19.6318   20.2874  -23.6998 C   0  0  0  0  0  0  0  0  0  0  0  0
  -19.6591   21.6091  -23.3105 C   0  0  0  0  0  0  0  0  0  0  0  0
  -19.1865   21.9786  -22.0936 C   0  0  0  0  0  0  0  0  0  0  0  0
  -18.6547   21.0218  -21.2091 C   0  0  0  0  0  0  0  0  0  0  0  0
  -18.6330   19.7461  -21.5925 C   0  0  0  0  0  0  0  0  0  0  0  0
  -18.1190   18.7787  -20.7361 F   0  0  0  0  0  0  0  0  0  0  0  0
  -19.2682   23.4101  -21.6900 C   0  0  0  0  0  0  0  0  0  0  0  0
  -20.4735   23.6209  -20.9964 F   0  0  0  0  0  0  0  0  0  0  0  0
  -18.1956   23.6768  -20.8342 F   0  0  0  0  0  0  0  0  0  0  0  0
  -19.2872   24.2033  -22.8003 F   0  0  0  0  0  0  0  0  0  0  0  0
 23 24  1  0  0  0
 24 17  1  0  0  0
 17 18  2  0  0  0
 18 19  1  0  0  0
 19 20  2  0  0  0
 20 21  1  0  0  0
 21 22  2  0  0  0
 20  7  1  0  0  0
  7  8  2  0  0  0
  8  9  1  0  0  0
  9 10  2  0  0  0
 10 11  1  0  0  0
 11 12  1  0  0  0
 12 13  2  0  0  0
 13  1  1  0  0  0
  1  2  2  0  0  0
  2  3  1  0  0  0
  3  4  2  0  0  0
  4  5  1  0  0  0
  5 27  1  0  0  0
 27 28  1  0  0  0
 28 29  2  0  0  0
 28 30  1  0  0  0
 30 33  1  0  0  0
 33 34  2  0  0  0
 34 35  1  0  0  0
 35 36  2  0  0  0
 36 37  1  0  0  0
 37 38  2  0  0  0
 38 39  1  0  0  0
 36 40  1  0  0  0
 40 41  1  0  0  0
 40 42  1  0  0  0
 40 43  1  0  0  0
  5  6  2  0  0  0
 13 14  1  0  0  0
 14 15  2  0  0  0
 22 17  1  0  0  0
 15  7  1  0  0  0
 14 10  1  0  0  0
  6  1  1  0  0  0
 38 33  1  0  0  0
 23 25  1  0  0  0
 23 26  1  0  0  0
 11 16  1  0  0  0
 27 31  1  0  0  0
 30 32  1  0  0  0
M  END
> <minimizedAffinity>
-8.02843

> <CNNscore>
0.2728748024

> <CNNaffinity>
7.1284151077

> <CNN_VS>
1.9451649189

> <CNNaffinity_variance>
0.3746940792

$$$$
[H]c1nc(N([H])[H])c([H])c(-n2c(N([H])c3c([H])c(N([H])C(=O)c4c([H])c([H])nc([H])c4C(C([H])([H])[H])(C([H])([H])[H])C([H])([H])[H])c([H])c([H])c3C([H])([H])[H])nc3c([H])c([H])c([H])c([H])c32)n1


 41 45  0  0  0  0  0  0  0  0999 V2000
  -15.6449   10.7278  -21.3966 C   0  0  0  0  0  0  0  0  0  0  0  0
  -16.7404   11.0566  -20.4246 C   0  0  0  0  0  0  0  0  0  0  0  0
  -17.0573   10.2023  -19.4020 C   0  0  0  0  0  0  0  0  0  0  0  0
  -18.0938   10.5503  -18.5179 C   0  0  0  0  0  0  0  0  0  0  0  0
  -18.7817   11.7110  -18.6587 C   0  0  0  0  0  0  0  0  0  0  0  0
  -18.4213   12.5552  -19.7211 C   0  0  0  0  0  0  0  0  0  0  0  0
  -17.4198   12.2726  -20.6180 C   0  0  0  0  0  0  0  0  0  0  0  0
  -19.8522   12.0702  -17.8007 N   0  0  0  0  0  0  0  0  0  0  0  0
  -19.8323   12.9247  -16.6996 C   0  0  0  0  0  0  0  0  0  0  0  0
  -18.7705   13.4796  -16.3306 O   0  0  0  0  0  0  0  0  0  0  0  0
  -20.7969   11.5989  -18.0204 H   0  0  0  0  0  0  0  0  0  0  0  0
  -21.0003   13.2170  -15.9221 C   0  0  0  0  0  0  0  0  0  0  0  0
  -21.6045   14.4558  -16.1747 C   0  0  0  0  0  0  0  0  0  0  0  0
  -22.7215   14.8006  -15.4553 C   0  0  0  0  0  0  0  0  0  0  0  0
  -23.2107   13.9530  -14.5305 N   0  0  0  0  0  0  0  0  0  0  0  0
  -22.6096   12.7573  -14.3015 C   0  0  0  0  0  0  0  0  0  0  0  0
  -21.4719   12.3440  -14.9973 C   0  0  0  0  0  0  0  0  0  0  0  0
  -20.8967   11.0694  -14.7066 C   0  0  0  0  0  0  0  0  0  0  0  0
  -20.9496   10.0376  -15.7967 C   0  0  0  0  0  0  0  0  0  0  0  0
  -21.7974   10.4226  -13.5953 C   0  0  0  0  0  0  0  0  0  0  0  0
  -19.5398   11.1013  -14.0989 C   0  0  0  0  0  0  0  0  0  0  0  0
  -17.0361   13.0946  -21.6913 N   0  0  0  0  0  0  0  0  0  0  0  0
  -16.4465   12.6231  -22.4482 H   0  0  0  0  0  0  0  0  0  0  0  0
  -17.3126   14.4459  -21.9138 C   0  0  0  0  0  0  0  0  0  0  0  0
  -17.4827   15.4311  -21.0003 N   0  0  0  0  0  0  0  0  0  0  0  0
  -17.7393   16.6063  -21.5912 C   0  0  0  0  0  0  0  0  0  0  0  0
  -17.9809   17.8728  -21.1064 C   0  0  0  0  0  0  0  0  0  0  0  0
  -18.2154   18.8866  -22.0086 C   0  0  0  0  0  0  0  0  0  0  0  0
  -18.2012   18.6042  -23.3794 C   0  0  0  0  0  0  0  0  0  0  0  0
  -17.9587   17.3352  -23.8401 C   0  0  0  0  0  0  0  0  0  0  0  0
  -17.7257   16.3255  -22.9545 C   0  0  0  0  0  0  0  0  0  0  0  0
  -17.4690   15.0260  -23.1403 N   0  0  0  0  0  0  0  0  0  0  0  0
  -17.3732   14.3498  -24.3795 C   0  0  0  0  0  0  0  0  0  0  0  0
  -16.8195   14.9540  -25.4848 C   0  0  0  0  0  0  0  0  0  0  0  0
  -16.7358   14.2828  -26.6759 C   0  0  0  0  0  0  0  0  0  0  0  0
  -16.1692   14.8767  -27.8393 N   0  0  0  0  0  0  0  0  0  0  0  0
  -17.1996   13.0264  -26.7567 N   0  0  0  0  0  0  0  0  0  0  0  0
  -17.7416   12.4172  -25.6967 C   0  0  0  0  0  0  0  0  0  0  0  0
  -17.8170   13.0835  -24.5421 N   0  0  0  0  0  0  0  0  0  0  0  0
  -15.2840   14.4877  -28.2040 H   0  0  0  0  0  0  0  0  0  0  0  0
  -16.6096   15.6747  -28.3244 H   0  0  0  0  0  0  0  0  0  0  0  0
  1  2  1  0  0  0
  2  3  2  0  0  0
  3  4  1  0  0  0
  4  5  2  0  0  0
  5  8  1  0  0  0
  8  9  1  0  0  0
  9 10  2  0  0  0
  9 12  1  0  0  0
 12 13  2  0  0  0
 13 14  1  0  0  0
 14 15  2  0  0  0
 15 16  1  0  0  0
 16 17  2  0  0  0
 17 18  1  0  0  0
 18 19  1  0  0  0
 18 20  1  0  0  0
 18 21  1  0  0  0
  5  6  1  0  0  0
  6  7  2  0  0  0
  7 22  1  0  0  0
 22 24  1  0  0  0
 24 25  2  0  0  0
 25 26  1  0  0  0
 26 27  2  0  0  0
 27 28  1  0  0  0
 28 29  2  0  0  0
 29 30  1  0  0  0
 30 31  2  0  0  0
 31 32  1  0  0  0
 32 33  1  0  0  0
 33 34  2  0  0  0
 34 35  1  0  0  0
 35 36  1  0  0  0
 35 37  2  0  0  0
 37 38  1  0  0  0
 38 39  2  0  0  0
  7  2  1  0  0  0
 32 24  1  0  0  0
 39 33  1  0  0  0
 17 12  1  0  0  0
 31 26  1  0  0  0
  8 11  1  0  0  0
 22 23  1  0  0  0
 36 40  1  0  0  0
 36 41  1  0  0  0
M  END
> <minimizedAffinity>
-9.47531

> <CNNscore>
0.2582532167

> <CNNaffinity>
6.9469156265

> <CNN_VS>
1.7940633297

> <CNNaffinity_variance>
0.6127989888

$$$$
[H]c1nc(N([H])[H])c([H])c(-n2c(N([H])c3c([H])c(N([H])C(=O)c4c([H])c([H])nc([H])c4C(C([H])([H])[H])(C([H])([H])[H])C([H])([H])[H])c([H])c([H])c3C([H])([H])[H])nc3c([H])c([H])c([H])c([H])c32)n1


 41 45  0  0  0  0  0  0  0  0999 V2000
  -15.5645   10.4623  -21.2227 C   0  0  0  0  0  0  0  0  0  0  0  0
  -16.6478   10.9588  -20.3099 C   0  0  0  0  0  0  0  0  0  0  0  0
  -16.6260   10.6779  -18.9696 C   0  0  0  0  0  0  0  0  0  0  0  0
  -17.6643   11.1608  -18.1537 C   0  0  0  0  0  0  0  0  0  0  0  0
  -18.6820   11.8962  -18.6675 C   0  0  0  0  0  0  0  0  0  0  0  0
  -18.6618   12.1592  -20.0465 C   0  0  0  0  0  0  0  0  0  0  0  0
  -17.6774   11.7162  -20.8964 C   0  0  0  0  0  0  0  0  0  0  0  0
  -19.7576   12.3673  -17.8725 N   0  0  0  0  0  0  0  0  0  0  0  0
  -19.7319   13.3182  -16.8537 C   0  0  0  0  0  0  0  0  0  0  0  0
  -18.6596   13.8698  -16.5106 O   0  0  0  0  0  0  0  0  0  0  0  0
  -20.7131   11.9089  -18.0717 H   0  0  0  0  0  0  0  0  0  0  0  0
  -20.9055   13.7186  -16.1351 C   0  0  0  0  0  0  0  0  0  0  0  0
  -21.3636   15.0173  -16.3941 C   0  0  0  0  0  0  0  0  0  0  0  0
  -22.4780   15.4654  -15.7296 C   0  0  0  0  0  0  0  0  0  0  0  0
  -23.1034   14.6594  -14.8511 N   0  0  0  0  0  0  0  0  0  0  0  0
  -22.6427   13.4042  -14.6149 C   0  0  0  0  0  0  0  0  0  0  0  0
  -21.5161   12.8854  -15.2560 C   0  0  0  0  0  0  0  0  0  0  0  0
  -21.0928   11.5535  -14.9613 C   0  0  0  0  0  0  0  0  0  0  0  0
  -21.3105   10.5211  -16.0303 C   0  0  0  0  0  0  0  0  0  0  0  0
  -22.0271   11.0388  -13.8095 C   0  0  0  0  0  0  0  0  0  0  0  0
  -19.7220   11.4255  -14.3992 C   0  0  0  0  0  0  0  0  0  0  0  0
  -17.6290   11.9608  -22.2794 N   0  0  0  0  0  0  0  0  0  0  0  0
  -18.1431   11.2527  -22.8934 H   0  0  0  0  0  0  0  0  0  0  0  0
  -17.0019   12.9990  -22.9729 C   0  0  0  0  0  0  0  0  0  0  0  0
  -16.1667   12.9166  -24.0357 N   0  0  0  0  0  0  0  0  0  0  0  0
  -15.7572   14.1300  -24.4306 C   0  0  0  0  0  0  0  0  0  0  0  0
  -14.9234   14.5623  -25.4383 C   0  0  0  0  0  0  0  0  0  0  0  0
  -14.7067   15.9155  -25.5748 C   0  0  0  0  0  0  0  0  0  0  0  0
  -15.3341   16.8048  -24.6946 C   0  0  0  0  0  0  0  0  0  0  0  0
  -16.1605   16.3520  -23.6977 C   0  0  0  0  0  0  0  0  0  0  0  0
  -16.3807   15.0145  -23.5550 C   0  0  0  0  0  0  0  0  0  0  0  0
  -17.1263   14.3277  -22.6824 N   0  0  0  0  0  0  0  0  0  0  0  0
  -17.9122   14.8623  -21.6342 C   0  0  0  0  0  0  0  0  0  0  0  0
  -17.3375   15.3347  -20.4766 C   0  0  0  0  0  0  0  0  0  0  0  0
  -18.1155   15.8485  -19.4732 C   0  0  0  0  0  0  0  0  0  0  0  0
  -17.5548   16.3461  -18.2625 N   0  0  0  0  0  0  0  0  0  0  0  0
  -19.4475   15.8880  -19.6283 N   0  0  0  0  0  0  0  0  0  0  0  0
  -20.0299   15.4355  -20.7439 C   0  0  0  0  0  0  0  0  0  0  0  0
  -19.2594   14.9371  -21.7138 N   0  0  0  0  0  0  0  0  0  0  0  0
  -17.6280   17.3589  -18.0710 H   0  0  0  0  0  0  0  0  0  0  0  0
  -17.0829   15.7340  -17.5779 H   0  0  0  0  0  0  0  0  0  0  0  0
  1  2  1  0  0  0
  2  3  2  0  0  0
  3  4  1  0  0  0
  4  5  2  0  0  0
  5  8  1  0  0  0
  8  9  1  0  0  0
  9 10  2  0  0  0
  9 12  1  0  0  0
 12 13  2  0  0  0
 13 14  1  0  0  0
 14 15  2  0  0  0
 15 16  1  0  0  0
 16 17  2  0  0  0
 17 18  1  0  0  0
 18 19  1  0  0  0
 18 20  1  0  0  0
 18 21  1  0  0  0
  5  6  1  0  0  0
  6  7  2  0  0  0
  7 22  1  0  0  0
 22 24  1  0  0  0
 24 25  2  0  0  0
 25 26  1  0  0  0
 26 27  2  0  0  0
 27 28  1  0  0  0
 28 29  2  0  0  0
 29 30  1  0  0  0
 30 31  2  0  0  0
 31 32  1  0  0  0
 32 33  1  0  0  0
 33 34  2  0  0  0
 34 35  1  0  0  0
 35 36  1  0  0  0
 35 37  2  0  0  0
 37 38  1  0  0  0
 38 39  2  0  0  0
  7  2  1  0  0  0
 32 24  1  0  0  0
 39 33  1  0  0  0
 17 12  1  0  0  0
 31 26  1  0  0  0
  8 11  1  0  0  0
 22 23  1  0  0  0
 36 40  1  0  0  0
 36 41  1  0  0  0
M  END
> <minimizedAffinity>
-9.50651

> <CNNscore>
0.1639597118

> <CNNaffinity>
6.9696607590

> <CNN_VS>
1.1427435875

> <CNNaffinity_variance>
0.4788070619

$$$$
[H]c1nc(N([H])[H])c([H])c(-n2c(N([H])c3c([H])c(N([H])C(=O)c4c([H])c([H])nc([H])c4C(C([H])([H])[H])(C([H])([H])[H])C([H])([H])[H])c([H])c([H])c3C([H])([H])[H])nc3c([H])c([H])c([H])c([H])c32)n1


 41 45  0  0  0  0  0  0  0  0999 V2000
  -15.5070   11.4877  -22.5944 C   0  0  0  0  0  0  0  0  0  0  0  0
  -16.4310   11.5490  -21.4131 C   0  0  0  0  0  0  0  0  0  0  0  0
  -16.3171   10.6568  -20.3802 C   0  0  0  0  0  0  0  0  0  0  0  0
  -17.2074   10.7501  -19.2959 C   0  0  0  0  0  0  0  0  0  0  0  0
  -18.1720   11.7030  -19.2546 C   0  0  0  0  0  0  0  0  0  0  0  0
  -18.2502   12.5957  -20.3356 C   0  0  0  0  0  0  0  0  0  0  0  0
  -17.4116   12.5570  -21.4231 C   0  0  0  0  0  0  0  0  0  0  0  0
  -19.1027   11.7984  -18.1888 N   0  0  0  0  0  0  0  0  0  0  0  0
  -19.1107   12.6952  -17.1218 C   0  0  0  0  0  0  0  0  0  0  0  0
  -18.2067   13.5539  -16.9917 O   0  0  0  0  0  0  0  0  0  0  0  0
  -19.8914   11.0632  -18.1986 H   0  0  0  0  0  0  0  0  0  0  0  0
  -20.1291   12.6934  -16.1134 C   0  0  0  0  0  0  0  0  0  0  0  0
  -20.0506   11.6586  -15.1717 C   0  0  0  0  0  0  0  0  0  0  0  0
  -21.0030   11.5945  -14.1853 C   0  0  0  0  0  0  0  0  0  0  0  0
  -21.9842   12.5154  -14.1407 N   0  0  0  0  0  0  0  0  0  0  0  0
  -22.0418   13.5099  -15.0632 C   0  0  0  0  0  0  0  0  0  0  0  0
  -21.1059   13.6343  -16.0918 C   0  0  0  0  0  0  0  0  0  0  0  0
  -21.2268   14.7102  -17.0235 C   0  0  0  0  0  0  0  0  0  0  0  0
  -20.2750   15.8601  -16.8578 C   0  0  0  0  0  0  0  0  0  0  0  0
  -22.6148   15.3862  -16.7384 C   0  0  0  0  0  0  0  0  0  0  0  0
  -21.3050   14.3139  -18.4546 C   0  0  0  0  0  0  0  0  0  0  0  0
  -17.4645   13.4337  -22.5201 N   0  0  0  0  0  0  0  0  0  0  0  0
  -17.1356   13.0286  -23.4531 H   0  0  0  0  0  0  0  0  0  0  0  0
  -17.8846   14.7652  -22.5691 C   0  0  0  0  0  0  0  0  0  0  0  0
  -18.8826   15.3585  -21.8720 N   0  0  0  0  0  0  0  0  0  0  0  0
  -18.9956   16.6559  -22.1886 C   0  0  0  0  0  0  0  0  0  0  0  0
  -19.8370   17.6605  -21.7643 C   0  0  0  0  0  0  0  0  0  0  0  0
  -19.6833   18.9172  -22.3060 C   0  0  0  0  0  0  0  0  0  0  0  0
  -18.6856   19.1363  -23.2630 C   0  0  0  0  0  0  0  0  0  0  0  0
  -17.8587   18.1209  -23.6714 C   0  0  0  0  0  0  0  0  0  0  0  0
  -18.0037   16.8737  -23.1407 C   0  0  0  0  0  0  0  0  0  0  0  0
  -17.3409   15.7336  -23.3641 N   0  0  0  0  0  0  0  0  0  0  0  0
  -16.2643   15.5411  -24.2619 C   0  0  0  0  0  0  0  0  0  0  0  0
  -16.4123   15.7504  -25.6138 C   0  0  0  0  0  0  0  0  0  0  0  0
  -15.3580   15.5585  -26.4669 C   0  0  0  0  0  0  0  0  0  0  0  0
  -15.4752   15.7658  -27.8708 N   0  0  0  0  0  0  0  0  0  0  0  0
  -14.1751   15.1635  -25.9722 N   0  0  0  0  0  0  0  0  0  0  0  0
  -14.0059   14.9538  -24.6623 C   0  0  0  0  0  0  0  0  0  0  0  0
  -15.0423   15.1445  -23.8423 N   0  0  0  0  0  0  0  0  0  0  0  0
  -14.9463   16.5459  -28.2947 H   0  0  0  0  0  0  0  0  0  0  0  0
  -16.0651   15.1683  -28.4717 H   0  0  0  0  0  0  0  0  0  0  0  0
  1  2  1  0  0  0
  2  3  2  0  0  0
  3  4  1  0  0  0
  4  5  2  0  0  0
  5  8  1  0  0  0
  8  9  1  0  0  0
  9 10  2  0  0  0
  9 12  1  0  0  0
 12 13  2  0  0  0
 13 14  1  0  0  0
 14 15  2  0  0  0
 15 16  1  0  0  0
 16 17  2  0  0  0
 17 18  1  0  0  0
 18 19  1  0  0  0
 18 20  1  0  0  0
 18 21  1  0  0  0
  5  6  1  0  0  0
  6  7  2  0  0  0
  7 22  1  0  0  0
 22 24  1  0  0  0
 24 25  2  0  0  0
 25 26  1  0  0  0
 26 27  2  0  0  0
 27 28  1  0  0  0
 28 29  2  0  0  0
 29 30  1  0  0  0
 30 31  2  0  0  0
 31 32  1  0  0  0
 32 33  1  0  0  0
 33 34  2  0  0  0
 34 35  1  0  0  0
 35 36  1  0  0  0
 35 37  2  0  0  0
 37 38  1  0  0  0
 38 39  2  0  0  0
  7  2  1  0  0  0
 32 24  1  0  0  0
 39 33  1  0  0  0
 17 12  1  0  0  0
 31 26  1  0  0  0
  8 11  1  0  0  0
 22 23  1  0  0  0
 36 40  1  0  0  0
 36 41  1  0  0  0
M  END
> <minimizedAffinity>
-9.83535

> <CNNscore>
0.1403265893

> <CNNaffinity>
7.1164236069

> <CNN_VS>
0.9986234307

> <CNNaffinity_variance>
0.2637636065

$$$$
[H]c1nc(N([H])[H])c([H])c(-n2c(N([H])c3c([H])c(N([H])C(=O)c4c([H])c([H])nc([H])c4C(C([H])([H])[H])(C([H])([H])[H])C([H])([H])[H])c([H])c([H])c3C([H])([H])[H])nc3c([H])c([H])c([H])c([H])c32)n1


 41 45  0  0  0  0  0  0  0  0999 V2000
  -16.3209   10.4065  -19.9762 C   0  0  0  0  0  0  0  0  0  0  0  0
  -17.4863   10.6955  -19.0756 C   0  0  0  0  0  0  0  0  0  0  0  0
  -17.9053    9.7803  -18.1468 C   0  0  0  0  0  0  0  0  0  0  0  0
  -19.0042   10.0929  -17.3273 C   0  0  0  0  0  0  0  0  0  0  0  0
  -19.6534   11.2789  -17.4393 C   0  0  0  0  0  0  0  0  0  0  0  0
  -19.1880   12.1858  -18.4048 C   0  0  0  0  0  0  0  0  0  0  0  0
  -18.1214   11.9401  -19.2352 C   0  0  0  0  0  0  0  0  0  0  0  0
  -20.7838   11.6055  -16.6477 N   0  0  0  0  0  0  0  0  0  0  0  0
  -20.8447   11.8314  -15.2736 C   0  0  0  0  0  0  0  0  0  0  0  0
  -19.8209   11.7364  -14.5565 O   0  0  0  0  0  0  0  0  0  0  0  0
  -21.7192   11.6620  -17.1813 H   0  0  0  0  0  0  0  0  0  0  0  0
  -22.0603   12.1736  -14.5959 C   0  0  0  0  0  0  0  0  0  0  0  0
  -22.3227   13.5446  -14.4728 C   0  0  0  0  0  0  0  0  0  0  0  0
  -23.4664   13.9387  -13.8242 C   0  0  0  0  0  0  0  0  0  0  0  0
  -24.3056   13.0126  -13.3234 N   0  0  0  0  0  0  0  0  0  0  0  0
  -24.0322   11.6891  -13.4538 C   0  0  0  0  0  0  0  0  0  0  0  0
  -22.8881   11.2195  -14.1017 C   0  0  0  0  0  0  0  0  0  0  0  0
  -22.6690    9.8119  -14.2056 C   0  0  0  0  0  0  0  0  0  0  0  0
  -22.7281    9.2168  -15.5833 C   0  0  0  0  0  0  0  0  0  0  0  0
  -23.8876    9.1226  -13.4953 C   0  0  0  0  0  0  0  0  0  0  0  0
  -21.4831    9.2915  -13.4748 C   0  0  0  0  0  0  0  0  0  0  0  0
  -17.6324   12.8249  -20.2112 N   0  0  0  0  0  0  0  0  0  0  0  0
  -17.1211   12.3714  -21.0332 H   0  0  0  0  0  0  0  0  0  0  0  0
  -17.7156   14.2186  -20.2634 C   0  0  0  0  0  0  0  0  0  0  0  0
  -18.1904   15.0687  -19.3222 N   0  0  0  0  0  0  0  0  0  0  0  0
  -18.1139   16.3427  -19.7311 C   0  0  0  0  0  0  0  0  0  0  0  0
  -18.4613   17.5422  -19.1499 C   0  0  0  0  0  0  0  0  0  0  0  0
  -18.2457   18.7020  -19.8606 C   0  0  0  0  0  0  0  0  0  0  0  0
  -17.6845   18.6298  -21.1408 C   0  0  0  0  0  0  0  0  0  0  0  0
  -17.3463   17.4240  -21.7005 C   0  0  0  0  0  0  0  0  0  0  0  0
  -17.5562   16.2710  -21.0045 C   0  0  0  0  0  0  0  0  0  0  0  0
  -17.3200   14.9921  -21.3172 N   0  0  0  0  0  0  0  0  0  0  0  0
  -16.7611   14.5035  -22.5218 C   0  0  0  0  0  0  0  0  0  0  0  0
  -15.5747   14.9973  -23.0136 C   0  0  0  0  0  0  0  0  0  0  0  0
  -15.0498   14.5114  -24.1817 C   0  0  0  0  0  0  0  0  0  0  0  0
  -13.8248   14.9987  -24.7195 N   0  0  0  0  0  0  0  0  0  0  0  0
  -15.7040   13.5461  -24.8453 N   0  0  0  0  0  0  0  0  0  0  0  0
  -16.8584   13.0494  -24.3878 C   0  0  0  0  0  0  0  0  0  0  0  0
  -17.3585   13.5327  -23.2480 N   0  0  0  0  0  0  0  0  0  0  0  0
  -13.0149   14.3575  -24.7476 H   0  0  0  0  0  0  0  0  0  0  0  0
  -13.7213   15.9615  -25.0781 H   0  0  0  0  0  0  0  0  0  0  0  0
  1  2  1  0  0  0
  2  3  2  0  0  0
  3  4  1  0  0  0
  4  5  2  0  0  0
  5  8  1  0  0  0
  8  9  1  0  0  0
  9 10  2  0  0  0
  9 12  1  0  0  0
 12 13  2  0  0  0
 13 14  1  0  0  0
 14 15  2  0  0  0
 15 16  1  0  0  0
 16 17  2  0  0  0
 17 18  1  0  0  0
 18 19  1  0  0  0
 18 20  1  0  0  0
 18 21  1  0  0  0
  5  6  1  0  0  0
  6  7  2  0  0  0
  7 22  1  0  0  0
 22 24  1  0  0  0
 24 25  2  0  0  0
 25 26  1  0  0  0
 26 27  2  0  0  0
 27 28  1  0  0  0
 28 29  2  0  0  0
 29 30  1  0  0  0
 30 31  2  0  0  0
 31 32  1  0  0  0
 32 33  1  0  0  0
 33 34  2  0  0  0
 34 35  1  0  0  0
 35 36  1  0  0  0
 35 37  2  0  0  0
 37 38  1  0  0  0
 38 39  2  0  0  0
  7  2  1  0  0  0
 32 24  1  0  0  0
 39 33  1  0  0  0
 17 12  1  0  0  0
 31 26  1  0  0  0
  8 11  1  0  0  0
 22 23  1  0  0  0
 36 40  1  0  0  0
 36 41  1  0  0  0
M  END
> <minimizedAffinity>
-9.25278

> <CNNscore>
0.1061803848

> <CNNaffinity>
6.7516584396

> <CNN_VS>
0.7168936729

> <CNNaffinity_variance>
0.2022612989

$$$$
[H]c1nc(N([H])[H])c([H])c(-n2c(N([H])c3c([H])c(N([H])C(=O)c4c([H])c([H])nc([H])c4C(C([H])([H])[H])(C([H])([H])[H])C([H])([H])[H])c([H])c([H])c3C([H])([H])[H])nc3c([H])c([H])c([H])c([H])c32)n1


 41 45  0  0  0  0  0  0  0  0999 V2000
  -16.0969   10.5619  -20.3209 C   0  0  0  0  0  0  0  0  0  0  0  0
  -17.2574   10.8596  -19.4166 C   0  0  0  0  0  0  0  0  0  0  0  0
  -17.7164    9.9261  -18.5257 C   0  0  0  0  0  0  0  0  0  0  0  0
  -18.8089   10.2482  -17.7012 C   0  0  0  0  0  0  0  0  0  0  0  0
  -19.4131   11.4607  -17.7718 C   0  0  0  0  0  0  0  0  0  0  0  0
  -18.9078   12.3856  -18.6995 C   0  0  0  0  0  0  0  0  0  0  0  0
  -17.8451   12.1320  -19.5325 C   0  0  0  0  0  0  0  0  0  0  0  0
  -20.5364   11.7989  -16.9749 N   0  0  0  0  0  0  0  0  0  0  0  0
  -20.5637   12.4762  -15.7569 C   0  0  0  0  0  0  0  0  0  0  0  0
  -19.5047   12.8583  -15.2054 O   0  0  0  0  0  0  0  0  0  0  0  0
  -21.4886   11.4652  -17.3553 H   0  0  0  0  0  0  0  0  0  0  0  0
  -21.7803   12.7705  -15.0590 C   0  0  0  0  0  0  0  0  0  0  0  0
  -22.2469   11.7662  -14.2003 C   0  0  0  0  0  0  0  0  0  0  0  0
  -23.4136   11.9821  -13.5100 C   0  0  0  0  0  0  0  0  0  0  0  0
  -24.0812   13.1405  -13.6685 N   0  0  0  0  0  0  0  0  0  0  0  0
  -23.6114   14.1005  -14.5058 C   0  0  0  0  0  0  0  0  0  0  0  0
  -22.4321   13.9466  -15.2371 C   0  0  0  0  0  0  0  0  0  0  0  0
  -21.9961   15.0023  -16.0948 C   0  0  0  0  0  0  0  0  0  0  0  0
  -20.8601   15.8515  -15.6006 C   0  0  0  0  0  0  0  0  0  0  0  0
  -23.1772   16.0347  -16.1583 C   0  0  0  0  0  0  0  0  0  0  0  0
  -21.7705   14.6235  -17.5150 C   0  0  0  0  0  0  0  0  0  0  0  0
  -17.3168   13.0343  -20.4714 N   0  0  0  0  0  0  0  0  0  0  0  0
  -16.6662   12.6104  -21.2062 H   0  0  0  0  0  0  0  0  0  0  0  0
  -17.5174   14.4123  -20.5842 C   0  0  0  0  0  0  0  0  0  0  0  0
  -18.0282   15.2660  -19.6654 N   0  0  0  0  0  0  0  0  0  0  0  0
  -18.0722   16.5204  -20.1350 C   0  0  0  0  0  0  0  0  0  0  0  0
  -18.4977   17.7147  -19.5965 C   0  0  0  0  0  0  0  0  0  0  0  0
  -18.4041   18.8520  -20.3674 C   0  0  0  0  0  0  0  0  0  0  0  0
  -17.8837   18.7632  -21.6638 C   0  0  0  0  0  0  0  0  0  0  0  0
  -17.4661   17.5630  -22.1802 C   0  0  0  0  0  0  0  0  0  0  0  0
  -17.5551   16.4322  -21.4244 C   0  0  0  0  0  0  0  0  0  0  0  0
  -17.2244   15.1630  -21.6870 N   0  0  0  0  0  0  0  0  0  0  0  0
  -16.6691   14.6632  -22.8886 C   0  0  0  0  0  0  0  0  0  0  0  0
  -15.4562   15.1118  -23.3587 C   0  0  0  0  0  0  0  0  0  0  0  0
  -14.9353   14.6157  -24.5243 C   0  0  0  0  0  0  0  0  0  0  0  0
  -13.6835   15.0567  -25.0400 N   0  0  0  0  0  0  0  0  0  0  0  0
  -15.6194   13.6850  -25.2068 N   0  0  0  0  0  0  0  0  0  0  0  0
  -16.7999   13.2324  -24.7706 C   0  0  0  0  0  0  0  0  0  0  0  0
  -17.2958   13.7251  -23.6330 N   0  0  0  0  0  0  0  0  0  0  0  0
  -12.9006   14.3826  -25.0634 H   0  0  0  0  0  0  0  0  0  0  0  0
  -13.5349   16.0177  -25.3872 H   0  0  0  0  0  0  0  0  0  0  0  0
  1  2  1  0  0  0
  2  3  2  0  0  0
  3  4  1  0  0  0
  4  5  2  0  0  0
  5  8  1  0  0  0
  8  9  1  0  0  0
  9 10  2  0  0  0
  9 12  1  0  0  0
 12 13  2  0  0  0
 13 14  1  0  0  0
 14 15  2  0  0  0
 15 16  1  0  0  0
 16 17  2  0  0  0
 17 18  1  0  0  0
 18 19  1  0  0  0
 18 20  1  0  0  0
 18 21  1  0  0  0
  5  6  1  0  0  0
  6  7  2  0  0  0
  7 22  1  0  0  0
 22 24  1  0  0  0
 24 25  2  0  0  0
 25 26  1  0  0  0
 26 27  2  0  0  0
 27 28  1  0  0  0
 28 29  2  0  0  0
 29 30  1  0  0  0
 30 31  2  0  0  0
 31 32  1  0  0  0
 32 33  1  0  0  0
 33 34  2  0  0  0
 34 35  1  0  0  0
 35 36  1  0  0  0
 35 37  2  0  0  0
 37 38  1  0  0  0
 38 39  2  0  0  0
  7  2  1  0  0  0
 32 24  1  0  0  0
 39 33  1  0  0  0
 17 12  1  0  0  0
 31 26  1  0  0  0
  8 11  1  0  0  0
 22 23  1  0  0  0
 36 40  1  0  0  0
 36 41  1  0  0  0
M  END
> <minimizedAffinity>
-8.30245

> <CNNscore>
0.0757919624

> <CNNaffinity>
6.7968111038

> <CNN_VS>
0.5151436329

> <CNNaffinity_variance>
0.2194603682

$$$$
[H]c1nc(N([H])[H])c([H])c(-n2c(N([H])c3c([H])c(N([H])C(=O)c4c([H])c([H])nc([H])c4C(C([H])([H])[H])(C([H])([H])[H])C([H])([H])[H])c([H])c([H])c3C([H])([H])[H])nc3c([H])c([H])c([H])c([H])c32)n1


 41 45  0  0  0  0  0  0  0  0999 V2000
  -15.8798   10.3313  -20.6805 C   0  0  0  0  0  0  0  0  0  0  0  0
  -16.7985   11.4992  -20.8926 C   0  0  0  0  0  0  0  0  0  0  0  0
  -16.9226   12.0859  -22.1239 C   0  0  0  0  0  0  0  0  0  0  0  0
  -17.7925   13.1802  -22.2745 C   0  0  0  0  0  0  0  0  0  0  0  0
  -18.5076   13.6627  -21.2275 C   0  0  0  0  0  0  0  0  0  0  0  0
  -18.3484   13.0290  -19.9847 C   0  0  0  0  0  0  0  0  0  0  0  0
  -17.5152   11.9574  -19.7727 C   0  0  0  0  0  0  0  0  0  0  0  0
  -19.3668   14.7848  -21.3451 N   0  0  0  0  0  0  0  0  0  0  0  0
  -19.3014   16.0021  -20.6693 C   0  0  0  0  0  0  0  0  0  0  0  0
  -18.4133   16.2189  -19.8114 O   0  0  0  0  0  0  0  0  0  0  0  0
  -20.1896   14.6651  -22.0317 H   0  0  0  0  0  0  0  0  0  0  0  0
  -20.2319   17.0680  -20.8974 C   0  0  0  0  0  0  0  0  0  0  0  0
  -21.3797   17.0557  -20.0936 C   0  0  0  0  0  0  0  0  0  0  0  0
  -22.3157   18.0441  -20.2700 C   0  0  0  0  0  0  0  0  0  0  0  0
  -22.1173   18.9961  -21.2011 N   0  0  0  0  0  0  0  0  0  0  0  0
  -20.9980   18.9894  -21.9695 C   0  0  0  0  0  0  0  0  0  0  0  0
  -20.0063   18.0148  -21.8421 C   0  0  0  0  0  0  0  0  0  0  0  0
  -18.8524   18.0748  -22.6818 C   0  0  0  0  0  0  0  0  0  0  0  0
  -17.5201   18.1786  -21.9961 C   0  0  0  0  0  0  0  0  0  0  0  0
  -18.9364   19.4416  -23.4494 C   0  0  0  0  0  0  0  0  0  0  0  0
  -18.7922   17.0559  -23.7633 C   0  0  0  0  0  0  0  0  0  0  0  0
  -17.3326   11.3025  -18.5428 N   0  0  0  0  0  0  0  0  0  0  0  0
  -16.3384   11.3225  -18.1504 H   0  0  0  0  0  0  0  0  0  0  0  0
  -18.2654   10.6239  -17.7547 C   0  0  0  0  0  0  0  0  0  0  0  0
  -18.3674    9.2922  -17.5309 N   0  0  0  0  0  0  0  0  0  0  0  0
  -19.3956    9.0104  -16.7188 C   0  0  0  0  0  0  0  0  0  0  0  0
  -19.8994    7.8345  -16.2081 C   0  0  0  0  0  0  0  0  0  0  0  0
  -20.9984    7.8965  -15.3807 C   0  0  0  0  0  0  0  0  0  0  0  0
  -21.5669    9.1408  -15.0843 C   0  0  0  0  0  0  0  0  0  0  0  0
  -21.0489   10.2996  -15.6045 C   0  0  0  0  0  0  0  0  0  0  0  0
  -19.9613   10.2477  -16.4245 C   0  0  0  0  0  0  0  0  0  0  0  0
  -19.2772   11.2118  -17.0503 N   0  0  0  0  0  0  0  0  0  0  0  0
  -19.5385   12.6017  -17.0062 C   0  0  0  0  0  0  0  0  0  0  0  0
  -20.8019   13.1009  -17.2257 C   0  0  0  0  0  0  0  0  0  0  0  0
  -21.0347   14.4499  -17.1787 C   0  0  0  0  0  0  0  0  0  0  0  0
  -22.3287   15.0010  -17.4006 N   0  0  0  0  0  0  0  0  0  0  0  0
  -20.0174   15.2841  -16.9158 N   0  0  0  0  0  0  0  0  0  0  0  0
  -18.7808   14.8237  -16.6985 C   0  0  0  0  0  0  0  0  0  0  0  0
  -18.5682   13.5064  -16.7476 N   0  0  0  0  0  0  0  0  0  0  0  0
  -22.8054   15.4616  -16.6079 H   0  0  0  0  0  0  0  0  0  0  0  0
  -22.8004   14.9554  -18.3180 H   0  0  0  0  0  0  0  0  0  0  0  0
  1  2  1  0  0  0
  2  3  2  0  0  0
  3  4  1  0  0  0
  4  5  2  0  0  0
  5  8  1  0  0  0
  8  9  1  0  0  0
  9 10  2  0  0  0
  9 12  1  0  0  0
 12 13  2  0  0  0
 13 14  1  0  0  0
 14 15  2  0  0  0
 15 16  1  0  0  0
 16 17  2  0  0  0
 17 18  1  0  0  0
 18 19  1  0  0  0
 18 20  1  0  0  0
 18 21  1  0  0  0
  5  6  1  0  0  0
  6  7  2  0  0  0
  7 22  1  0  0  0
 22 24  1  0  0  0
 24 25  2  0  0  0
 25 26  1  0  0  0
 26 27  2  0  0  0
 27 28  1  0  0  0
 28 29  2  0  0  0
 29 30  1  0  0  0
 30 31  2  0  0  0
 31 32  1  0  0  0
 32 33  1  0  0  0
 33 34  2  0  0  0
 34 35  1  0  0  0
 35 36  1  0  0  0
 35 37  2  0  0  0
 37 38  1  0  0  0
 38 39  2  0  0  0
  7  2  1  0  0  0
 32 24  1  0  0  0
 39 33  1  0  0  0
 17 12  1  0  0  0
 31 26  1  0  0  0
  8 11  1  0  0  0
 22 23  1  0  0  0
 36 40  1  0  0  0
 36 41  1  0  0  0
M  END
> <minimizedAffinity>
-9.03879

> <CNNscore>
0.0625176802

> <CNNaffinity>
6.5982184410

> <CNN_VS>
0.4125052989

> <CNNaffinity_variance>
0.4416945577

$$$$
[H]c1nc(N([H])[H])c([H])c(-n2c(N([H])c3c([H])c(N([H])C(=O)c4c([H])c([H])nc([H])c4C(C([H])([H])[H])(C([H])([H])[H])C([H])([H])[H])c([H])c([H])c3C([H])([H])[H])nc3c([H])c([H])c([H])c([H])c32)n1


 41 45  0  0  0  0  0  0  0  0999 V2000
  -16.0535   11.5935  -20.9221 C   0  0  0  0  0  0  0  0  0  0  0  0
  -17.0388   11.1647  -19.8740 C   0  0  0  0  0  0  0  0  0  0  0  0
  -16.7410   10.1583  -18.9941 C   0  0  0  0  0  0  0  0  0  0  0  0
  -17.6966    9.7877  -18.0315 C   0  0  0  0  0  0  0  0  0  0  0  0
  -18.9019   10.4060  -17.9590 C   0  0  0  0  0  0  0  0  0  0  0  0
  -19.1623   11.4321  -18.8812 C   0  0  0  0  0  0  0  0  0  0  0  0
  -18.2719   11.8402  -19.8447 C   0  0  0  0  0  0  0  0  0  0  0  0
  -19.8951   10.0297  -17.0193 N   0  0  0  0  0  0  0  0  0  0  0  0
  -19.7461    9.2836  -15.8513 C   0  0  0  0  0  0  0  0  0  0  0  0
  -18.6288    8.8252  -15.5147 O   0  0  0  0  0  0  0  0  0  0  0  0
  -20.8982   10.3454  -17.2576 H   0  0  0  0  0  0  0  0  0  0  0  0
  -20.8401    8.9869  -14.9744 C   0  0  0  0  0  0  0  0  0  0  0  0
  -21.4709    7.7535  -15.1849 C   0  0  0  0  0  0  0  0  0  0  0  0
  -22.5331    7.4140  -14.3845 C   0  0  0  0  0  0  0  0  0  0  0  0
  -22.9456    8.2618  -13.4234 N   0  0  0  0  0  0  0  0  0  0  0  0
  -22.3201    9.4523  -13.2363 C   0  0  0  0  0  0  0  0  0  0  0  0
  -21.2341    9.8595  -14.0136 C   0  0  0  0  0  0  0  0  0  0  0  0
  -20.6223   11.1241  -13.7556 C   0  0  0  0  0  0  0  0  0  0  0  0
  -19.2518   11.1010  -13.1414 C   0  0  0  0  0  0  0  0  0  0  0  0
  -21.4777   11.8060  -12.6295 C   0  0  0  0  0  0  0  0  0  0  0  0
  -20.6621   12.0974  -14.8792 C   0  0  0  0  0  0  0  0  0  0  0  0
  -18.5023   12.8615  -20.7821 N   0  0  0  0  0  0  0  0  0  0  0  0
  -18.8624   12.5417  -21.7365 H   0  0  0  0  0  0  0  0  0  0  0  0
  -18.3267   14.2411  -20.6485 C   0  0  0  0  0  0  0  0  0  0  0  0
  -18.7852   15.0565  -19.6694 N   0  0  0  0  0  0  0  0  0  0  0  0
  -18.4193   16.3283  -19.8813 C   0  0  0  0  0  0  0  0  0  0  0  0
  -18.6349   17.4995  -19.1892 C   0  0  0  0  0  0  0  0  0  0  0  0
  -18.1065   18.6666  -19.6945 C   0  0  0  0  0  0  0  0  0  0  0  0
  -17.3719   18.6299  -20.8853 C   0  0  0  0  0  0  0  0  0  0  0  0
  -17.1697   17.4519  -21.5585 C   0  0  0  0  0  0  0  0  0  0  0  0
  -17.6891   16.2920  -21.0658 C   0  0  0  0  0  0  0  0  0  0  0  0
  -17.6380   15.0351  -21.5206 N   0  0  0  0  0  0  0  0  0  0  0  0
  -16.9917   14.5848  -22.6961 C   0  0  0  0  0  0  0  0  0  0  0  0
  -15.7254   15.0105  -23.0258 C   0  0  0  0  0  0  0  0  0  0  0  0
  -15.1166   14.5632  -24.1683 C   0  0  0  0  0  0  0  0  0  0  0  0
  -13.8076   14.9824  -24.5402 N   0  0  0  0  0  0  0  0  0  0  0  0
  -15.7670   13.7032  -24.9666 N   0  0  0  0  0  0  0  0  0  0  0  0
  -16.9980   13.2742  -24.6679 C   0  0  0  0  0  0  0  0  0  0  0  0
  -17.5795   13.7187  -23.5512 N   0  0  0  0  0  0  0  0  0  0  0  0
  -13.0502   14.2795  -24.5349 H   0  0  0  0  0  0  0  0  0  0  0  0
  -13.5938   15.9554  -24.8119 H   0  0  0  0  0  0  0  0  0  0  0  0
  1  2  1  0  0  0
  2  3  2  0  0  0
  3  4  1  0  0  0
  4  5  2  0  0  0
  5  8  1  0  0  0
  8  9  1  0  0  0
  9 10  2  0  0  0
  9 12  1  0  0  0
 12 13  2  0  0  0
 13 14  1  0  0  0
 14 15  2  0  0  0
 15 16  1  0  0  0
 16 17  2  0  0  0
 17 18  1  0  0  0
 18 19  1  0  0  0
 18 20  1  0  0  0
 18 21  1  0  0  0
  5  6  1  0  0  0
  6  7  2  0  0  0
  7 22  1  0  0  0
 22 24  1  0  0  0
 24 25  2  0  0  0
 25 26  1  0  0  0
 26 27  2  0  0  0
 27 28  1  0  0  0
 28 29  2  0  0  0
 29 30  1  0  0  0
 30 31  2  0  0  0
 31 32  1  0  0  0
 32 33  1  0  0  0
 33 34  2  0  0  0
 34 35  1  0  0  0
 35 36  1  0  0  0
 35 37  2  0  0  0
 37 38  1  0  0  0
 38 39  2  0  0  0
  7  2  1  0  0  0
 32 24  1  0  0  0
 39 33  1  0  0  0
 17 12  1  0  0  0
 31 26  1  0  0  0
  8 11  1  0  0  0
 22 23  1  0  0  0
 36 40  1  0  0  0
 36 41  1  0  0  0
M  END
> <minimizedAffinity>
-8.31333

> <CNNscore>
0.0593145639

> <CNNaffinity>
6.9359016418

> <CNN_VS>
0.4113999903

> <CNNaffinity_variance>
0.1297907382

$$$$
[H]c1nc(N([H])[H])c([H])c(-n2c(N([H])c3c([H])c(N([H])C(=O)c4c([H])c([H])nc([H])c4C(C([H])([H])[H])(C([H])([H])[H])C([H])([H])[H])c([H])c([H])c3C([H])([H])[H])nc3c([H])c([H])c([H])c([H])c32)n1


 41 45  0  0  0  0  0  0  0  0999 V2000
  -22.2639   14.1607  -15.1816 C   0  0  0  0  0  0  0  0  0  0  0  0
  -22.1065   15.1478  -16.3014 C   0  0  0  0  0  0  0  0  0  0  0  0
  -22.5582   16.4348  -16.1773 C   0  0  0  0  0  0  0  0  0  0  0  0
  -22.3924   17.3236  -17.2542 C   0  0  0  0  0  0  0  0  0  0  0  0
  -21.7959   16.9313  -18.4077 C   0  0  0  0  0  0  0  0  0  0  0  0
  -21.3484   15.6030  -18.4888 C   0  0  0  0  0  0  0  0  0  0  0  0
  -21.4808   14.6869  -17.4735 C   0  0  0  0  0  0  0  0  0  0  0  0
  -21.6456   17.7982  -19.5199 N   0  0  0  0  0  0  0  0  0  0  0  0
  -22.1154   17.6292  -20.8213 C   0  0  0  0  0  0  0  0  0  0  0  0
  -22.7472   16.5982  -21.1522 O   0  0  0  0  0  0  0  0  0  0  0  0
  -21.0720   18.6920  -19.3333 H   0  0  0  0  0  0  0  0  0  0  0  0
  -21.9063   18.5999  -21.8548 C   0  0  0  0  0  0  0  0  0  0  0  0
  -23.0483   19.2925  -22.2786 C   0  0  0  0  0  0  0  0  0  0  0  0
  -22.9170   20.2289  -23.2737 C   0  0  0  0  0  0  0  0  0  0  0  0
  -21.7081   20.4623  -23.8187 N   0  0  0  0  0  0  0  0  0  0  0  0
  -20.6143   19.7797  -23.3931 C   0  0  0  0  0  0  0  0  0  0  0  0
  -20.6767   18.8152  -22.3856 C   0  0  0  0  0  0  0  0  0  0  0  0
  -19.4829   18.1408  -21.9855 C   0  0  0  0  0  0  0  0  0  0  0  0
  -18.8598   18.5772  -20.6904 C   0  0  0  0  0  0  0  0  0  0  0  0
  -18.3815   18.5364  -23.0320 C   0  0  0  0  0  0  0  0  0  0  0  0
  -19.5307   16.6562  -22.0546 C   0  0  0  0  0  0  0  0  0  0  0  0
  -21.0455   13.3517  -17.5236 N   0  0  0  0  0  0  0  0  0  0  0  0
  -21.5798   12.6665  -16.9007 H   0  0  0  0  0  0  0  0  0  0  0  0
  -20.0095   12.7863  -18.2712 C   0  0  0  0  0  0  0  0  0  0  0  0
  -19.5275   13.1810  -19.4736 N   0  0  0  0  0  0  0  0  0  0  0  0
  -18.5277   12.3882  -19.8834 C   0  0  0  0  0  0  0  0  0  0  0  0
  -17.7342   12.3765  -21.0093 C   0  0  0  0  0  0  0  0  0  0  0  0
  -16.7729   11.3971  -21.1240 C   0  0  0  0  0  0  0  0  0  0  0  0
  -16.6302   10.4505  -20.1027 C   0  0  0  0  0  0  0  0  0  0  0  0
  -17.4318   10.4808  -18.9900 C   0  0  0  0  0  0  0  0  0  0  0  0
  -18.3860   11.4465  -18.8681 C   0  0  0  0  0  0  0  0  0  0  0  0
  -19.2796   11.6921  -17.9035 N   0  0  0  0  0  0  0  0  0  0  0  0
  -19.4563   10.9598  -16.7057 C   0  0  0  0  0  0  0  0  0  0  0  0
  -19.2457    9.6008  -16.6586 C   0  0  0  0  0  0  0  0  0  0  0  0
  -19.4222    8.9096  -15.4894 C   0  0  0  0  0  0  0  0  0  0  0  0
  -19.2131    7.5037  -15.4044 N   0  0  0  0  0  0  0  0  0  0  0  0
  -19.8034    9.5704  -14.3858 N   0  0  0  0  0  0  0  0  0  0  0  0
  -20.0140   10.8910  -14.4057 C   0  0  0  0  0  0  0  0  0  0  0  0
  -19.8384   11.5520  -15.5524 N   0  0  0  0  0  0  0  0  0  0  0  0
  -18.4255    7.1614  -14.8297 H   0  0  0  0  0  0  0  0  0  0  0  0
  -19.8167    6.8233  -15.8932 H   0  0  0  0  0  0  0  0  0  0  0  0
  1  2  1  0  0  0
  2  3  2  0  0  0
  3  4  1  0  0  0
  4  5  2  0  0  0
  5  8  1  0  0  0
  8  9  1  0  0  0
  9 10  2  0  0  0
  9 12  1  0  0  0
 12 13  2  0  0  0
 13 14  1  0  0  0
 14 15  2  0  0  0
 15 16  1  0  0  0
 16 17  2  0  0  0
 17 18  1  0  0  0
 18 19  1  0  0  0
 18 20  1  0  0  0
 18 21  1  0  0  0
  5  6  1  0  0  0
  6  7  2  0  0  0
  7 22  1  0  0  0
 22 24  1  0  0  0
 24 25  2  0  0  0
 25 26  1  0  0  0
 26 27  2  0  0  0
 27 28  1  0  0  0
 28 29  2  0  0  0
 29 30  1  0  0  0
 30 31  2  0  0  0
 31 32  1  0  0  0
 32 33  1  0  0  0
 33 34  2  0  0  0
 34 35  1  0  0  0
 35 36  1  0  0  0
 35 37  2  0  0  0
 37 38  1  0  0  0
 38 39  2  0  0  0
  7  2  1  0  0  0
 32 24  1  0  0  0
 39 33  1  0  0  0
 17 12  1  0  0  0
 31 26  1  0  0  0
  8 11  1  0  0  0
 22 23  1  0  0  0
 36 40  1  0  0  0
 36 41  1  0  0  0
M  END
> <minimizedAffinity>
-8.49142

> <CNNscore>
0.0522348173

> <CNNaffinity>
6.3380899429

> <CNN_VS>
0.3310689628

> <CNNaffinity_variance>
0.2819754779

$$$$
[H]c1nc(N([H])[H])c([H])c(-n2c(N([H])c3c([H])c(N([H])C(=O)c4c([H])c([H])nc([H])c4C(C([H])([H])[H])(C([H])([H])[H])C([H])([H])[H])c([H])c([H])c3C([H])([H])[H])nc3c([H])c([H])c([H])c([H])c32)n1


 41 45  0  0  0  0  0  0  0  0999 V2000
  -16.3120   10.2520  -19.5677 C   0  0  0  0  0  0  0  0  0  0  0  0
  -17.5146   10.5969  -18.7382 C   0  0  0  0  0  0  0  0  0  0  0  0
  -18.1646    9.6403  -18.0045 C   0  0  0  0  0  0  0  0  0  0  0  0
  -19.2892   10.0090  -17.2454 C   0  0  0  0  0  0  0  0  0  0  0  0
  -19.7395   11.2885  -17.2265 C   0  0  0  0  0  0  0  0  0  0  0  0
  -19.0410   12.2346  -17.9936 C   0  0  0  0  0  0  0  0  0  0  0  0
  -17.9371   11.9381  -18.7558 C   0  0  0  0  0  0  0  0  0  0  0  0
  -20.8899   11.6799  -16.4954 N   0  0  0  0  0  0  0  0  0  0  0  0
  -21.0278   11.8459  -15.1184 C   0  0  0  0  0  0  0  0  0  0  0  0
  -20.0696   11.6241  -14.3410 O   0  0  0  0  0  0  0  0  0  0  0  0
  -21.7766   11.8467  -17.0861 H   0  0  0  0  0  0  0  0  0  0  0  0
  -22.2534   12.2658  -14.5055 C   0  0  0  0  0  0  0  0  0  0  0  0
  -22.4109   13.6490  -14.3462 C   0  0  0  0  0  0  0  0  0  0  0  0
  -23.5589   14.1157  -13.7559 C   0  0  0  0  0  0  0  0  0  0  0  0
  -24.5017   13.2468  -13.3450 N   0  0  0  0  0  0  0  0  0  0  0  0
  -24.3290   11.9101  -13.5089 C   0  0  0  0  0  0  0  0  0  0  0  0
  -23.1868   11.3683  -14.1015 C   0  0  0  0  0  0  0  0  0  0  0  0
  -23.0766    9.9516  -14.2457 C   0  0  0  0  0  0  0  0  0  0  0  0
  -23.0466    9.4135  -15.6477 C   0  0  0  0  0  0  0  0  0  0  0  0
  -24.4136    9.3465  -13.6880 C   0  0  0  0  0  0  0  0  0  0  0  0
  -22.0175    9.3037  -13.4272 C   0  0  0  0  0  0  0  0  0  0  0  0
  -17.2174   12.8603  -19.5347 N   0  0  0  0  0  0  0  0  0  0  0  0
  -16.4369   13.3858  -19.0273 H   0  0  0  0  0  0  0  0  0  0  0  0
  -17.3754   13.1937  -20.8822 C   0  0  0  0  0  0  0  0  0  0  0  0
  -17.1110   12.4357  -21.9728 N   0  0  0  0  0  0  0  0  0  0  0  0
  -17.3846   13.0974  -23.1058 C   0  0  0  0  0  0  0  0  0  0  0  0
  -17.2855   12.7658  -24.4390 C   0  0  0  0  0  0  0  0  0  0  0  0
  -17.6585   13.7024  -25.3772 C   0  0  0  0  0  0  0  0  0  0  0  0
  -18.1237   14.9528  -24.9535 C   0  0  0  0  0  0  0  0  0  0  0  0
  -18.2138   15.2618  -23.6201 C   0  0  0  0  0  0  0  0  0  0  0  0
  -17.8468   14.3410  -22.6845 C   0  0  0  0  0  0  0  0  0  0  0  0
  -17.8382   14.3913  -21.3479 N   0  0  0  0  0  0  0  0  0  0  0  0
  -18.2329   15.4827  -20.5384 C   0  0  0  0  0  0  0  0  0  0  0  0
  -17.5354   16.6688  -20.5443 C   0  0  0  0  0  0  0  0  0  0  0  0
  -17.9334   17.7138  -19.7533 C   0  0  0  0  0  0  0  0  0  0  0  0
  -17.2358   18.9549  -19.7345 N   0  0  0  0  0  0  0  0  0  0  0  0
  -19.0130   17.5715  -18.9696 N   0  0  0  0  0  0  0  0  0  0  0  0
  -19.7079   16.4291  -18.9463 C   0  0  0  0  0  0  0  0  0  0  0  0
  -19.3085   15.4186  -19.7223 N   0  0  0  0  0  0  0  0  0  0  0  0
  -17.7162   19.7905  -20.1071 H   0  0  0  0  0  0  0  0  0  0  0  0
  -16.2760   19.0454  -19.3645 H   0  0  0  0  0  0  0  0  0  0  0  0
  1  2  1  0  0  0
  2  3  2  0  0  0
  3  4  1  0  0  0
  4  5  2  0  0  0
  5  8  1  0  0  0
  8  9  1  0  0  0
  9 10  2  0  0  0
  9 12  1  0  0  0
 12 13  2  0  0  0
 13 14  1  0  0  0
 14 15  2  0  0  0
 15 16  1  0  0  0
 16 17  2  0  0  0
 17 18  1  0  0  0
 18 19  1  0  0  0
 18 20  1  0  0  0
 18 21  1  0  0  0
  5  6  1  0  0  0
  6  7  2  0  0  0
  7 22  1  0  0  0
 22 24  1  0  0  0
 24 25  2  0  0  0
 25 26  1  0  0  0
 26 27  2  0  0  0
 27 28  1  0  0  0
 28 29  2  0  0  0
 29 30  1  0  0  0
 30 31  2  0  0  0
 31 32  1  0  0  0
 32 33  1  0  0  0
 33 34  2  0  0  0
 34 35  1  0  0  0
 35 36  1  0  0  0
 35 37  2  0  0  0
 37 38  1  0  0  0
 38 39  2  0  0  0
  7  2  1  0  0  0
 32 24  1  0  0  0
 39 33  1  0  0  0
 17 12  1  0  0  0
 31 26  1  0  0  0
  8 11  1  0  0  0
 22 23  1  0  0  0
 36 40  1  0  0  0
 36 41  1  0  0  0
M  END
> <minimizedAffinity>
-9.23811

> <CNNscore>
0.0513783246

> <CNNaffinity>
6.5022978783

> <CNN_VS>
0.3340771794

> <CNNaffinity_variance>
0.3515521288

$$$$
