[H]c1nc(N([H])c2c([H])c([H])c(N3C([H])([H])C([H])([H])N(C(=O)N([H])c4c(Cl)c([H])c([H])c([H])c4Cl)C([H])([H])C3([H])[H])c([H])c2[H])nc(OC([H])([H])[H])c1-c1c([H])nn(C([H])([H])C([H])([H])C([H])([H])S(=O)(=O)C([H])([H])[H])c1[H]


 46 50  0  0  0  0  0  0  0  0999 V2000
  -18.0426   11.0092  -19.0644 C   0  0  0  0  0  0  0  0  0  0  0  0
  -17.9357    9.7891  -18.4679 C   0  0  0  0  0  0  0  0  0  0  0  0
  -18.5880    9.4986  -17.2582 C   0  0  0  0  0  0  0  0  0  0  0  0
  -19.3676   10.4254  -16.6116 C   0  0  0  0  0  0  0  0  0  0  0  0
  -19.4858   11.6641  -17.2035 C   0  0  0  0  0  0  0  0  0  0  0  0
  -18.8459   11.9450  -18.3871 C   0  0  0  0  0  0  0  0  0  0  0  0
  -20.0200   10.1108  -15.3861 N   0  0  0  0  0  0  0  0  0  0  0  0
  -19.8807   10.8909  -14.1931 C   0  0  0  0  0  0  0  0  0  0  0  0
  -19.7806    9.8832  -13.0288 C   0  0  0  0  0  0  0  0  0  0  0  0
  -21.1089    9.3383  -12.9360 N   0  0  0  0  0  0  0  0  0  0  0  0
  -21.6224    8.6892  -14.1161 C   0  0  0  0  0  0  0  0  0  0  0  0
  -20.8677    8.9439  -15.3547 C   0  0  0  0  0  0  0  0  0  0  0  0
  -21.8395    9.4528  -11.7436 C   0  0  0  0  0  0  0  0  0  0  0  0
  -23.0100    8.9337  -11.7617 O   0  0  0  0  0  0  0  0  0  0  0  0
  -21.3939   10.0791  -10.5602 N   0  0  0  0  0  0  0  0  0  0  0  0
  -20.4377   10.5259  -10.4841 H   0  0  0  0  0  0  0  0  0  0  0  0
  -22.2664   10.1055   -9.4388 C   0  0  0  0  0  0  0  0  0  0  0  0
  -22.1829    9.0818   -8.5221 C   0  0  0  0  0  0  0  0  0  0  0  0
  -21.0366    7.7740   -8.7192 Cl  0  0  0  0  0  0  0  0  0  0  0  0
  -23.0259    9.0735   -7.4032 C   0  0  0  0  0  0  0  0  0  0  0  0
  -23.9323   10.1118   -7.2503 C   0  0  0  0  0  0  0  0  0  0  0  0
  -24.0304   11.1446   -8.1570 C   0  0  0  0  0  0  0  0  0  0  0  0
  -23.1796   11.1183   -9.2514 C   0  0  0  0  0  0  0  0  0  0  0  0
  -23.2882   12.4229  -10.4168 Cl  0  0  0  0  0  0  0  0  0  0  0  0
  -17.4178   11.4139  -20.2688 N   0  0  0  0  0  0  0  0  0  0  0  0
  -16.7420   10.7145  -20.7475 H   0  0  0  0  0  0  0  0  0  0  0  0
  -17.7839   13.9609  -22.8797 C   0  0  0  0  0  0  0  0  0  0  0  0
  -17.6683   12.7881  -22.2633 N   0  0  0  0  0  0  0  0  0  0  0  0
  -17.5484   12.6348  -20.9525 C   0  0  0  0  0  0  0  0  0  0  0  0
  -17.5473   13.7813  -20.2159 N   0  0  0  0  0  0  0  0  0  0  0  0
  -17.6585   14.9945  -20.7591 C   0  0  0  0  0  0  0  0  0  0  0  0
  -17.7815   15.1197  -22.1219 C   0  0  0  0  0  0  0  0  0  0  0  0
  -17.9097   16.4214  -22.7745 C   0  0  0  0  0  0  0  0  0  0  0  0
  -17.1276   16.9313  -23.7626 C   0  0  0  0  0  0  0  0  0  0  0  0
  -17.6135   18.1669  -24.0501 N   0  0  0  0  0  0  0  0  0  0  0  0
  -18.6518   18.4147  -23.2751 N   0  0  0  0  0  0  0  0  0  0  0  0
  -18.8666   17.3809  -22.4850 C   0  0  0  0  0  0  0  0  0  0  0  0
  -19.4007   19.6905  -23.3527 C   0  0  0  0  0  0  0  0  0  0  0  0
  -20.7955   19.3679  -22.9683 C   0  0  0  0  0  0  0  0  0  0  0  0
  -21.7254   19.0573  -24.0650 C   0  0  0  0  0  0  0  0  0  0  0  0
  -23.4269   19.3540  -23.7785 S   0  0  0  0  0  0  0  0  0  0  0  0
  -24.3668   19.5272  -25.2571 C   0  0  0  0  0  0  0  0  0  0  0  0
  -23.5804   20.6231  -22.9521 O   0  0  0  0  0  0  0  0  0  0  0  0
  -23.9953   18.1840  -22.9986 O   0  0  0  0  0  0  0  0  0  0  0  0
  -17.1265   13.1652  -25.0782 C   0  0  0  0  0  0  0  0  0  0  0  0
  -17.9081   14.0392  -24.2863 O   0  0  0  0  0  0  0  0  0  0  0  0
 45 46  1  0  0  0
 46 27  1  0  0  0
 27 28  2  0  0  0
 28 29  1  0  0  0
 29 25  1  0  0  0
 25  1  1  0  0  0
  1  2  2  0  0  0
  2  3  1  0  0  0
  3  4  2  0  0  0
  4  5  1  0  0  0
  5  6  2  0  0  0
  4  7  1  0  0  0
  7  8  1  0  0  0
  8  9  1  0  0  0
  9 10  1  0  0  0
 10 11  1  0  0  0
 11 12  1  0  0  0
 10 13  1  0  0  0
 13 14  2  0  0  0
 13 15  1  0  0  0
 15 17  1  0  0  0
 17 18  2  0  0  0
 18 19  1  0  0  0
 18 20  1  0  0  0
 20 21  2  0  0  0
 21 22  1  0  0  0
 22 23  2  0  0  0
 23 24  1  0  0  0
 29 30  2  0  0  0
 30 31  1  0  0  0
 31 32  2  0  0  0
 32 33  1  0  0  0
 33 34  1  0  0  0
 34 35  2  0  0  0
 35 36  1  0  0  0
 36 38  1  0  0  0
 38 39  1  0  0  0
 39 40  1  0  0  0
 40 41  1  0  0  0
 41 42  1  0  0  0
 41 43  2  0  0  0
 41 44  2  0  0  0
 36 37  1  0  0  0
 32 27  1  0  0  0
 37 33  2  0  0  0
  6  1  1  0  0  0
 12  7  1  0  0  0
 23 17  1  0  0  0
 25 26  1  0  0  0
 15 16  1  0  0  0
M  END
> <minimizedAffinity>
-7.64836

> <CNNscore>
0.1708076596

> <CNNaffinity>
6.8008651733

> <CNN_VS>
1.1616398096

> <CNNaffinity_variance>
0.0593012087

$$$$
[H]c1nc(N([H])c2c([H])c([H])c(N3C([H])([H])C([H])([H])N(C(=O)N([H])c4c(Cl)c([H])c([H])c([H])c4Cl)C([H])([H])C3([H])[H])c([H])c2[H])nc(OC([H])([H])[H])c1-c1c([H])nn(C([H])([H])C([H])([H])C([H])([H])S(=O)(=O)C([H])([H])[H])c1[H]


 46 50  0  0  0  0  0  0  0  0999 V2000
  -19.6462    9.7243  -15.3674 C   0  0  0  0  0  0  0  0  0  0  0  0
  -19.9018   10.9727  -15.8493 C   0  0  0  0  0  0  0  0  0  0  0  0
  -19.3956   11.4049  -17.0863 C   0  0  0  0  0  0  0  0  0  0  0  0
  -18.6175   10.5956  -17.8765 C   0  0  0  0  0  0  0  0  0  0  0  0
  -18.3511    9.3295  -17.4025 C   0  0  0  0  0  0  0  0  0  0  0  0
  -18.8478    8.9099  -16.1914 C   0  0  0  0  0  0  0  0  0  0  0  0
  -18.1141   11.0531  -19.1269 N   0  0  0  0  0  0  0  0  0  0  0  0
  -18.4900   12.3004  -19.7221 C   0  0  0  0  0  0  0  0  0  0  0  0
  -18.6544   12.0250  -21.2315 C   0  0  0  0  0  0  0  0  0  0  0  0
  -17.3063   11.8136  -21.6871 N   0  0  0  0  0  0  0  0  0  0  0  0
  -16.5756   10.7409  -21.0600 C   0  0  0  0  0  0  0  0  0  0  0  0
  -17.1725   10.2103  -19.8228 C   0  0  0  0  0  0  0  0  0  0  0  0
  -16.7616   12.6295  -22.6902 C   0  0  0  0  0  0  0  0  0  0  0  0
  -15.5562   12.3592  -23.0273 O   0  0  0  0  0  0  0  0  0  0  0  0
  -17.4236   13.6949  -23.3367 N   0  0  0  0  0  0  0  0  0  0  0  0
  -18.4191   13.9661  -23.1015 H   0  0  0  0  0  0  0  0  0  0  0  0
  -16.7210   14.4217  -24.3354 C   0  0  0  0  0  0  0  0  0  0  0  0
  -16.0400   15.5575  -23.9591 C   0  0  0  0  0  0  0  0  0  0  0  0
  -16.0303   16.1049  -22.2967 Cl  0  0  0  0  0  0  0  0  0  0  0  0
  -15.3351   16.3002  -24.9152 C   0  0  0  0  0  0  0  0  0  0  0  0
  -15.3446   15.8628  -26.2311 C   0  0  0  0  0  0  0  0  0  0  0  0
  -16.0204   14.7292  -26.6265 C   0  0  0  0  0  0  0  0  0  0  0  0
  -16.7063   14.0204  -25.6521 C   0  0  0  0  0  0  0  0  0  0  0  0
  -17.5725   12.5750  -26.1341 Cl  0  0  0  0  0  0  0  0  0  0  0  0
  -20.0892    9.1929  -14.1320 N   0  0  0  0  0  0  0  0  0  0  0  0
  -19.3443    8.7709  -13.4671 H   0  0  0  0  0  0  0  0  0  0  0  0
  -23.1803    8.0820  -12.5046 C   0  0  0  0  0  0  0  0  0  0  0  0
  -21.9316    8.1143  -12.9611 N   0  0  0  0  0  0  0  0  0  0  0  0
  -21.4001    9.1274  -13.6298 C   0  0  0  0  0  0  0  0  0  0  0  0
  -22.2200   10.1941  -13.8466 N   0  0  0  0  0  0  0  0  0  0  0  0
  -23.4835   10.2381  -13.4214 C   0  0  0  0  0  0  0  0  0  0  0  0
  -24.0050    9.1711  -12.7303 C   0  0  0  0  0  0  0  0  0  0  0  0
  -25.3810    9.1622  -12.2368 C   0  0  0  0  0  0  0  0  0  0  0  0
  -25.8314    9.6136  -11.0363 C   0  0  0  0  0  0  0  0  0  0  0  0
  -27.1722    9.3961  -11.0127 N   0  0  0  0  0  0  0  0  0  0  0  0
  -27.5394    8.8341  -12.1482 N   0  0  0  0  0  0  0  0  0  0  0  0
  -26.4827    8.6741  -12.9208 C   0  0  0  0  0  0  0  0  0  0  0  0
  -28.9494    8.4730  -12.4236 C   0  0  0  0  0  0  0  0  0  0  0  0
  -29.4295    9.4468  -13.4328 C   0  0  0  0  0  0  0  0  0  0  0  0
  -29.8106    8.9013  -14.7447 C   0  0  0  0  0  0  0  0  0  0  0  0
  -28.6584    9.0815  -16.0505 S   0  0  0  0  0  0  0  0  0  0  0  0
  -27.6538   10.5200  -15.9054 C   0  0  0  0  0  0  0  0  0  0  0  0
  -29.4085    9.1424  -17.3737 O   0  0  0  0  0  0  0  0  0  0  0  0
  -27.7434    7.8719  -16.0559 O   0  0  0  0  0  0  0  0  0  0  0  0
  -23.3255    5.6697  -12.2629 C   0  0  0  0  0  0  0  0  0  0  0  0
  -23.6724    6.9602  -11.7978 O   0  0  0  0  0  0  0  0  0  0  0  0
 45 46  1  0  0  0
 46 27  1  0  0  0
 27 28  2  0  0  0
 28 29  1  0  0  0
 29 25  1  0  0  0
 25  1  1  0  0  0
  1  2  2  0  0  0
  2  3  1  0  0  0
  3  4  2  0  0  0
  4  5  1  0  0  0
  5  6  2  0  0  0
  4  7  1  0  0  0
  7  8  1  0  0  0
  8  9  1  0  0  0
  9 10  1  0  0  0
 10 11  1  0  0  0
 11 12  1  0  0  0
 10 13  1  0  0  0
 13 14  2  0  0  0
 13 15  1  0  0  0
 15 17  1  0  0  0
 17 18  2  0  0  0
 18 19  1  0  0  0
 18 20  1  0  0  0
 20 21  2  0  0  0
 21 22  1  0  0  0
 22 23  2  0  0  0
 23 24  1  0  0  0
 29 30  2  0  0  0
 30 31  1  0  0  0
 31 32  2  0  0  0
 32 33  1  0  0  0
 33 34  1  0  0  0
 34 35  2  0  0  0
 35 36  1  0  0  0
 36 38  1  0  0  0
 38 39  1  0  0  0
 39 40  1  0  0  0
 40 41  1  0  0  0
 41 42  1  0  0  0
 41 43  2  0  0  0
 41 44  2  0  0  0
 36 37  1  0  0  0
 32 27  1  0  0  0
 37 33  2  0  0  0
  6  1  1  0  0  0
 12  7  1  0  0  0
 23 17  1  0  0  0
 25 26  1  0  0  0
 15 16  1  0  0  0
M  END
> <minimizedAffinity>
-7.35836

> <CNNscore>
0.1192876026

> <CNNaffinity>
6.7133092880

> <CNN_VS>
0.8008145690

> <CNNaffinity_variance>
0.1471775472

$$$$
[H]c1nc(N([H])c2c([H])c([H])c(N3C([H])([H])C([H])([H])N(C(=O)N([H])c4c(Cl)c([H])c([H])c([H])c4Cl)C([H])([H])C3([H])[H])c([H])c2[H])nc(OC([H])([H])[H])c1-c1c([H])nn(C([H])([H])C([H])([H])C([H])([H])S(=O)(=O)C([H])([H])[H])c1[H]


 46 50  0  0  0  0  0  0  0  0999 V2000
  -19.7073    9.6466  -15.3758 C   0  0  0  0  0  0  0  0  0  0  0  0
  -19.9569   10.9091  -15.8226 C   0  0  0  0  0  0  0  0  0  0  0  0
  -19.4404   11.3764  -17.0425 C   0  0  0  0  0  0  0  0  0  0  0  0
  -18.6580   10.5890  -17.8503 C   0  0  0  0  0  0  0  0  0  0  0  0
  -18.3977    9.3089  -17.4118 C   0  0  0  0  0  0  0  0  0  0  0  0
  -18.9043    8.8549  -16.2174 C   0  0  0  0  0  0  0  0  0  0  0  0
  -18.1443   11.0820  -19.0829 N   0  0  0  0  0  0  0  0  0  0  0  0
  -18.5529   12.3227  -19.6703 C   0  0  0  0  0  0  0  0  0  0  0  0
  -18.6734   12.0623  -21.1865 C   0  0  0  0  0  0  0  0  0  0  0  0
  -17.3085   11.9070  -21.6141 N   0  0  0  0  0  0  0  0  0  0  0  0
  -16.5526   10.8534  -20.9844 C   0  0  0  0  0  0  0  0  0  0  0  0
  -17.1568   10.2842  -19.7681 C   0  0  0  0  0  0  0  0  0  0  0  0
  -16.7724   12.7562  -22.5938 C   0  0  0  0  0  0  0  0  0  0  0  0
  -15.5506   12.5353  -22.9069 O   0  0  0  0  0  0  0  0  0  0  0  0
  -17.4591   13.8053  -23.2413 N   0  0  0  0  0  0  0  0  0  0  0  0
  -18.4689   14.0364  -23.0253 H   0  0  0  0  0  0  0  0  0  0  0  0
  -16.7619   14.5713  -24.2143 C   0  0  0  0  0  0  0  0  0  0  0  0
  -16.1313   15.7256  -23.8077 C   0  0  0  0  0  0  0  0  0  0  0  0
  -16.1780   16.2493  -22.1383 Cl  0  0  0  0  0  0  0  0  0  0  0  0
  -15.4334   16.5069  -24.7378 C   0  0  0  0  0  0  0  0  0  0  0  0
  -15.3982   16.0882  -26.0593 C   0  0  0  0  0  0  0  0  0  0  0  0
  -16.0232   14.9365  -26.4849 C   0  0  0  0  0  0  0  0  0  0  0  0
  -16.7038   14.1895  -25.5355 C   0  0  0  0  0  0  0  0  0  0  0  0
  -17.5058   12.7206  -26.0561 Cl  0  0  0  0  0  0  0  0  0  0  0  0
  -20.1606    9.0800  -14.1599 N   0  0  0  0  0  0  0  0  0  0  0  0
  -20.4606    8.0384  -14.1684 H   0  0  0  0  0  0  0  0  0  0  0  0
  -19.4541   10.5413  -10.8730 C   0  0  0  0  0  0  0  0  0  0  0  0
  -19.2992    9.9616  -12.0599 N   0  0  0  0  0  0  0  0  0  0  0  0
  -20.2864    9.6963  -12.9031 C   0  0  0  0  0  0  0  0  0  0  0  0
  -21.5347   10.0567  -12.4919 N   0  0  0  0  0  0  0  0  0  0  0  0
  -21.7723   10.6416  -11.3168 C   0  0  0  0  0  0  0  0  0  0  0  0
  -20.7267   10.9034  -10.4648 C   0  0  0  0  0  0  0  0  0  0  0  0
  -20.9240   11.5445   -9.1660 C   0  0  0  0  0  0  0  0  0  0  0  0
  -21.1515   10.9380   -7.9709 C   0  0  0  0  0  0  0  0  0  0  0  0
  -21.2796   11.9258   -7.0471 N   0  0  0  0  0  0  0  0  0  0  0  0
  -21.1382   13.0949   -7.6412 N   0  0  0  0  0  0  0  0  0  0  0  0
  -20.9205   12.9097   -8.9286 C   0  0  0  0  0  0  0  0  0  0  0  0
  -21.2268   14.3701   -6.8926 C   0  0  0  0  0  0  0  0  0  0  0  0
  -22.6662   14.5725   -6.6020 C   0  0  0  0  0  0  0  0  0  0  0  0
  -23.1857   15.9386   -6.7692 C   0  0  0  0  0  0  0  0  0  0  0  0
  -23.8325   16.3611   -8.3403 S   0  0  0  0  0  0  0  0  0  0  0  0
  -25.1956   15.3601   -8.8293 C   0  0  0  0  0  0  0  0  0  0  0  0
  -22.7328   16.2309   -9.3847 O   0  0  0  0  0  0  0  0  0  0  0  0
  -24.3040   17.8019   -8.2954 O   0  0  0  0  0  0  0  0  0  0  0  0
  -17.6073    9.6840   -9.5490 C   0  0  0  0  0  0  0  0  0  0  0  0
  -18.3462   10.7905  -10.0301 O   0  0  0  0  0  0  0  0  0  0  0  0
 45 46  1  0  0  0
 46 27  1  0  0  0
 27 28  2  0  0  0
 28 29  1  0  0  0
 29 25  1  0  0  0
 25  1  1  0  0  0
  1  2  2  0  0  0
  2  3  1  0  0  0
  3  4  2  0  0  0
  4  5  1  0  0  0
  5  6  2  0  0  0
  4  7  1  0  0  0
  7  8  1  0  0  0
  8  9  1  0  0  0
  9 10  1  0  0  0
 10 11  1  0  0  0
 11 12  1  0  0  0
 10 13  1  0  0  0
 13 14  2  0  0  0
 13 15  1  0  0  0
 15 17  1  0  0  0
 17 18  2  0  0  0
 18 19  1  0  0  0
 18 20  1  0  0  0
 20 21  2  0  0  0
 21 22  1  0  0  0
 22 23  2  0  0  0
 23 24  1  0  0  0
 29 30  2  0  0  0
 30 31  1  0  0  0
 31 32  2  0  0  0
 32 33  1  0  0  0
 33 34  1  0  0  0
 34 35  2  0  0  0
 35 36  1  0  0  0
 36 38  1  0  0  0
 38 39  1  0  0  0
 39 40  1  0  0  0
 40 41  1  0  0  0
 41 42  1  0  0  0
 41 43  2  0  0  0
 41 44  2  0  0  0
 36 37  1  0  0  0
 32 27  1  0  0  0
 37 33  2  0  0  0
  6  1  1  0  0  0
 12  7  1  0  0  0
 23 17  1  0  0  0
 25 26  1  0  0  0
 15 16  1  0  0  0
M  END
> <minimizedAffinity>
-8.82675

> <CNNscore>
0.1161589324

> <CNNaffinity>
6.4797973633

> <CNN_VS>
0.7526863217

> <CNNaffinity_variance>
0.0012564792

$$$$
[H]c1nc(N([H])c2c([H])c([H])c(N3C([H])([H])C([H])([H])N(C(=O)N([H])c4c(Cl)c([H])c([H])c([H])c4Cl)C([H])([H])C3([H])[H])c([H])c2[H])nc(OC([H])([H])[H])c1-c1c([H])nn(C([H])([H])C([H])([H])C([H])([H])S(=O)(=O)C([H])([H])[H])c1[H]


 46 50  0  0  0  0  0  0  0  0999 V2000
  -18.0161   11.5684  -18.9869 C   0  0  0  0  0  0  0  0  0  0  0  0
  -19.0387   12.1016  -18.2618 C   0  0  0  0  0  0  0  0  0  0  0  0
  -19.6934   11.3683  -17.2582 C   0  0  0  0  0  0  0  0  0  0  0  0
  -19.3399   10.0774  -16.9529 C   0  0  0  0  0  0  0  0  0  0  0  0
  -18.3063    9.5249  -17.6775 C   0  0  0  0  0  0  0  0  0  0  0  0
  -17.6681   10.2451  -18.6591 C   0  0  0  0  0  0  0  0  0  0  0  0
  -20.0165    9.3516  -15.9322 N   0  0  0  0  0  0  0  0  0  0  0  0
  -19.4255    8.2649  -15.2103 C   0  0  0  0  0  0  0  0  0  0  0  0
  -20.5305    7.1988  -15.0562 C   0  0  0  0  0  0  0  0  0  0  0  0
  -21.4427    7.7889  -14.1130 N   0  0  0  0  0  0  0  0  0  0  0  0
  -22.0197    9.0571  -14.4825 C   0  0  0  0  0  0  0  0  0  0  0  0
  -21.3682    9.7411  -15.6121 C   0  0  0  0  0  0  0  0  0  0  0  0
  -21.7313    7.1372  -12.9045 C   0  0  0  0  0  0  0  0  0  0  0  0
  -22.5564    7.7425  -12.1346 O   0  0  0  0  0  0  0  0  0  0  0  0
  -21.1959    5.9006  -12.4859 N   0  0  0  0  0  0  0  0  0  0  0  0
  -20.5100    5.3536  -13.0777 H   0  0  0  0  0  0  0  0  0  0  0  0
  -21.5976    5.3810  -11.2257 C   0  0  0  0  0  0  0  0  0  0  0  0
  -20.8454    5.7005  -10.1177 C   0  0  0  0  0  0  0  0  0  0  0  0
  -19.4278    6.7195  -10.2422 Cl  0  0  0  0  0  0  0  0  0  0  0  0
  -21.2102    5.2078   -8.8580 C   0  0  0  0  0  0  0  0  0  0  0  0
  -22.3343    4.4014   -8.7635 C   0  0  0  0  0  0  0  0  0  0  0  0
  -23.0992    4.0708   -9.8607 C   0  0  0  0  0  0  0  0  0  0  0  0
  -22.7068    4.5773  -11.0903 C   0  0  0  0  0  0  0  0  0  0  0  0
  -23.6662    4.1688  -12.4990 Cl  0  0  0  0  0  0  0  0  0  0  0  0
  -17.3006   12.2081  -20.0279 N   0  0  0  0  0  0  0  0  0  0  0  0
  -16.4259   11.7047  -20.4236 H   0  0  0  0  0  0  0  0  0  0  0  0
  -17.7998   15.7851  -20.6554 C   0  0  0  0  0  0  0  0  0  0  0  0
  -17.5347   14.6317  -20.0486 N   0  0  0  0  0  0  0  0  0  0  0  0
  -17.5677   13.4455  -20.6383 C   0  0  0  0  0  0  0  0  0  0  0  0
  -17.9006   13.4457  -21.9598 N   0  0  0  0  0  0  0  0  0  0  0  0
  -18.1802   14.5593  -22.6388 C   0  0  0  0  0  0  0  0  0  0  0  0
  -18.1370   15.7742  -21.9983 C   0  0  0  0  0  0  0  0  0  0  0  0
  -18.4303   17.0283  -22.6896 C   0  0  0  0  0  0  0  0  0  0  0  0
  -17.5886   17.7603  -23.4666 C   0  0  0  0  0  0  0  0  0  0  0  0
  -18.2884   18.8450  -23.8902 N   0  0  0  0  0  0  0  0  0  0  0  0
  -19.5111   18.7902  -23.3982 N   0  0  0  0  0  0  0  0  0  0  0  0
  -19.6403   17.7030  -22.6632 C   0  0  0  0  0  0  0  0  0  0  0  0
  -20.5181   19.8386  -23.6834 C   0  0  0  0  0  0  0  0  0  0  0  0
  -21.8030   19.3242  -23.1527 C   0  0  0  0  0  0  0  0  0  0  0  0
  -23.0287   19.9352  -23.6895 C   0  0  0  0  0  0  0  0  0  0  0  0
  -23.5859   19.3705  -25.2502 S   0  0  0  0  0  0  0  0  0  0  0  0
  -23.3959   17.6349  -25.4763 C   0  0  0  0  0  0  0  0  0  0  0  0
  -22.8152   20.0920  -26.3468 O   0  0  0  0  0  0  0  0  0  0  0  0
  -25.0604   19.6997  -25.3832 O   0  0  0  0  0  0  0  0  0  0  0  0
  -18.6732   17.2320  -18.9111 C   0  0  0  0  0  0  0  0  0  0  0  0
  -17.7421   17.0115  -19.9535 O   0  0  0  0  0  0  0  0  0  0  0  0
 45 46  1  0  0  0
 46 27  1  0  0  0
 27 28  2  0  0  0
 28 29  1  0  0  0
 29 25  1  0  0  0
 25  1  1  0  0  0
  1  2  2  0  0  0
  2  3  1  0  0  0
  3  4  2  0  0  0
  4  5  1  0  0  0
  5  6  2  0  0  0
  4  7  1  0  0  0
  7  8  1  0  0  0
  8  9  1  0  0  0
  9 10  1  0  0  0
 10 11  1  0  0  0
 11 12  1  0  0  0
 10 13  1  0  0  0
 13 14  2  0  0  0
 13 15  1  0  0  0
 15 17  1  0  0  0
 17 18  2  0  0  0
 18 19  1  0  0  0
 18 20  1  0  0  0
 20 21  2  0  0  0
 21 22  1  0  0  0
 22 23  2  0  0  0
 23 24  1  0  0  0
 29 30  2  0  0  0
 30 31  1  0  0  0
 31 32  2  0  0  0
 32 33  1  0  0  0
 33 34  1  0  0  0
 34 35  2  0  0  0
 35 36  1  0  0  0
 36 38  1  0  0  0
 38 39  1  0  0  0
 39 40  1  0  0  0
 40 41  1  0  0  0
 41 42  1  0  0  0
 41 43  2  0  0  0
 41 44  2  0  0  0
 36 37  1  0  0  0
 32 27  1  0  0  0
 37 33  2  0  0  0
  6  1  1  0  0  0
 12  7  1  0  0  0
 23 17  1  0  0  0
 25 26  1  0  0  0
 15 16  1  0  0  0
M  END
> <minimizedAffinity>
-7.81241

> <CNNscore>
0.1115177274

> <CNNaffinity>
6.3628435135

> <CNN_VS>
0.7095698714

> <CNNaffinity_variance>
0.0150430845

$$$$
[H]c1nc(N([H])c2c([H])c([H])c(N3C([H])([H])C([H])([H])N(C(=O)N([H])c4c(Cl)c([H])c([H])c([H])c4Cl)C([H])([H])C3([H])[H])c([H])c2[H])nc(OC([H])([H])[H])c1-c1c([H])nn(C([H])([H])C([H])([H])C([H])([H])S(=O)(=O)C([H])([H])[H])c1[H]


 46 50  0  0  0  0  0  0  0  0999 V2000
  -19.6901    9.6556  -15.4266 C   0  0  0  0  0  0  0  0  0  0  0  0
  -19.9696   10.9021  -15.9000 C   0  0  0  0  0  0  0  0  0  0  0  0
  -19.4466   11.3636  -17.1193 C   0  0  0  0  0  0  0  0  0  0  0  0
  -18.6272   10.5863  -17.8998 C   0  0  0  0  0  0  0  0  0  0  0  0
  -18.3363    9.3224  -17.4343 C   0  0  0  0  0  0  0  0  0  0  0  0
  -18.8495    8.8741  -16.2405 C   0  0  0  0  0  0  0  0  0  0  0  0
  -18.1074   11.0732  -19.1323 N   0  0  0  0  0  0  0  0  0  0  0  0
  -18.5263   12.3021  -19.7368 C   0  0  0  0  0  0  0  0  0  0  0  0
  -18.6278   12.0244  -21.2514 C   0  0  0  0  0  0  0  0  0  0  0  0
  -17.2567   11.8827  -21.6635 N   0  0  0  0  0  0  0  0  0  0  0  0
  -16.4935   10.8459  -21.0151 C   0  0  0  0  0  0  0  0  0  0  0  0
  -17.1025   10.2814  -19.7990 C   0  0  0  0  0  0  0  0  0  0  0  0
  -16.7218   12.7287  -22.6467 C   0  0  0  0  0  0  0  0  0  0  0  0
  -15.4940   12.5207  -22.9451 O   0  0  0  0  0  0  0  0  0  0  0  0
  -17.4155   13.7618  -23.3121 N   0  0  0  0  0  0  0  0  0  0  0  0
  -18.4305   13.9817  -23.1088 H   0  0  0  0  0  0  0  0  0  0  0  0
  -16.7186   14.5268  -24.2861 C   0  0  0  0  0  0  0  0  0  0  0  0
  -16.7185   14.0814  -25.5888 C   0  0  0  0  0  0  0  0  0  0  0  0
  -17.5510   12.6123  -26.0491 Cl  0  0  0  0  0  0  0  0  0  0  0  0
  -16.0430   14.8089  -26.5773 C   0  0  0  0  0  0  0  0  0  0  0  0
  -15.3853   15.9727  -26.2086 C   0  0  0  0  0  0  0  0  0  0  0  0
  -15.3742   16.4340  -24.9104 C   0  0  0  0  0  0  0  0  0  0  0  0
  -16.0537   15.6871  -23.9602 C   0  0  0  0  0  0  0  0  0  0  0  0
  -16.0520   16.2565  -22.3026 Cl  0  0  0  0  0  0  0  0  0  0  0  0
  -20.1471    9.0968  -14.2085 N   0  0  0  0  0  0  0  0  0  0  0  0
  -20.3392    8.0303  -14.1823 H   0  0  0  0  0  0  0  0  0  0  0  0
  -21.7623   10.8852  -11.4462 C   0  0  0  0  0  0  0  0  0  0  0  0
  -21.5580   10.2677  -12.6062 N   0  0  0  0  0  0  0  0  0  0  0  0
  -20.4004    9.7490  -12.9897 C   0  0  0  0  0  0  0  0  0  0  0  0
  -19.3691    9.8759  -12.1081 N   0  0  0  0  0  0  0  0  0  0  0  0
  -19.4935   10.4813  -10.9260 C   0  0  0  0  0  0  0  0  0  0  0  0
  -20.7076   11.0088  -10.5576 C   0  0  0  0  0  0  0  0  0  0  0  0
  -20.9061   11.6808   -9.2747 C   0  0  0  0  0  0  0  0  0  0  0  0
  -21.0865   11.1023   -8.0579 C   0  0  0  0  0  0  0  0  0  0  0  0
  -21.2369   12.1118   -7.1613 N   0  0  0  0  0  0  0  0  0  0  0  0
  -21.1538   13.2671   -7.7926 N   0  0  0  0  0  0  0  0  0  0  0  0
  -20.9531   13.0516   -9.0780 C   0  0  0  0  0  0  0  0  0  0  0  0
  -21.2796   14.5599   -7.0804 C   0  0  0  0  0  0  0  0  0  0  0  0
  -22.7068   14.6763   -6.6968 C   0  0  0  0  0  0  0  0  0  0  0  0
  -23.4692   15.7684   -7.3213 C   0  0  0  0  0  0  0  0  0  0  0  0
  -24.1547   15.4620   -8.9029 S   0  0  0  0  0  0  0  0  0  0  0  0
  -25.5472   16.4744   -9.2712 C   0  0  0  0  0  0  0  0  0  0  0  0
  -24.5770   14.0022   -8.9901 O   0  0  0  0  0  0  0  0  0  0  0  0
  -23.0911   15.7327   -9.9496 O   0  0  0  0  0  0  0  0  0  0  0  0
  -23.6014   12.3832  -11.9681 C   0  0  0  0  0  0  0  0  0  0  0  0
  -23.0312   11.4124  -11.1112 O   0  0  0  0  0  0  0  0  0  0  0  0
 45 46  1  0  0  0
 46 27  1  0  0  0
 27 28  2  0  0  0
 28 29  1  0  0  0
 29 25  1  0  0  0
 25  1  1  0  0  0
  1  2  2  0  0  0
  2  3  1  0  0  0
  3  4  2  0  0  0
  4  5  1  0  0  0
  5  6  2  0  0  0
  4  7  1  0  0  0
  7  8  1  0  0  0
  8  9  1  0  0  0
  9 10  1  0  0  0
 10 11  1  0  0  0
 11 12  1  0  0  0
 10 13  1  0  0  0
 13 14  2  0  0  0
 13 15  1  0  0  0
 15 17  1  0  0  0
 17 18  2  0  0  0
 18 19  1  0  0  0
 18 20  1  0  0  0
 20 21  2  0  0  0
 21 22  1  0  0  0
 22 23  2  0  0  0
 23 24  1  0  0  0
 29 30  2  0  0  0
 30 31  1  0  0  0
 31 32  2  0  0  0
 32 33  1  0  0  0
 33 34  1  0  0  0
 34 35  2  0  0  0
 35 36  1  0  0  0
 36 38  1  0  0  0
 38 39  1  0  0  0
 39 40  1  0  0  0
 40 41  1  0  0  0
 41 42  1  0  0  0
 41 43  2  0  0  0
 41 44  2  0  0  0
 36 37  1  0  0  0
 32 27  1  0  0  0
 37 33  2  0  0  0
  6  1  1  0  0  0
 12  7  1  0  0  0
 23 17  1  0  0  0
 25 26  1  0  0  0
 15 16  1  0  0  0
M  END
> <minimizedAffinity>
-8.19539

> <CNNscore>
0.1034056991

> <CNNaffinity>
6.3556966782

> <CNN_VS>
0.6572152376

> <CNNaffinity_variance>
0.0118446024

$$$$
[H]c1nc(N([H])c2c([H])c([H])c(N3C([H])([H])C([H])([H])N(C(=O)N([H])c4c(Cl)c([H])c([H])c([H])c4Cl)C([H])([H])C3([H])[H])c([H])c2[H])nc(OC([H])([H])[H])c1-c1c([H])nn(C([H])([H])C([H])([H])C([H])([H])S(=O)(=O)C([H])([H])[H])c1[H]


 46 50  0  0  0  0  0  0  0  0999 V2000
  -19.9257   10.0870  -15.5291 C   0  0  0  0  0  0  0  0  0  0  0  0
  -20.1065   11.3400  -16.0324 C   0  0  0  0  0  0  0  0  0  0  0  0
  -19.5294   11.7372  -17.2500 C   0  0  0  0  0  0  0  0  0  0  0  0
  -18.7536   10.8872  -17.9986 C   0  0  0  0  0  0  0  0  0  0  0  0
  -18.5626    9.6159  -17.5025 C   0  0  0  0  0  0  0  0  0  0  0  0
  -19.1285    9.2306  -16.3105 C   0  0  0  0  0  0  0  0  0  0  0  0
  -18.1777   11.3097  -19.2299 N   0  0  0  0  0  0  0  0  0  0  0  0
  -18.5937   12.4845  -19.9356 C   0  0  0  0  0  0  0  0  0  0  0  0
  -18.6019   12.1076  -21.4320 C   0  0  0  0  0  0  0  0  0  0  0  0
  -17.2064   11.9809  -21.7581 N   0  0  0  0  0  0  0  0  0  0  0  0
  -16.4543   11.0108  -21.0024 C   0  0  0  0  0  0  0  0  0  0  0  0
  -17.1162   10.5072  -19.7873 C   0  0  0  0  0  0  0  0  0  0  0  0
  -16.6390   12.7780  -22.7637 C   0  0  0  0  0  0  0  0  0  0  0  0
  -15.3912   12.5881  -22.9800 O   0  0  0  0  0  0  0  0  0  0  0  0
  -17.3207   13.7453  -23.5324 N   0  0  0  0  0  0  0  0  0  0  0  0
  -18.3509   13.9473  -23.3999 H   0  0  0  0  0  0  0  0  0  0  0  0
  -16.5900   14.4669  -24.5146 C   0  0  0  0  0  0  0  0  0  0  0  0
  -16.6032   14.0026  -25.8106 C   0  0  0  0  0  0  0  0  0  0  0  0
  -17.4927   12.5615  -26.2527 Cl  0  0  0  0  0  0  0  0  0  0  0  0
  -15.8953   14.6875  -26.8069 C   0  0  0  0  0  0  0  0  0  0  0  0
  -15.1924   15.8291  -26.4526 C   0  0  0  0  0  0  0  0  0  0  0  0
  -15.1673   16.3088  -25.1613 C   0  0  0  0  0  0  0  0  0  0  0  0
  -15.8798   15.6042  -24.2030 C   0  0  0  0  0  0  0  0  0  0  0  0
  -15.8611   16.1977  -22.5540 Cl  0  0  0  0  0  0  0  0  0  0  0  0
  -20.4438    9.5881  -14.3095 N   0  0  0  0  0  0  0  0  0  0  0  0
  -21.4898    9.3047  -14.2828 H   0  0  0  0  0  0  0  0  0  0  0  0
  -19.0674   10.0768  -10.9472 C   0  0  0  0  0  0  0  0  0  0  0  0
  -19.7154   10.2786  -12.0910 N   0  0  0  0  0  0  0  0  0  0  0  0
  -19.7756    9.4062  -13.0866 C   0  0  0  0  0  0  0  0  0  0  0  0
  -19.1154    8.2304  -12.8896 N   0  0  0  0  0  0  0  0  0  0  0  0
  -18.4430    7.9527  -11.7715 C   0  0  0  0  0  0  0  0  0  0  0  0
  -18.3998    8.8787  -10.7573 C   0  0  0  0  0  0  0  0  0  0  0  0
  -17.6822    8.6307   -9.5082 C   0  0  0  0  0  0  0  0  0  0  0  0
  -16.3880    8.9345   -9.2241 C   0  0  0  0  0  0  0  0  0  0  0  0
  -16.1557    8.5146   -7.9532 N   0  0  0  0  0  0  0  0  0  0  0  0
  -17.2566    7.9735   -7.4682 N   0  0  0  0  0  0  0  0  0  0  0  0
  -18.2085    8.0232   -8.3795 C   0  0  0  0  0  0  0  0  0  0  0  0
  -17.3185    7.4195   -6.0957 C   0  0  0  0  0  0  0  0  0  0  0  0
  -18.1077    6.1688   -6.1967 C   0  0  0  0  0  0  0  0  0  0  0  0
  -17.3492    4.9278   -6.4168 C   0  0  0  0  0  0  0  0  0  0  0  0
  -17.2900    4.3066   -8.0526 S   0  0  0  0  0  0  0  0  0  0  0  0
  -16.9531    2.5806   -8.1350 C   0  0  0  0  0  0  0  0  0  0  0  0
  -16.2143    5.0508   -8.8310 O   0  0  0  0  0  0  0  0  0  0  0  0
  -18.6348    4.5514   -8.7097 O   0  0  0  0  0  0  0  0  0  0  0  0
  -20.2677   11.3690   -9.2774 C   0  0  0  0  0  0  0  0  0  0  0  0
  -19.0516   11.0609   -9.9316 O   0  0  0  0  0  0  0  0  0  0  0  0
 45 46  1  0  0  0
 46 27  1  0  0  0
 27 28  2  0  0  0
 28 29  1  0  0  0
 29 25  1  0  0  0
 25  1  1  0  0  0
  1  2  2  0  0  0
  2  3  1  0  0  0
  3  4  2  0  0  0
  4  5  1  0  0  0
  5  6  2  0  0  0
  4  7  1  0  0  0
  7  8  1  0  0  0
  8  9  1  0  0  0
  9 10  1  0  0  0
 10 11  1  0  0  0
 11 12  1  0  0  0
 10 13  1  0  0  0
 13 14  2  0  0  0
 13 15  1  0  0  0
 15 17  1  0  0  0
 17 18  2  0  0  0
 18 19  1  0  0  0
 18 20  1  0  0  0
 20 21  2  0  0  0
 21 22  1  0  0  0
 22 23  2  0  0  0
 23 24  1  0  0  0
 29 30  2  0  0  0
 30 31  1  0  0  0
 31 32  2  0  0  0
 32 33  1  0  0  0
 33 34  1  0  0  0
 34 35  2  0  0  0
 35 36  1  0  0  0
 36 38  1  0  0  0
 38 39  1  0  0  0
 39 40  1  0  0  0
 40 41  1  0  0  0
 41 42  1  0  0  0
 41 43  2  0  0  0
 41 44  2  0  0  0
 36 37  1  0  0  0
 32 27  1  0  0  0
 37 33  2  0  0  0
  6  1  1  0  0  0
 12  7  1  0  0  0
 23 17  1  0  0  0
 25 26  1  0  0  0
 15 16  1  0  0  0
M  END
> <minimizedAffinity>
-9.39169

> <CNNscore>
0.1010315344

> <CNNaffinity>
6.6065354347

> <CNN_VS>
0.6674684286

> <CNNaffinity_variance>
0.0031352497

$$$$
[H]c1nc(N([H])c2c([H])c([H])c(N3C([H])([H])C([H])([H])N(C(=O)N([H])c4c(Cl)c([H])c([H])c([H])c4Cl)C([H])([H])C3([H])[H])c([H])c2[H])nc(OC([H])([H])[H])c1-c1c([H])nn(C([H])([H])C([H])([H])C([H])([H])S(=O)(=O)C([H])([H])[H])c1[H]


 46 50  0  0  0  0  0  0  0  0999 V2000
  -19.7304   10.0889  -15.5706 C   0  0  0  0  0  0  0  0  0  0  0  0
  -19.0143    9.2456  -16.3655 C   0  0  0  0  0  0  0  0  0  0  0  0
  -18.4862    9.6630  -17.5984 C   0  0  0  0  0  0  0  0  0  0  0  0
  -18.6616   10.9405  -18.0696 C   0  0  0  0  0  0  0  0  0  0  0  0
  -19.3833   11.8053  -17.2759 C   0  0  0  0  0  0  0  0  0  0  0  0
  -19.8989   11.3934  -16.0701 C   0  0  0  0  0  0  0  0  0  0  0  0
  -18.1182   11.3433  -19.3221 N   0  0  0  0  0  0  0  0  0  0  0  0
  -18.5185   12.5329  -20.0119 C   0  0  0  0  0  0  0  0  0  0  0  0
  -18.5972   12.1581  -21.5068 C   0  0  0  0  0  0  0  0  0  0  0  0
  -17.2206   11.9818  -21.8858 N   0  0  0  0  0  0  0  0  0  0  0  0
  -16.4755   10.9846  -21.1590 C   0  0  0  0  0  0  0  0  0  0  0  0
  -17.1082   10.5039  -19.9193 C   0  0  0  0  0  0  0  0  0  0  0  0
  -16.6638   12.7590  -22.9126 C   0  0  0  0  0  0  0  0  0  0  0  0
  -15.4328   12.5247  -23.1763 O   0  0  0  0  0  0  0  0  0  0  0  0
  -17.3392   13.7508  -23.6551 N   0  0  0  0  0  0  0  0  0  0  0  0
  -18.3557   13.9896  -23.4835 H   0  0  0  0  0  0  0  0  0  0  0  0
  -16.6210   14.4468  -24.6647 C   0  0  0  0  0  0  0  0  0  0  0  0
  -16.6386   13.9412  -25.9451 C   0  0  0  0  0  0  0  0  0  0  0  0
  -17.5184   12.4793  -26.3350 Cl  0  0  0  0  0  0  0  0  0  0  0  0
  -15.9431   14.5998  -26.9675 C   0  0  0  0  0  0  0  0  0  0  0  0
  -15.2478   15.7581  -26.6546 C   0  0  0  0  0  0  0  0  0  0  0  0
  -15.2186   16.2790  -25.3795 C   0  0  0  0  0  0  0  0  0  0  0  0
  -15.9188   15.5995  -24.3944 C   0  0  0  0  0  0  0  0  0  0  0  0
  -15.8946   16.2455  -22.7653 Cl  0  0  0  0  0  0  0  0  0  0  0  0
  -20.3201    9.7706  -14.3233 N   0  0  0  0  0  0  0  0  0  0  0  0
  -21.4019    9.7875  -14.2565 H   0  0  0  0  0  0  0  0  0  0  0  0
  -18.6454    7.9370  -11.6267 C   0  0  0  0  0  0  0  0  0  0  0  0
  -19.2395    8.2273  -12.7806 N   0  0  0  0  0  0  0  0  0  0  0  0
  -19.6827    9.4298  -13.1180 C   0  0  0  0  0  0  0  0  0  0  0  0
  -19.4998   10.4136  -12.1931 N   0  0  0  0  0  0  0  0  0  0  0  0
  -18.9134   10.2028  -11.0137 C   0  0  0  0  0  0  0  0  0  0  0  0
  -18.4645    8.9441  -10.6939 C   0  0  0  0  0  0  0  0  0  0  0  0
  -17.8118    8.6522   -9.4188 C   0  0  0  0  0  0  0  0  0  0  0  0
  -16.5063    8.8483   -9.0946 C   0  0  0  0  0  0  0  0  0  0  0  0
  -16.3524    8.4269   -7.8123 N   0  0  0  0  0  0  0  0  0  0  0  0
  -17.5108    7.9880   -7.3591 N   0  0  0  0  0  0  0  0  0  0  0  0
  -18.4248    8.1067   -8.3023 C   0  0  0  0  0  0  0  0  0  0  0  0
  -17.6647    7.4594   -5.9838 C   0  0  0  0  0  0  0  0  0  0  0  0
  -18.2793    6.1184   -6.1294 C   0  0  0  0  0  0  0  0  0  0  0  0
  -17.3589    4.9935   -6.3560 C   0  0  0  0  0  0  0  0  0  0  0  0
  -17.2736    4.3453   -7.9801 S   0  0  0  0  0  0  0  0  0  0  0  0
  -16.9841    2.6093   -8.0274 C   0  0  0  0  0  0  0  0  0  0  0  0
  -16.1563    5.0465   -8.7398 O   0  0  0  0  0  0  0  0  0  0  0  0
  -18.5926    4.6175   -8.6774 O   0  0  0  0  0  0  0  0  0  0  0  0
  -18.7737    5.5513  -12.0633 C   0  0  0  0  0  0  0  0  0  0  0  0
  -18.1998    6.6252  -11.3427 O   0  0  0  0  0  0  0  0  0  0  0  0
 45 46  1  0  0  0
 46 27  1  0  0  0
 27 28  2  0  0  0
 28 29  1  0  0  0
 29 25  1  0  0  0
 25  1  1  0  0  0
  1  2  2  0  0  0
  2  3  1  0  0  0
  3  4  2  0  0  0
  4  5  1  0  0  0
  5  6  2  0  0  0
  4  7  1  0  0  0
  7  8  1  0  0  0
  8  9  1  0  0  0
  9 10  1  0  0  0
 10 11  1  0  0  0
 11 12  1  0  0  0
 10 13  1  0  0  0
 13 14  2  0  0  0
 13 15  1  0  0  0
 15 17  1  0  0  0
 17 18  2  0  0  0
 18 19  1  0  0  0
 18 20  1  0  0  0
 20 21  2  0  0  0
 21 22  1  0  0  0
 22 23  2  0  0  0
 23 24  1  0  0  0
 29 30  2  0  0  0
 30 31  1  0  0  0
 31 32  2  0  0  0
 32 33  1  0  0  0
 33 34  1  0  0  0
 34 35  2  0  0  0
 35 36  1  0  0  0
 36 38  1  0  0  0
 38 39  1  0  0  0
 39 40  1  0  0  0
 40 41  1  0  0  0
 41 42  1  0  0  0
 41 43  2  0  0  0
 41 44  2  0  0  0
 36 37  1  0  0  0
 32 27  1  0  0  0
 37 33  2  0  0  0
  6  1  1  0  0  0
 12  7  1  0  0  0
 23 17  1  0  0  0
 25 26  1  0  0  0
 15 16  1  0  0  0
M  END
> <minimizedAffinity>
-9.23954

> <CNNscore>
0.0994784161

> <CNNaffinity>
6.5949196815

> <CNN_VS>
0.6560521722

> <CNNaffinity_variance>
0.0029083109

$$$$
[H]c1nc(N([H])c2c([H])c([H])c(N3C([H])([H])C([H])([H])N(C(=O)N([H])c4c(Cl)c([H])c([H])c([H])c4Cl)C([H])([H])C3([H])[H])c([H])c2[H])nc(OC([H])([H])[H])c1-c1c([H])nn(C([H])([H])C([H])([H])C([H])([H])S(=O)(=O)C([H])([H])[H])c1[H]


 46 50  0  0  0  0  0  0  0  0999 V2000
  -17.6787   11.6239  -19.6109 C   0  0  0  0  0  0  0  0  0  0  0  0
  -17.3483   10.3794  -19.1659 C   0  0  0  0  0  0  0  0  0  0  0  0
  -18.0202    9.7775  -18.0891 C   0  0  0  0  0  0  0  0  0  0  0  0
  -19.0446   10.4078  -17.4273 C   0  0  0  0  0  0  0  0  0  0  0  0
  -19.3907   11.6670  -17.8668 C   0  0  0  0  0  0  0  0  0  0  0  0
  -18.7309   12.2533  -18.9206 C   0  0  0  0  0  0  0  0  0  0  0  0
  -19.7124    9.7802  -16.3380 N   0  0  0  0  0  0  0  0  0  0  0  0
  -19.1342    8.7290  -15.5557 C   0  0  0  0  0  0  0  0  0  0  0  0
  -20.2668    7.7142  -15.2937 C   0  0  0  0  0  0  0  0  0  0  0  0
  -21.1312    8.4006  -14.3709 N   0  0  0  0  0  0  0  0  0  0  0  0
  -21.6791    9.6575  -14.8155 C   0  0  0  0  0  0  0  0  0  0  0  0
  -21.0410   10.2365  -16.0096 C   0  0  0  0  0  0  0  0  0  0  0  0
  -21.4034    7.8475  -13.1106 C   0  0  0  0  0  0  0  0  0  0  0  0
  -22.1855    8.5336  -12.3641 O   0  0  0  0  0  0  0  0  0  0  0  0
  -20.8945    6.6269  -12.6182 N   0  0  0  0  0  0  0  0  0  0  0  0
  -20.2442    6.0162  -13.1875 H   0  0  0  0  0  0  0  0  0  0  0  0
  -21.2740    6.2129  -11.3128 C   0  0  0  0  0  0  0  0  0  0  0  0
  -22.3717    5.3925  -11.1810 C   0  0  0  0  0  0  0  0  0  0  0  0
  -23.2867    4.8644  -12.5763 Cl  0  0  0  0  0  0  0  0  0  0  0  0
  -22.7761    4.9630   -9.9103 C   0  0  0  0  0  0  0  0  0  0  0  0
  -22.0480    5.3831   -8.8074 C   0  0  0  0  0  0  0  0  0  0  0  0
  -20.9472    6.2039   -8.9195 C   0  0  0  0  0  0  0  0  0  0  0  0
  -20.5775    6.6082  -10.1932 C   0  0  0  0  0  0  0  0  0  0  0  0
  -19.1797    7.6527  -10.3579 Cl  0  0  0  0  0  0  0  0  0  0  0  0
  -17.0601   12.3295  -20.6712 N   0  0  0  0  0  0  0  0  0  0  0  0
  -16.1470   11.9188  -21.0868 H   0  0  0  0  0  0  0  0  0  0  0  0
  -18.1202   14.8531  -23.1096 C   0  0  0  0  0  0  0  0  0  0  0  0
  -17.7391   13.7011  -22.5651 N   0  0  0  0  0  0  0  0  0  0  0  0
  -17.4710   13.5282  -21.2789 C   0  0  0  0  0  0  0  0  0  0  0  0
  -17.6059   14.6300  -20.4885 N   0  0  0  0  0  0  0  0  0  0  0  0
  -17.9832   15.8201  -20.9585 C   0  0  0  0  0  0  0  0  0  0  0  0
  -18.2541   15.9666  -22.2976 C   0  0  0  0  0  0  0  0  0  0  0  0
  -18.6742   17.2441  -22.8705 C   0  0  0  0  0  0  0  0  0  0  0  0
  -17.8817   18.2113  -23.4037 C   0  0  0  0  0  0  0  0  0  0  0  0
  -18.7034   19.2172  -23.8020 N   0  0  0  0  0  0  0  0  0  0  0  0
  -19.9517   18.8902  -23.5285 N   0  0  0  0  0  0  0  0  0  0  0  0
  -19.9796   17.6995  -22.9622 C   0  0  0  0  0  0  0  0  0  0  0  0
  -21.0849   19.7897  -23.8464 C   0  0  0  0  0  0  0  0  0  0  0  0
  -22.3137   19.0272  -23.5208 C   0  0  0  0  0  0  0  0  0  0  0  0
  -23.2203   19.6310  -22.5321 C   0  0  0  0  0  0  0  0  0  0  0  0
  -23.6797   18.6437  -21.1612 S   0  0  0  0  0  0  0  0  0  0  0  0
  -22.3296   18.2364  -20.1071 C   0  0  0  0  0  0  0  0  0  0  0  0
  -24.3117   17.3535  -21.6641 O   0  0  0  0  0  0  0  0  0  0  0  0
  -24.7002   19.4066  -20.3385 O   0  0  0  0  0  0  0  0  0  0  0  0
  -17.9236   13.9237  -25.3448 C   0  0  0  0  0  0  0  0  0  0  0  0
  -18.3881   14.9548  -24.4945 O   0  0  0  0  0  0  0  0  0  0  0  0
 45 46  1  0  0  0
 46 27  1  0  0  0
 27 28  2  0  0  0
 28 29  1  0  0  0
 29 25  1  0  0  0
 25  1  1  0  0  0
  1  2  2  0  0  0
  2  3  1  0  0  0
  3  4  2  0  0  0
  4  5  1  0  0  0
  5  6  2  0  0  0
  4  7  1  0  0  0
  7  8  1  0  0  0
  8  9  1  0  0  0
  9 10  1  0  0  0
 10 11  1  0  0  0
 11 12  1  0  0  0
 10 13  1  0  0  0
 13 14  2  0  0  0
 13 15  1  0  0  0
 15 17  1  0  0  0
 17 18  2  0  0  0
 18 19  1  0  0  0
 18 20  1  0  0  0
 20 21  2  0  0  0
 21 22  1  0  0  0
 22 23  2  0  0  0
 23 24  1  0  0  0
 29 30  2  0  0  0
 30 31  1  0  0  0
 31 32  2  0  0  0
 32 33  1  0  0  0
 33 34  1  0  0  0
 34 35  2  0  0  0
 35 36  1  0  0  0
 36 38  1  0  0  0
 38 39  1  0  0  0
 39 40  1  0  0  0
 40 41  1  0  0  0
 41 42  1  0  0  0
 41 43  2  0  0  0
 41 44  2  0  0  0
 36 37  1  0  0  0
 32 27  1  0  0  0
 37 33  2  0  0  0
  6  1  1  0  0  0
 12  7  1  0  0  0
 23 17  1  0  0  0
 25 26  1  0  0  0
 15 16  1  0  0  0
M  END
> <minimizedAffinity>
-7.91188

> <CNNscore>
0.0968578309

> <CNNaffinity>
6.5396356583

> <CNN_VS>
0.6334149241

> <CNNaffinity_variance>
0.0509143993

$$$$
[H]c1nc(N([H])c2c([H])c([H])c(N3C([H])([H])C([H])([H])N(C(=O)N([H])c4c(Cl)c([H])c([H])c([H])c4Cl)C([H])([H])C3([H])[H])c([H])c2[H])nc(OC([H])([H])[H])c1-c1c([H])nn(C([H])([H])C([H])([H])C([H])([H])S(=O)(=O)C([H])([H])[H])c1[H]


 46 50  0  0  0  0  0  0  0  0999 V2000
  -17.7462   11.6630  -19.6492 C   0  0  0  0  0  0  0  0  0  0  0  0
  -17.3074   10.4619  -19.1792 C   0  0  0  0  0  0  0  0  0  0  0  0
  -17.8827    9.8557  -18.0502 C   0  0  0  0  0  0  0  0  0  0  0  0
  -18.9166   10.4379  -17.3596 C   0  0  0  0  0  0  0  0  0  0  0  0
  -19.3718   11.6528  -17.8238 C   0  0  0  0  0  0  0  0  0  0  0  0
  -18.8063   12.2434  -18.9287 C   0  0  0  0  0  0  0  0  0  0  0  0
  -19.4855    9.8068  -16.2175 N   0  0  0  0  0  0  0  0  0  0  0  0
  -20.0355   10.5265  -15.1082 C   0  0  0  0  0  0  0  0  0  0  0  0
  -19.5957    9.7650  -13.8401 C   0  0  0  0  0  0  0  0  0  0  0  0
  -20.3685    8.5524  -13.8867 N   0  0  0  0  0  0  0  0  0  0  0  0
  -20.1955    7.7232  -15.0530 C   0  0  0  0  0  0  0  0  0  0  0  0
  -19.5080    8.3646  -16.1863 C   0  0  0  0  0  0  0  0  0  0  0  0
  -21.2379    8.2260  -12.8350 C   0  0  0  0  0  0  0  0  0  0  0  0
  -21.8785    7.1255  -12.9700 O   0  0  0  0  0  0  0  0  0  0  0  0
  -21.4531    8.9974  -11.6732 N   0  0  0  0  0  0  0  0  0  0  0  0
  -20.9538    9.9152  -11.5049 H   0  0  0  0  0  0  0  0  0  0  0  0
  -22.3732    8.5169  -10.7026 C   0  0  0  0  0  0  0  0  0  0  0  0
  -21.8998    7.6966   -9.7034 C   0  0  0  0  0  0  0  0  0  0  0  0
  -20.2102    7.2482   -9.6174 Cl  0  0  0  0  0  0  0  0  0  0  0  0
  -22.7764    7.2036   -8.7282 C   0  0  0  0  0  0  0  0  0  0  0  0
  -24.1141    7.5618   -8.7995 C   0  0  0  0  0  0  0  0  0  0  0  0
  -24.6063    8.3813   -9.7917 C   0  0  0  0  0  0  0  0  0  0  0  0
  -23.7085    8.8495  -10.7389 C   0  0  0  0  0  0  0  0  0  0  0  0
  -24.3141    9.8934  -12.0098 Cl  0  0  0  0  0  0  0  0  0  0  0  0
  -17.2305   12.3695  -20.7626 N   0  0  0  0  0  0  0  0  0  0  0  0
  -16.4670   11.8841  -21.3598 H   0  0  0  0  0  0  0  0  0  0  0  0
  -17.8518   15.9762  -20.9712 C   0  0  0  0  0  0  0  0  0  0  0  0
  -17.5122   14.7751  -20.5121 N   0  0  0  0  0  0  0  0  0  0  0  0
  -17.5741   13.6544  -21.2165 C   0  0  0  0  0  0  0  0  0  0  0  0
  -18.0219   13.7794  -22.4974 N   0  0  0  0  0  0  0  0  0  0  0  0
  -18.3817   14.9478  -23.0310 C   0  0  0  0  0  0  0  0  0  0  0  0
  -18.3056   16.0921  -22.2742 C   0  0  0  0  0  0  0  0  0  0  0  0
  -18.6828   17.4012  -22.8042 C   0  0  0  0  0  0  0  0  0  0  0  0
  -17.9158   18.2460  -23.5429 C   0  0  0  0  0  0  0  0  0  0  0  0
  -18.6761   19.3416  -23.8024 N   0  0  0  0  0  0  0  0  0  0  0  0
  -19.8634   19.1851  -23.2494 N   0  0  0  0  0  0  0  0  0  0  0  0
  -19.9106   18.0202  -22.6331 C   0  0  0  0  0  0  0  0  0  0  0  0
  -20.9204   20.2173  -23.3579 C   0  0  0  0  0  0  0  0  0  0  0  0
  -20.2379   21.5201  -23.1726 C   0  0  0  0  0  0  0  0  0  0  0  0
  -20.6456   22.3165  -22.0049 C   0  0  0  0  0  0  0  0  0  0  0  0
  -19.6215   23.6650  -21.5602 S   0  0  0  0  0  0  0  0  0  0  0  0
  -19.1230   24.6488  -22.9325 C   0  0  0  0  0  0  0  0  0  0  0  0
  -18.3766   23.1376  -20.8609 O   0  0  0  0  0  0  0  0  0  0  0  0
  -20.3876   24.5559  -20.6012 O   0  0  0  0  0  0  0  0  0  0  0  0
  -18.5722   17.1983  -18.9998 C   0  0  0  0  0  0  0  0  0  0  0  0
  -17.7563   17.1262  -20.1535 O   0  0  0  0  0  0  0  0  0  0  0  0
 45 46  1  0  0  0
 46 27  1  0  0  0
 27 28  2  0  0  0
 28 29  1  0  0  0
 29 25  1  0  0  0
 25  1  1  0  0  0
  1  2  2  0  0  0
  2  3  1  0  0  0
  3  4  2  0  0  0
  4  5  1  0  0  0
  5  6  2  0  0  0
  4  7  1  0  0  0
  7  8  1  0  0  0
  8  9  1  0  0  0
  9 10  1  0  0  0
 10 11  1  0  0  0
 11 12  1  0  0  0
 10 13  1  0  0  0
 13 14  2  0  0  0
 13 15  1  0  0  0
 15 17  1  0  0  0
 17 18  2  0  0  0
 18 19  1  0  0  0
 18 20  1  0  0  0
 20 21  2  0  0  0
 21 22  1  0  0  0
 22 23  2  0  0  0
 23 24  1  0  0  0
 29 30  2  0  0  0
 30 31  1  0  0  0
 31 32  2  0  0  0
 32 33  1  0  0  0
 33 34  1  0  0  0
 34 35  2  0  0  0
 35 36  1  0  0  0
 36 38  1  0  0  0
 38 39  1  0  0  0
 39 40  1  0  0  0
 40 41  1  0  0  0
 41 42  1  0  0  0
 41 43  2  0  0  0
 41 44  2  0  0  0
 36 37  1  0  0  0
 32 27  1  0  0  0
 37 33  2  0  0  0
  6  1  1  0  0  0
 12  7  1  0  0  0
 23 17  1  0  0  0
 25 26  1  0  0  0
 15 16  1  0  0  0
M  END
> <minimizedAffinity>
-7.33026

> <CNNscore>
0.0868303627

> <CNNaffinity>
6.3280954361

> <CNN_VS>
0.5494708419

> <CNNaffinity_variance>
0.0472286567

$$$$
[H]c1nc2c(-c3c([H])c([H])c(OC([H])([H])C([H])([H])Oc4c([H])c([H])c([H])c(C(F)(F)F)c4[H])c([H])c3[H])c([H])nn2c(N([H])[H])c1-c1c([H])c([H])c([H])c(N([H])C(=O)c2c([H])c([H])c(C([H])([H])N(C([H])([H])[H])C([H])([H])[H])c([H])c2[H])c1C([H])([H])[H]


 53 58  0  0  0  0  0  0  0  0999 V2000
  -19.8420   10.2988  -16.4003 C   0  0  0  0  0  0  0  0  0  0  0  0
  -20.2669   11.4431  -16.8894 C   0  0  0  0  0  0  0  0  0  0  0  0
  -19.6756   12.0560  -17.9690 N   0  0  0  0  0  0  0  0  0  0  0  0
  -18.6075   11.4938  -18.5794 C   0  0  0  0  0  0  0  0  0  0  0  0
  -17.8227   11.8559  -19.6418 C   0  0  0  0  0  0  0  0  0  0  0  0
  -16.8733   10.8357  -19.7609 C   0  0  0  0  0  0  0  0  0  0  0  0
  -17.0720    9.9118  -18.8301 N   0  0  0  0  0  0  0  0  0  0  0  0
  -18.1351   10.3219  -18.1108 N   0  0  0  0  0  0  0  0  0  0  0  0
  -18.7100    9.7316  -17.0722 C   0  0  0  0  0  0  0  0  0  0  0  0
  -18.1851    8.4822  -16.6056 N   0  0  0  0  0  0  0  0  0  0  0  0
  -17.4744    8.5403  -15.8658 H   0  0  0  0  0  0  0  0  0  0  0  0
  -18.5056    7.5805  -16.9948 H   0  0  0  0  0  0  0  0  0  0  0  0
  -19.6373    8.6779  -13.0932 C   0  0  0  0  0  0  0  0  0  0  0  0
  -20.1449    7.4105  -13.4220 C   0  0  0  0  0  0  0  0  0  0  0  0
  -20.6696    7.1598  -14.6530 C   0  0  0  0  0  0  0  0  0  0  0  0
  -20.7070    8.1710  -15.6169 C   0  0  0  0  0  0  0  0  0  0  0  0
  -20.2104    9.4054  -15.3124 C   0  0  0  0  0  0  0  0  0  0  0  0
  -19.6917    9.6447  -14.0574 C   0  0  0  0  0  0  0  0  0  0  0  0
  -19.1959   10.9818  -13.7463 C   0  0  0  0  0  0  0  0  0  0  0  0
  -18.7511    8.9652  -10.5554 C   0  0  0  0  0  0  0  0  0  0  0  0
  -18.8918    9.9521   -9.7460 O   0  0  0  0  0  0  0  0  0  0  0  0
  -19.1833    8.8201  -11.7969 N   0  0  0  0  0  0  0  0  0  0  0  0
  -19.5097   10.1429  -11.8611 H   0  0  0  0  0  0  0  0  0  0  0  0
  -16.8615    5.6193   -8.7952 C   0  0  0  0  0  0  0  0  0  0  0  0
  -17.3254    6.6316   -7.9894 C   0  0  0  0  0  0  0  0  0  0  0  0
  -17.8695    7.7523   -8.5687 C   0  0  0  0  0  0  0  0  0  0  0  0
  -17.9450    7.8661   -9.9304 C   0  0  0  0  0  0  0  0  0  0  0  0
  -17.4646    6.8509  -10.7537 C   0  0  0  0  0  0  0  0  0  0  0  0
  -16.9192    5.7160  -10.1546 C   0  0  0  0  0  0  0  0  0  0  0  0
  -16.3873    4.3328   -8.2356 C   0  0  0  0  0  0  0  0  0  0  0  0
  -17.3314    3.0795   -6.3880 C   0  0  0  0  0  0  0  0  0  0  0  0
  -17.5195    3.5684   -7.7362 N   0  0  0  0  0  0  0  0  0  0  0  0
  -17.7593    2.3969   -8.5818 C   0  0  0  0  0  0  0  0  0  0  0  0
  -17.8736   12.9914  -20.5371 C   0  0  0  0  0  0  0  0  0  0  0  0
  -18.1041   14.2478  -19.9685 C   0  0  0  0  0  0  0  0  0  0  0  0
  -18.1605   15.4041  -20.6728 C   0  0  0  0  0  0  0  0  0  0  0  0
  -17.9851   15.4025  -22.0336 C   0  0  0  0  0  0  0  0  0  0  0  0
  -17.7526   14.1805  -22.6318 C   0  0  0  0  0  0  0  0  0  0  0  0
  -17.6996   13.0037  -21.8917 C   0  0  0  0  0  0  0  0  0  0  0  0
  -18.0511   16.6147  -22.7476 O   0  0  0  0  0  0  0  0  0  0  0  0
  -17.4696   17.7689  -22.1259 C   0  0  0  0  0  0  0  0  0  0  0  0
  -18.3129   19.0086  -22.2358 C   0  0  0  0  0  0  0  0  0  0  0  0
  -19.7168   18.6818  -22.2517 O   0  0  0  0  0  0  0  0  0  0  0  0
  -20.5720   19.2162  -23.2263 C   0  0  0  0  0  0  0  0  0  0  0  0
  -20.3833   20.4977  -23.6932 C   0  0  0  0  0  0  0  0  0  0  0  0
  -21.2492   20.9924  -24.6506 C   0  0  0  0  0  0  0  0  0  0  0  0
  -22.2919   20.1741  -25.1219 C   0  0  0  0  0  0  0  0  0  0  0  0
  -22.4546   18.8921  -24.6323 C   0  0  0  0  0  0  0  0  0  0  0  0
  -21.5841   18.4449  -23.6891 C   0  0  0  0  0  0  0  0  0  0  0  0
  -23.5478   18.0705  -25.1519 C   0  0  0  0  0  0  0  0  0  0  0  0
  -24.0533   17.1826  -24.2489 F   0  0  0  0  0  0  0  0  0  0  0  0
  -24.5738   18.9020  -25.5362 F   0  0  0  0  0  0  0  0  0  0  0  0
  -23.1296   17.3120  -26.2567 F   0  0  0  0  0  0  0  0  0  0  0  0
 31 32  1  0  0  0
 32 33  1  0  0  0
 32 30  1  0  0  0
 30 24  1  0  0  0
 24 25  2  0  0  0
 25 26  1  0  0  0
 26 27  2  0  0  0
 27 28  1  0  0  0
 28 29  2  0  0  0
 27 20  1  0  0  0
 20 21  2  0  0  0
 20 22  1  0  0  0
 22 13  1  0  0  0
 13 14  2  0  0  0
 14 15  1  0  0  0
 15 16  2  0  0  0
 16 17  1  0  0  0
 17 18  2  0  0  0
 18 19  1  0  0  0
 17  1  1  0  0  0
  1  2  1  0  0  0
  2  3  2  0  0  0
  3  4  1  0  0  0
  4  5  2  0  0  0
  5  6  1  0  0  0
  6  7  2  0  0  0
  7  8  1  0  0  0
  8  9  1  0  0  0
  9 10  1  0  0  0
  5 34  1  0  0  0
 34 35  2  0  0  0
 35 36  1  0  0  0
 36 37  2  0  0  0
 37 40  1  0  0  0
 40 41  1  0  0  0
 41 42  1  0  0  0
 42 43  1  0  0  0
 43 44  1  0  0  0
 44 45  2  0  0  0
 45 46  1  0  0  0
 46 47  2  0  0  0
 47 48  1  0  0  0
 48 49  2  0  0  0
 48 50  1  0  0  0
 50 51  1  0  0  0
 50 52  1  0  0  0
 50 53  1  0  0  0
 37 38  1  0  0  0
 38 39  2  0  0  0
 29 24  1  0  0  0
 18 13  1  0  0  0
  9  1  2  0  0  0
 39 34  1  0  0  0
  8  4  1  0  0  0
 49 44  1  0  0  0
 22 23  1  0  0  0
 10 11  1  0  0  0
 10 12  1  0  0  0
M  END
> <minimizedAffinity>
-9.33150

> <CNNscore>
0.6263911128

> <CNNaffinity>
7.1680588722

> <CNN_VS>
4.4900083542

> <CNNaffinity_variance>
0.0424771793

$$$$
[H]c1nc2c(-c3c([H])c([H])c(OC([H])([H])C([H])([H])Oc4c([H])c([H])c([H])c(C(F)(F)F)c4[H])c([H])c3[H])c([H])nn2c(N([H])[H])c1-c1c([H])c([H])c([H])c(N([H])C(=O)c2c([H])c([H])c(C([H])([H])N(C([H])([H])[H])C([H])([H])[H])c([H])c2[H])c1C([H])([H])[H]


 53 58  0  0  0  0  0  0  0  0999 V2000
  -19.7667   10.2605  -16.4866 C   0  0  0  0  0  0  0  0  0  0  0  0
  -20.2357   11.3392  -17.0746 C   0  0  0  0  0  0  0  0  0  0  0  0
  -19.6710   11.8732  -18.2089 N   0  0  0  0  0  0  0  0  0  0  0  0
  -18.5843   11.2981  -18.7727 C   0  0  0  0  0  0  0  0  0  0  0  0
  -17.8168   11.5913  -19.8684 C   0  0  0  0  0  0  0  0  0  0  0  0
  -16.8302   10.6004  -19.9008 C   0  0  0  0  0  0  0  0  0  0  0  0
  -16.9913    9.7580  -18.8890 N   0  0  0  0  0  0  0  0  0  0  0  0
  -18.0669   10.1919  -18.2030 N   0  0  0  0  0  0  0  0  0  0  0  0
  -18.6162    9.6772  -17.1116 C   0  0  0  0  0  0  0  0  0  0  0  0
  -18.0434    8.4956  -16.5373 N   0  0  0  0  0  0  0  0  0  0  0  0
  -17.3333    8.6467  -15.8103 H   0  0  0  0  0  0  0  0  0  0  0  0
  -18.3310    7.5510  -16.8412 H   0  0  0  0  0  0  0  0  0  0  0  0
  -19.4821    8.9434  -13.0530 C   0  0  0  0  0  0  0  0  0  0  0  0
  -19.9558    7.6382  -13.2630 C   0  0  0  0  0  0  0  0  0  0  0  0
  -20.4852    7.2654  -14.4607 C   0  0  0  0  0  0  0  0  0  0  0  0
  -20.5615    8.1864  -15.5089 C   0  0  0  0  0  0  0  0  0  0  0  0
  -20.0981    9.4563  -15.3201 C   0  0  0  0  0  0  0  0  0  0  0  0
  -19.5742    9.8196  -14.0974 C   0  0  0  0  0  0  0  0  0  0  0  0
  -19.1145   11.1923  -13.9110 C   0  0  0  0  0  0  0  0  0  0  0  0
  -18.5777    9.4781  -10.5620 C   0  0  0  0  0  0  0  0  0  0  0  0
  -18.5571   10.5898   -9.9198 O   0  0  0  0  0  0  0  0  0  0  0  0
  -19.0195    9.2118  -11.7799 N   0  0  0  0  0  0  0  0  0  0  0  0
  -19.1201   10.5434  -12.0581 H   0  0  0  0  0  0  0  0  0  0  0  0
  -17.2332    6.1184   -8.3781 C   0  0  0  0  0  0  0  0  0  0  0  0
  -17.9041    7.1231   -7.7225 C   0  0  0  0  0  0  0  0  0  0  0  0
  -18.2719    8.2484   -8.4197 C   0  0  0  0  0  0  0  0  0  0  0  0
  -17.9706    8.3742   -9.7487 C   0  0  0  0  0  0  0  0  0  0  0  0
  -17.2790    7.3669  -10.4167 C   0  0  0  0  0  0  0  0  0  0  0  0
  -16.9154    6.2272   -9.7002 C   0  0  0  0  0  0  0  0  0  0  0  0
  -16.9266    4.8275   -7.7205 C   0  0  0  0  0  0  0  0  0  0  0  0
  -18.2508    3.0160   -8.6373 C   0  0  0  0  0  0  0  0  0  0  0  0
  -17.0060    3.7502   -8.6945 N   0  0  0  0  0  0  0  0  0  0  0  0
  -15.9315    2.7798   -8.4732 C   0  0  0  0  0  0  0  0  0  0  0  0
  -17.9129   12.6383  -20.8624 C   0  0  0  0  0  0  0  0  0  0  0  0
  -17.3004   12.4088  -22.0983 C   0  0  0  0  0  0  0  0  0  0  0  0
  -17.3197   13.2841  -23.1324 C   0  0  0  0  0  0  0  0  0  0  0  0
  -17.9687   14.4875  -23.0172 C   0  0  0  0  0  0  0  0  0  0  0  0
  -18.5882   14.7499  -21.8119 C   0  0  0  0  0  0  0  0  0  0  0  0
  -18.5561   13.8389  -20.7610 C   0  0  0  0  0  0  0  0  0  0  0  0
  -17.9739   15.3849  -24.1026 O   0  0  0  0  0  0  0  0  0  0  0  0
  -16.7140   15.9563  -24.4809 C   0  0  0  0  0  0  0  0  0  0  0  0
  -16.5306   17.3780  -24.0277 C   0  0  0  0  0  0  0  0  0  0  0  0
  -17.7448   18.1368  -24.1941 O   0  0  0  0  0  0  0  0  0  0  0  0
  -18.6688   18.2605  -23.1463 C   0  0  0  0  0  0  0  0  0  0  0  0
  -18.2368   18.4765  -21.8570 C   0  0  0  0  0  0  0  0  0  0  0  0
  -19.1765   18.5884  -20.8492 C   0  0  0  0  0  0  0  0  0  0  0  0
  -20.5424   18.4832  -21.1692 C   0  0  0  0  0  0  0  0  0  0  0  0
  -20.9434   18.2656  -22.4736 C   0  0  0  0  0  0  0  0  0  0  0  0
  -19.9879   18.1578  -23.4343 C   0  0  0  0  0  0  0  0  0  0  0  0
  -22.3733   18.1675  -22.7664 C   0  0  0  0  0  0  0  0  0  0  0  0
  -23.0509   17.3135  -21.9473 F   0  0  0  0  0  0  0  0  0  0  0  0
  -22.9346   19.4148  -22.6221 F   0  0  0  0  0  0  0  0  0  0  0  0
  -22.5914   17.7115  -24.0761 F   0  0  0  0  0  0  0  0  0  0  0  0
 31 32  1  0  0  0
 32 33  1  0  0  0
 32 30  1  0  0  0
 30 24  1  0  0  0
 24 25  2  0  0  0
 25 26  1  0  0  0
 26 27  2  0  0  0
 27 28  1  0  0  0
 28 29  2  0  0  0
 27 20  1  0  0  0
 20 21  2  0  0  0
 20 22  1  0  0  0
 22 13  1  0  0  0
 13 14  2  0  0  0
 14 15  1  0  0  0
 15 16  2  0  0  0
 16 17  1  0  0  0
 17 18  2  0  0  0
 18 19  1  0  0  0
 17  1  1  0  0  0
  1  2  1  0  0  0
  2  3  2  0  0  0
  3  4  1  0  0  0
  4  5  2  0  0  0
  5  6  1  0  0  0
  6  7  2  0  0  0
  7  8  1  0  0  0
  8  9  1  0  0  0
  9 10  1  0  0  0
  5 34  1  0  0  0
 34 35  2  0  0  0
 35 36  1  0  0  0
 36 37  2  0  0  0
 37 40  1  0  0  0
 40 41  1  0  0  0
 41 42  1  0  0  0
 42 43  1  0  0  0
 43 44  1  0  0  0
 44 45  2  0  0  0
 45 46  1  0  0  0
 46 47  2  0  0  0
 47 48  1  0  0  0
 48 49  2  0  0  0
 48 50  1  0  0  0
 50 51  1  0  0  0
 50 52  1  0  0  0
 50 53  1  0  0  0
 37 38  1  0  0  0
 38 39  2  0  0  0
 29 24  1  0  0  0
 18 13  1  0  0  0
  9  1  2  0  0  0
 39 34  1  0  0  0
  8  4  1  0  0  0
 49 44  1  0  0  0
 22 23  1  0  0  0
 10 11  1  0  0  0
 10 12  1  0  0  0
M  END
> <minimizedAffinity>
-9.25743

> <CNNscore>
0.5753738880

> <CNNaffinity>
7.4497818947

> <CNN_VS>
4.2864098549

> <CNNaffinity_variance>
0.0339320377

$$$$
[H]c1nc2c(-c3c([H])c([H])c(OC([H])([H])C([H])([H])Oc4c([H])c([H])c([H])c(C(F)(F)F)c4[H])c([H])c3[H])c([H])nn2c(N([H])[H])c1-c1c([H])c([H])c([H])c(N([H])C(=O)c2c([H])c([H])c(C([H])([H])N(C([H])([H])[H])C([H])([H])[H])c([H])c2[H])c1C([H])([H])[H]


 53 58  0  0  0  0  0  0  0  0999 V2000
  -19.7887   10.1915  -16.4861 C   0  0  0  0  0  0  0  0  0  0  0  0
  -20.2898   11.2913  -17.0046 C   0  0  0  0  0  0  0  0  0  0  0  0
  -19.7430   11.9118  -18.1032 N   0  0  0  0  0  0  0  0  0  0  0  0
  -18.6415   11.4048  -18.7025 C   0  0  0  0  0  0  0  0  0  0  0  0
  -17.8851   11.7885  -19.7779 C   0  0  0  0  0  0  0  0  0  0  0  0
  -16.8706   10.8303  -19.8731 C   0  0  0  0  0  0  0  0  0  0  0  0
  -17.0053    9.9215  -18.9164 N   0  0  0  0  0  0  0  0  0  0  0  0
  -18.0914   10.2801  -18.2040 N   0  0  0  0  0  0  0  0  0  0  0  0
  -18.6234    9.6821  -17.1471 C   0  0  0  0  0  0  0  0  0  0  0  0
  -18.0158    8.4835  -16.6487 N   0  0  0  0  0  0  0  0  0  0  0  0
  -17.3087    8.6088  -15.9139 H   0  0  0  0  0  0  0  0  0  0  0  0
  -18.2769    7.5522  -17.0116 H   0  0  0  0  0  0  0  0  0  0  0  0
  -19.5065    8.7188  -13.1161 C   0  0  0  0  0  0  0  0  0  0  0  0
  -19.8807    7.3968  -13.4064 C   0  0  0  0  0  0  0  0  0  0  0  0
  -20.3492    7.0517  -14.6373 C   0  0  0  0  0  0  0  0  0  0  0  0
  -20.4616    8.0190  -15.6396 C   0  0  0  0  0  0  0  0  0  0  0  0
  -20.0945    9.3062  -15.3725 C   0  0  0  0  0  0  0  0  0  0  0  0
  -19.6315    9.6402  -14.1174 C   0  0  0  0  0  0  0  0  0  0  0  0
  -19.2753   11.0298  -13.8477 C   0  0  0  0  0  0  0  0  0  0  0  0
  -18.7017    9.1690  -10.5748 C   0  0  0  0  0  0  0  0  0  0  0  0
  -17.5814    8.8952  -10.0103 O   0  0  0  0  0  0  0  0  0  0  0  0
  -19.0994    8.9514  -11.8173 N   0  0  0  0  0  0  0  0  0  0  0  0
  -18.0219    8.1464  -12.0443 H   0  0  0  0  0  0  0  0  0  0  0  0
  -21.6540   11.0422   -8.2001 C   0  0  0  0  0  0  0  0  0  0  0  0
  -20.5869   11.7803   -8.6539 C   0  0  0  0  0  0  0  0  0  0  0  0
  -19.5902   11.1516   -9.3603 C   0  0  0  0  0  0  0  0  0  0  0  0
  -19.6519    9.8068   -9.6059 C   0  0  0  0  0  0  0  0  0  0  0  0
  -20.7228    9.0496   -9.1376 C   0  0  0  0  0  0  0  0  0  0  0  0
  -21.7310    9.6993   -8.4263 C   0  0  0  0  0  0  0  0  0  0  0  0
  -22.8224   11.6793   -7.5504 C   0  0  0  0  0  0  0  0  0  0  0  0
  -23.2124   13.9971   -6.9578 C   0  0  0  0  0  0  0  0  0  0  0  0
  -22.9579   13.0492   -8.0202 N   0  0  0  0  0  0  0  0  0  0  0  0
  -24.0740   13.1593   -8.9621 C   0  0  0  0  0  0  0  0  0  0  0  0
  -18.0132   12.8929  -20.7038 C   0  0  0  0  0  0  0  0  0  0  0  0
  -17.3928   12.7615  -21.9499 C   0  0  0  0  0  0  0  0  0  0  0  0
  -17.4388   13.6997  -22.9266 C   0  0  0  0  0  0  0  0  0  0  0  0
  -18.1254   14.8724  -22.7371 C   0  0  0  0  0  0  0  0  0  0  0  0
  -18.7538   15.0382  -21.5194 C   0  0  0  0  0  0  0  0  0  0  0  0
  -18.6940   14.0639  -20.5283 C   0  0  0  0  0  0  0  0  0  0  0  0
  -18.1580   15.8363  -23.7635 O   0  0  0  0  0  0  0  0  0  0  0  0
  -17.1666   16.8716  -23.7159 C   0  0  0  0  0  0  0  0  0  0  0  0
  -17.6653   18.1648  -23.1340 C   0  0  0  0  0  0  0  0  0  0  0  0
  -18.9303   18.5414  -23.7136 O   0  0  0  0  0  0  0  0  0  0  0  0
  -20.1294   18.3653  -23.0079 C   0  0  0  0  0  0  0  0  0  0  0  0
  -20.1557   18.4841  -21.6364 C   0  0  0  0  0  0  0  0  0  0  0  0
  -21.3551   18.2990  -20.9743 C   0  0  0  0  0  0  0  0  0  0  0  0
  -22.5110   18.0001  -21.7182 C   0  0  0  0  0  0  0  0  0  0  0  0
  -22.4511   17.8871  -23.0942 C   0  0  0  0  0  0  0  0  0  0  0  0
  -21.2519   18.0728  -23.7064 C   0  0  0  0  0  0  0  0  0  0  0  0
  -23.6763   17.5805  -23.8322 C   0  0  0  0  0  0  0  0  0  0  0  0
  -24.5175   16.7264  -23.1823 F   0  0  0  0  0  0  0  0  0  0  0  0
  -24.3607   18.7537  -24.0481 F   0  0  0  0  0  0  0  0  0  0  0  0
  -23.3859   16.9810  -25.0680 F   0  0  0  0  0  0  0  0  0  0  0  0
 31 32  1  0  0  0
 32 33  1  0  0  0
 32 30  1  0  0  0
 30 24  1  0  0  0
 24 25  2  0  0  0
 25 26  1  0  0  0
 26 27  2  0  0  0
 27 28  1  0  0  0
 28 29  2  0  0  0
 27 20  1  0  0  0
 20 21  2  0  0  0
 20 22  1  0  0  0
 22 13  1  0  0  0
 13 14  2  0  0  0
 14 15  1  0  0  0
 15 16  2  0  0  0
 16 17  1  0  0  0
 17 18  2  0  0  0
 18 19  1  0  0  0
 17  1  1  0  0  0
  1  2  1  0  0  0
  2  3  2  0  0  0
  3  4  1  0  0  0
  4  5  2  0  0  0
  5  6  1  0  0  0
  6  7  2  0  0  0
  7  8  1  0  0  0
  8  9  1  0  0  0
  9 10  1  0  0  0
  5 34  1  0  0  0
 34 35  2  0  0  0
 35 36  1  0  0  0
 36 37  2  0  0  0
 37 40  1  0  0  0
 40 41  1  0  0  0
 41 42  1  0  0  0
 42 43  1  0  0  0
 43 44  1  0  0  0
 44 45  2  0  0  0
 45 46  1  0  0  0
 46 47  2  0  0  0
 47 48  1  0  0  0
 48 49  2  0  0  0
 48 50  1  0  0  0
 50 51  1  0  0  0
 50 52  1  0  0  0
 50 53  1  0  0  0
 37 38  1  0  0  0
 38 39  2  0  0  0
 29 24  1  0  0  0
 18 13  1  0  0  0
  9  1  2  0  0  0
 39 34  1  0  0  0
  8  4  1  0  0  0
 49 44  1  0  0  0
 22 23  1  0  0  0
 10 11  1  0  0  0
 10 12  1  0  0  0
M  END
> <minimizedAffinity>
-9.31895

> <CNNscore>
0.5736712217

> <CNNaffinity>
7.4079551697

> <CNN_VS>
4.2497305870

> <CNNaffinity_variance>
0.0370916985

$$$$
[H]c1nc2c(-c3c([H])c([H])c(OC([H])([H])C([H])([H])Oc4c([H])c([H])c([H])c(C(F)(F)F)c4[H])c([H])c3[H])c([H])nn2c(N([H])[H])c1-c1c([H])c([H])c([H])c(N([H])C(=O)c2c([H])c([H])c(C([H])([H])N(C([H])([H])[H])C([H])([H])[H])c([H])c2[H])c1C([H])([H])[H]


 53 58  0  0  0  0  0  0  0  0999 V2000
  -19.9775   10.0177  -16.2438 C   0  0  0  0  0  0  0  0  0  0  0  0
  -20.5221   11.1558  -16.6147 C   0  0  0  0  0  0  0  0  0  0  0  0
  -19.9957   11.9420  -17.6125 N   0  0  0  0  0  0  0  0  0  0  0  0
  -18.8698   11.5674  -18.2617 C   0  0  0  0  0  0  0  0  0  0  0  0
  -18.1238   12.1248  -19.2660 C   0  0  0  0  0  0  0  0  0  0  0  0
  -17.0685   11.2316  -19.4779 C   0  0  0  0  0  0  0  0  0  0  0  0
  -17.1699   10.1965  -18.6547 N   0  0  0  0  0  0  0  0  0  0  0  0
  -18.2749   10.4095  -17.9134 N   0  0  0  0  0  0  0  0  0  0  0  0
  -18.7872    9.6518  -16.9536 C   0  0  0  0  0  0  0  0  0  0  0  0
  -18.1317    8.4232  -16.6147 N   0  0  0  0  0  0  0  0  0  0  0  0
  -17.4353    8.4770  -15.8613 H   0  0  0  0  0  0  0  0  0  0  0  0
  -18.3503    7.5396  -17.1034 H   0  0  0  0  0  0  0  0  0  0  0  0
  -19.5876    8.0560  -13.1446 C   0  0  0  0  0  0  0  0  0  0  0  0
  -19.9869    6.7943  -13.6145 C   0  0  0  0  0  0  0  0  0  0  0  0
  -20.5042    6.6398  -14.8644 C   0  0  0  0  0  0  0  0  0  0  0  0
  -20.6427    7.7467  -15.7060 C   0  0  0  0  0  0  0  0  0  0  0  0
  -20.2518    8.9775  -15.2640 C   0  0  0  0  0  0  0  0  0  0  0  0
  -19.7392    9.1174  -13.9916 C   0  0  0  0  0  0  0  0  0  0  0  0
  -19.3580   10.4490  -13.5312 C   0  0  0  0  0  0  0  0  0  0  0  0
  -18.6875    8.1135  -10.5961 C   0  0  0  0  0  0  0  0  0  0  0  0
  -17.7906    7.3911  -10.0282 O   0  0  0  0  0  0  0  0  0  0  0  0
  -19.1303    8.0894  -11.8421 N   0  0  0  0  0  0  0  0  0  0  0  0
  -18.4897    6.9069  -12.0700 H   0  0  0  0  0  0  0  0  0  0  0  0
  -20.7454   10.8693   -8.1394 C   0  0  0  0  0  0  0  0  0  0  0  0
  -19.8318   11.3349   -9.0547 C   0  0  0  0  0  0  0  0  0  0  0  0
  -19.1089   10.4329   -9.7974 C   0  0  0  0  0  0  0  0  0  0  0  0
  -19.2887    9.0871   -9.6269 C   0  0  0  0  0  0  0  0  0  0  0  0
  -20.2025    8.6073   -8.6919 C   0  0  0  0  0  0  0  0  0  0  0  0
  -20.9341    9.5321   -7.9475 C   0  0  0  0  0  0  0  0  0  0  0  0
  -21.6485   11.7845   -7.4048 C   0  0  0  0  0  0  0  0  0  0  0  0
  -21.2029   14.1317   -6.9952 C   0  0  0  0  0  0  0  0  0  0  0  0
  -21.5557   13.1220   -7.9688 N   0  0  0  0  0  0  0  0  0  0  0  0
  -22.8393   13.5233   -8.5488 C   0  0  0  0  0  0  0  0  0  0  0  0
  -18.2936   13.3383  -20.0354 C   0  0  0  0  0  0  0  0  0  0  0  0
  -18.4811   14.5281  -19.3253 C   0  0  0  0  0  0  0  0  0  0  0  0
  -18.6356   15.7440  -19.9030 C   0  0  0  0  0  0  0  0  0  0  0  0
  -18.6126   15.8767  -21.2685 C   0  0  0  0  0  0  0  0  0  0  0  0
  -18.4271   14.7240  -22.0048 C   0  0  0  0  0  0  0  0  0  0  0  0
  -18.2717   13.4842  -21.3932 C   0  0  0  0  0  0  0  0  0  0  0  0
  -18.7786   17.1489  -21.8494 O   0  0  0  0  0  0  0  0  0  0  0  0
  -19.3411   18.1749  -21.0200 C   0  0  0  0  0  0  0  0  0  0  0  0
  -20.3565   19.0343  -21.7203 C   0  0  0  0  0  0  0  0  0  0  0  0
  -21.2407   18.2363  -22.5323 O   0  0  0  0  0  0  0  0  0  0  0  0
  -21.8308   18.7633  -23.6903 C   0  0  0  0  0  0  0  0  0  0  0  0
  -22.8289   18.0731  -24.3408 C   0  0  0  0  0  0  0  0  0  0  0  0
  -23.3837   18.6216  -25.4820 C   0  0  0  0  0  0  0  0  0  0  0  0
  -22.9177   19.8667  -25.9420 C   0  0  0  0  0  0  0  0  0  0  0  0
  -21.9138   20.5340  -25.2663 C   0  0  0  0  0  0  0  0  0  0  0  0
  -21.3924   19.9589  -24.1506 C   0  0  0  0  0  0  0  0  0  0  0  0
  -21.4606   21.8292  -25.7734 C   0  0  0  0  0  0  0  0  0  0  0  0
  -21.9489   22.8983  -25.0821 F   0  0  0  0  0  0  0  0  0  0  0  0
  -20.0883   21.8735  -25.6923 F   0  0  0  0  0  0  0  0  0  0  0  0
  -21.8505   22.0140  -27.1093 F   0  0  0  0  0  0  0  0  0  0  0  0
 31 32  1  0  0  0
 32 33  1  0  0  0
 32 30  1  0  0  0
 30 24  1  0  0  0
 24 25  2  0  0  0
 25 26  1  0  0  0
 26 27  2  0  0  0
 27 28  1  0  0  0
 28 29  2  0  0  0
 27 20  1  0  0  0
 20 21  2  0  0  0
 20 22  1  0  0  0
 22 13  1  0  0  0
 13 14  2  0  0  0
 14 15  1  0  0  0
 15 16  2  0  0  0
 16 17  1  0  0  0
 17 18  2  0  0  0
 18 19  1  0  0  0
 17  1  1  0  0  0
  1  2  1  0  0  0
  2  3  2  0  0  0
  3  4  1  0  0  0
  4  5  2  0  0  0
  5  6  1  0  0  0
  6  7  2  0  0  0
  7  8  1  0  0  0
  8  9  1  0  0  0
  9 10  1  0  0  0
  5 34  1  0  0  0
 34 35  2  0  0  0
 35 36  1  0  0  0
 36 37  2  0  0  0
 37 40  1  0  0  0
 40 41  1  0  0  0
 41 42  1  0  0  0
 42 43  1  0  0  0
 43 44  1  0  0  0
 44 45  2  0  0  0
 45 46  1  0  0  0
 46 47  2  0  0  0
 47 48  1  0  0  0
 48 49  2  0  0  0
 48 50  1  0  0  0
 50 51  1  0  0  0
 50 52  1  0  0  0
 50 53  1  0  0  0
 37 38  1  0  0  0
 38 39  2  0  0  0
 29 24  1  0  0  0
 18 13  1  0  0  0
  9  1  2  0  0  0
 39 34  1  0  0  0
  8  4  1  0  0  0
 49 44  1  0  0  0
 22 23  1  0  0  0
 10 11  1  0  0  0
 10 12  1  0  0  0
M  END
> <minimizedAffinity>
-9.25084

> <CNNscore>
0.4639028013

> <CNNaffinity>
6.9977493286

> <CNN_VS>
3.2462754250

> <CNNaffinity_variance>
0.0458212420

$$$$
[H]c1nc2c(-c3c([H])c([H])c(OC([H])([H])C([H])([H])Oc4c([H])c([H])c([H])c(C(F)(F)F)c4[H])c([H])c3[H])c([H])nn2c(N([H])[H])c1-c1c([H])c([H])c([H])c(N([H])C(=O)c2c([H])c([H])c(C([H])([H])N(C([H])([H])[H])C([H])([H])[H])c([H])c2[H])c1C([H])([H])[H]


 53 58  0  0  0  0  0  0  0  0999 V2000
  -19.9685   10.1038  -16.2343 C   0  0  0  0  0  0  0  0  0  0  0  0
  -20.5236   11.2516  -16.5566 C   0  0  0  0  0  0  0  0  0  0  0  0
  -20.0400   12.0554  -17.5619 N   0  0  0  0  0  0  0  0  0  0  0  0
  -18.9475   11.6890  -18.2703 C   0  0  0  0  0  0  0  0  0  0  0  0
  -18.2462   12.2632  -19.2970 C   0  0  0  0  0  0  0  0  0  0  0  0
  -17.2067   11.3697  -19.5757 C   0  0  0  0  0  0  0  0  0  0  0  0
  -17.2753   10.3186  -18.7696 N   0  0  0  0  0  0  0  0  0  0  0  0
  -18.3434   10.5216  -17.9733 N   0  0  0  0  0  0  0  0  0  0  0  0
  -18.8146    9.7470  -17.0061 C   0  0  0  0  0  0  0  0  0  0  0  0
  -18.1507    8.5087  -16.7228 N   0  0  0  0  0  0  0  0  0  0  0  0
  -17.4197    8.5442  -16.0017 H   0  0  0  0  0  0  0  0  0  0  0  0
  -18.3966    7.6362  -17.2183 H   0  0  0  0  0  0  0  0  0  0  0  0
  -19.4967    8.1255  -13.1571 C   0  0  0  0  0  0  0  0  0  0  0  0
  -19.8558    6.8558  -13.6379 C   0  0  0  0  0  0  0  0  0  0  0  0
  -20.3742    6.6964  -14.8867 C   0  0  0  0  0  0  0  0  0  0  0  0
  -20.5542    7.8064  -15.7164 C   0  0  0  0  0  0  0  0  0  0  0  0
  -20.2026    9.0451  -15.2638 C   0  0  0  0  0  0  0  0  0  0  0  0
  -19.6883    9.1896  -13.9926 C   0  0  0  0  0  0  0  0  0  0  0  0
  -19.3497   10.5287  -13.5206 C   0  0  0  0  0  0  0  0  0  0  0  0
  -18.5858    8.1879  -10.6125 C   0  0  0  0  0  0  0  0  0  0  0  0
  -17.6618    7.4908  -10.0566 O   0  0  0  0  0  0  0  0  0  0  0  0
  -19.0341    8.1613  -11.8566 N   0  0  0  0  0  0  0  0  0  0  0  0
  -18.3547    7.0037  -12.0997 H   0  0  0  0  0  0  0  0  0  0  0  0
  -20.7437   10.7984   -8.0841 C   0  0  0  0  0  0  0  0  0  0  0  0
  -19.9806   11.3230   -9.0999 C   0  0  0  0  0  0  0  0  0  0  0  0
  -19.2201   10.4777   -9.8711 C   0  0  0  0  0  0  0  0  0  0  0  0
  -19.2148    9.1305   -9.6305 C   0  0  0  0  0  0  0  0  0  0  0  0
  -19.9745    8.5929   -8.5945 C   0  0  0  0  0  0  0  0  0  0  0  0
  -20.7463    9.4599   -7.8217 C   0  0  0  0  0  0  0  0  0  0  0  0
  -21.6846   11.6348   -7.3043 C   0  0  0  0  0  0  0  0  0  0  0  0
  -21.1946   13.9406   -6.7395 C   0  0  0  0  0  0  0  0  0  0  0  0
  -21.6145   13.0123   -7.7662 N   0  0  0  0  0  0  0  0  0  0  0  0
  -22.9273   13.4631   -8.2333 C   0  0  0  0  0  0  0  0  0  0  0  0
  -18.4450   13.4928  -20.0332 C   0  0  0  0  0  0  0  0  0  0  0  0
  -18.8319   14.6220  -19.3050 C   0  0  0  0  0  0  0  0  0  0  0  0
  -19.0382   15.8456  -19.8492 C   0  0  0  0  0  0  0  0  0  0  0  0
  -18.8691   16.0491  -21.1955 C   0  0  0  0  0  0  0  0  0  0  0  0
  -18.4847   14.9579  -21.9484 C   0  0  0  0  0  0  0  0  0  0  0  0
  -18.2791   13.7088  -21.3716 C   0  0  0  0  0  0  0  0  0  0  0  0
  -19.0921   17.3278  -21.7421 O   0  0  0  0  0  0  0  0  0  0  0  0
  -18.9910   17.4533  -23.1672 C   0  0  0  0  0  0  0  0  0  0  0  0
  -17.8465   18.3154  -23.6221 C   0  0  0  0  0  0  0  0  0  0  0  0
  -17.1615   17.7205  -24.7423 O   0  0  0  0  0  0  0  0  0  0  0  0
  -16.5949   16.4412  -24.6462 C   0  0  0  0  0  0  0  0  0  0  0  0
  -15.4520   16.2382  -23.9057 C   0  0  0  0  0  0  0  0  0  0  0  0
  -14.9194   14.9643  -23.8379 C   0  0  0  0  0  0  0  0  0  0  0  0
  -15.5604   13.9148  -24.5212 C   0  0  0  0  0  0  0  0  0  0  0  0
  -16.7062   14.1518  -25.2565 C   0  0  0  0  0  0  0  0  0  0  0  0
  -17.1955   15.4192  -25.3006 C   0  0  0  0  0  0  0  0  0  0  0  0
  -17.3462   13.0329  -25.9482 C   0  0  0  0  0  0  0  0  0  0  0  0
  -17.1993   13.0604  -27.3036 F   0  0  0  0  0  0  0  0  0  0  0  0
  -16.7871   11.8616  -25.4933 F   0  0  0  0  0  0  0  0  0  0  0  0
  -18.7283   13.0107  -25.7034 F   0  0  0  0  0  0  0  0  0  0  0  0
 31 32  1  0  0  0
 32 33  1  0  0  0
 32 30  1  0  0  0
 30 24  1  0  0  0
 24 25  2  0  0  0
 25 26  1  0  0  0
 26 27  2  0  0  0
 27 28  1  0  0  0
 28 29  2  0  0  0
 27 20  1  0  0  0
 20 21  2  0  0  0
 20 22  1  0  0  0
 22 13  1  0  0  0
 13 14  2  0  0  0
 14 15  1  0  0  0
 15 16  2  0  0  0
 16 17  1  0  0  0
 17 18  2  0  0  0
 18 19  1  0  0  0
 17  1  1  0  0  0
  1  2  1  0  0  0
  2  3  2  0  0  0
  3  4  1  0  0  0
  4  5  2  0  0  0
  5  6  1  0  0  0
  6  7  2  0  0  0
  7  8  1  0  0  0
  8  9  1  0  0  0
  9 10  1  0  0  0
  5 34  1  0  0  0
 34 35  2  0  0  0
 35 36  1  0  0  0
 36 37  2  0  0  0
 37 40  1  0  0  0
 40 41  1  0  0  0
 41 42  1  0  0  0
 42 43  1  0  0  0
 43 44  1  0  0  0
 44 45  2  0  0  0
 45 46  1  0  0  0
 46 47  2  0  0  0
 47 48  1  0  0  0
 48 49  2  0  0  0
 48 50  1  0  0  0
 50 51  1  0  0  0
 50 52  1  0  0  0
 50 53  1  0  0  0
 37 38  1  0  0  0
 38 39  2  0  0  0
 29 24  1  0  0  0
 18 13  1  0  0  0
  9  1  2  0  0  0
 39 34  1  0  0  0
  8  4  1  0  0  0
 49 44  1  0  0  0
 22 23  1  0  0  0
 10 11  1  0  0  0
 10 12  1  0  0  0
M  END
> <minimizedAffinity>
-10.19869

> <CNNscore>
0.4195535779

> <CNNaffinity>
7.4426140785

> <CNN_VS>
3.1225752831

> <CNNaffinity_variance>
0.0860094205

$$$$
[H]c1nc2c(-c3c([H])c([H])c(OC([H])([H])C([H])([H])Oc4c([H])c([H])c([H])c(C(F)(F)F)c4[H])c([H])c3[H])c([H])nn2c(N([H])[H])c1-c1c([H])c([H])c([H])c(N([H])C(=O)c2c([H])c([H])c(C([H])([H])N(C([H])([H])[H])C([H])([H])[H])c([H])c2[H])c1C([H])([H])[H]


 53 58  0  0  0  0  0  0  0  0999 V2000
  -19.9682   10.1238  -16.2054 C   0  0  0  0  0  0  0  0  0  0  0  0
  -20.5313   11.2686  -16.5245 C   0  0  0  0  0  0  0  0  0  0  0  0
  -20.0797   12.0575  -17.5562 N   0  0  0  0  0  0  0  0  0  0  0  0
  -19.0123   11.6787  -18.2956 C   0  0  0  0  0  0  0  0  0  0  0  0
  -18.3443   12.2371  -19.3528 C   0  0  0  0  0  0  0  0  0  0  0  0
  -17.3166   11.3372  -19.6537 C   0  0  0  0  0  0  0  0  0  0  0  0
  -17.3606   10.2973  -18.8316 N   0  0  0  0  0  0  0  0  0  0  0  0
  -18.4011   10.5138  -18.0031 N   0  0  0  0  0  0  0  0  0  0  0  0
  -18.8415    9.7535  -17.0102 C   0  0  0  0  0  0  0  0  0  0  0  0
  -18.1712    8.5175  -16.7324 N   0  0  0  0  0  0  0  0  0  0  0  0
  -17.4165    8.5608  -16.0366 H   0  0  0  0  0  0  0  0  0  0  0  0
  -18.4354    7.6391  -17.2076 H   0  0  0  0  0  0  0  0  0  0  0  0
  -19.4085    8.1951  -13.1114 C   0  0  0  0  0  0  0  0  0  0  0  0
  -19.7729    6.9165  -13.5636 C   0  0  0  0  0  0  0  0  0  0  0  0
  -20.3216    6.7355  -14.7964 C   0  0  0  0  0  0  0  0  0  0  0  0
  -20.5284    7.8317  -15.6380 C   0  0  0  0  0  0  0  0  0  0  0  0
  -20.1722    9.0790  -15.2133 C   0  0  0  0  0  0  0  0  0  0  0  0
  -19.6268    9.2454  -13.9578 C   0  0  0  0  0  0  0  0  0  0  0  0
  -19.2835   10.5932  -13.5149 C   0  0  0  0  0  0  0  0  0  0  0  0
  -18.4336    8.3014  -10.5921 C   0  0  0  0  0  0  0  0  0  0  0  0
  -17.4463    7.6684  -10.0691 O   0  0  0  0  0  0  0  0  0  0  0  0
  -18.9134    8.2531  -11.8237 N   0  0  0  0  0  0  0  0  0  0  0  0
  -18.1591    7.1502  -12.0977 H   0  0  0  0  0  0  0  0  0  0  0  0
  -20.6983   10.7440   -7.9905 C   0  0  0  0  0  0  0  0  0  0  0  0
  -19.9548   11.3299   -8.9871 C   0  0  0  0  0  0  0  0  0  0  0  0
  -19.1599   10.5399   -9.7819 C   0  0  0  0  0  0  0  0  0  0  0  0
  -19.1014    9.1872   -9.5832 C   0  0  0  0  0  0  0  0  0  0  0  0
  -19.8409    8.5878   -8.5668 C   0  0  0  0  0  0  0  0  0  0  0  0
  -20.6480    9.3989   -7.7698 C   0  0  0  0  0  0  0  0  0  0  0  0
  -21.6732   11.5176   -7.1879 C   0  0  0  0  0  0  0  0  0  0  0  0
  -21.2794   13.8127   -6.5148 C   0  0  0  0  0  0  0  0  0  0  0  0
  -21.6399   12.9150   -7.5901 N   0  0  0  0  0  0  0  0  0  0  0  0
  -22.9555   13.3402   -8.0733 C   0  0  0  0  0  0  0  0  0  0  0  0
  -18.5648   13.4572  -20.0986 C   0  0  0  0  0  0  0  0  0  0  0  0
  -19.8128   14.0738  -19.9668 C   0  0  0  0  0  0  0  0  0  0  0  0
  -20.1617   15.2276  -20.5857 C   0  0  0  0  0  0  0  0  0  0  0  0
  -19.2729   15.8779  -21.4041 C   0  0  0  0  0  0  0  0  0  0  0  0
  -18.0284   15.3010  -21.5577 C   0  0  0  0  0  0  0  0  0  0  0  0
  -17.6892   14.1148  -20.9149 C   0  0  0  0  0  0  0  0  0  0  0  0
  -19.6563   17.0741  -22.0409 O   0  0  0  0  0  0  0  0  0  0  0  0
  -18.6516   17.7564  -22.8038 C   0  0  0  0  0  0  0  0  0  0  0  0
  -18.7695   19.2546  -22.7622 C   0  0  0  0  0  0  0  0  0  0  0  0
  -20.1482   19.6645  -22.6665 O   0  0  0  0  0  0  0  0  0  0  0  0
  -20.8621   20.0697  -23.8036 C   0  0  0  0  0  0  0  0  0  0  0  0
  -20.4981   21.2081  -24.4870 C   0  0  0  0  0  0  0  0  0  0  0  0
  -21.2283   21.5791  -25.6007 C   0  0  0  0  0  0  0  0  0  0  0  0
  -22.3156   20.7834  -26.0051 C   0  0  0  0  0  0  0  0  0  0  0  0
  -22.6558   19.6465  -25.2969 C   0  0  0  0  0  0  0  0  0  0  0  0
  -21.9146   19.3187  -24.2057 C   0  0  0  0  0  0  0  0  0  0  0  0
  -23.7898   18.8427  -25.7528 C   0  0  0  0  0  0  0  0  0  0  0  0
  -23.7903   17.5638  -25.2797 F   0  0  0  0  0  0  0  0  0  0  0  0
  -24.9506   19.4442  -25.3256 F   0  0  0  0  0  0  0  0  0  0  0  0
  -23.8092   18.7434  -27.1530 F   0  0  0  0  0  0  0  0  0  0  0  0
 31 32  1  0  0  0
 32 33  1  0  0  0
 32 30  1  0  0  0
 30 24  1  0  0  0
 24 25  2  0  0  0
 25 26  1  0  0  0
 26 27  2  0  0  0
 27 28  1  0  0  0
 28 29  2  0  0  0
 27 20  1  0  0  0
 20 21  2  0  0  0
 20 22  1  0  0  0
 22 13  1  0  0  0
 13 14  2  0  0  0
 14 15  1  0  0  0
 15 16  2  0  0  0
 16 17  1  0  0  0
 17 18  2  0  0  0
 18 19  1  0  0  0
 17  1  1  0  0  0
  1  2  1  0  0  0
  2  3  2  0  0  0
  3  4  1  0  0  0
  4  5  2  0  0  0
  5  6  1  0  0  0
  6  7  2  0  0  0
  7  8  1  0  0  0
  8  9  1  0  0  0
  9 10  1  0  0  0
  5 34  1  0  0  0
 34 35  2  0  0  0
 35 36  1  0  0  0
 36 37  2  0  0  0
 37 40  1  0  0  0
 40 41  1  0  0  0
 41 42  1  0  0  0
 42 43  1  0  0  0
 43 44  1  0  0  0
 44 45  2  0  0  0
 45 46  1  0  0  0
 46 47  2  0  0  0
 47 48  1  0  0  0
 48 49  2  0  0  0
 48 50  1  0  0  0
 50 51  1  0  0  0
 50 52  1  0  0  0
 50 53  1  0  0  0
 37 38  1  0  0  0
 38 39  2  0  0  0
 29 24  1  0  0  0
 18 13  1  0  0  0
  9  1  2  0  0  0
 39 34  1  0  0  0
  8  4  1  0  0  0
 49 44  1  0  0  0
 22 23  1  0  0  0
 10 11  1  0  0  0
 10 12  1  0  0  0
M  END
> <minimizedAffinity>
-9.82365

> <CNNscore>
0.3889162838

> <CNNaffinity>
6.9122824669

> <CNN_VS>
2.6882991791

> <CNNaffinity_variance>
0.0586152263

$$$$
[H]c1nc2c(-c3c([H])c([H])c(OC([H])([H])C([H])([H])Oc4c([H])c([H])c([H])c(C(F)(F)F)c4[H])c([H])c3[H])c([H])nn2c(N([H])[H])c1-c1c([H])c([H])c([H])c(N([H])C(=O)c2c([H])c([H])c(C([H])([H])N(C([H])([H])[H])C([H])([H])[H])c([H])c2[H])c1C([H])([H])[H]


 53 58  0  0  0  0  0  0  0  0999 V2000
  -19.8825   10.4355  -16.5320 C   0  0  0  0  0  0  0  0  0  0  0  0
  -20.4176   11.5772  -16.9056 C   0  0  0  0  0  0  0  0  0  0  0  0
  -19.9156   12.3304  -17.9407 N   0  0  0  0  0  0  0  0  0  0  0  0
  -18.8251   11.9175  -18.6262 C   0  0  0  0  0  0  0  0  0  0  0  0
  -18.1089   12.4371  -19.6717 C   0  0  0  0  0  0  0  0  0  0  0  0
  -17.0822   11.5166  -19.9060 C   0  0  0  0  0  0  0  0  0  0  0  0
  -17.1720   10.5016  -19.0569 N   0  0  0  0  0  0  0  0  0  0  0  0
  -18.2412   10.7544  -18.2767 N   0  0  0  0  0  0  0  0  0  0  0  0
  -18.7300   10.0286  -17.2808 C   0  0  0  0  0  0  0  0  0  0  0  0
  -18.0874    8.7932  -16.9415 N   0  0  0  0  0  0  0  0  0  0  0  0
  -17.3600    8.8476  -16.2180 H   0  0  0  0  0  0  0  0  0  0  0  0
  -18.3443    7.9046  -17.4015 H   0  0  0  0  0  0  0  0  0  0  0  0
  -19.4418    8.5646  -13.3838 C   0  0  0  0  0  0  0  0  0  0  0  0
  -19.8415    7.2883  -13.8122 C   0  0  0  0  0  0  0  0  0  0  0  0
  -20.3749    7.0960  -15.0500 C   0  0  0  0  0  0  0  0  0  0  0  0
  -20.5298    8.1779  -15.9209 C   0  0  0  0  0  0  0  0  0  0  0  0
  -20.1388    9.4224  -15.5194 C   0  0  0  0  0  0  0  0  0  0  0  0
  -19.6098    9.6008  -14.2585 C   0  0  0  0  0  0  0  0  0  0  0  0
  -19.2287   10.9466  -13.8414 C   0  0  0  0  0  0  0  0  0  0  0  0
  -18.5127    8.7159  -10.8495 C   0  0  0  0  0  0  0  0  0  0  0  0
  -18.3613    9.7424  -10.0932 O   0  0  0  0  0  0  0  0  0  0  0  0
  -18.9673    8.6370  -12.0890 N   0  0  0  0  0  0  0  0  0  0  0  0
  -18.8951    9.9924  -12.2249 H   0  0  0  0  0  0  0  0  0  0  0  0
  -17.3126    5.4099   -8.5055 C   0  0  0  0  0  0  0  0  0  0  0  0
  -16.3580    6.2651   -9.0020 C   0  0  0  0  0  0  0  0  0  0  0  0
  -16.7445    7.2938   -9.8267 C   0  0  0  0  0  0  0  0  0  0  0  0
  -18.0615    7.4647  -10.1571 C   0  0  0  0  0  0  0  0  0  0  0  0
  -19.0329    6.5943   -9.6692 C   0  0  0  0  0  0  0  0  0  0  0  0
  -18.6295    5.5571   -8.8290 C   0  0  0  0  0  0  0  0  0  0  0  0
  -16.9813    4.3656   -7.5091 C   0  0  0  0  0  0  0  0  0  0  0  0
  -18.4064    2.7102   -6.4583 C   0  0  0  0  0  0  0  0  0  0  0  0
  -17.8532    3.2164   -7.6951 N   0  0  0  0  0  0  0  0  0  0  0  0
  -17.1183    2.1109   -8.3139 C   0  0  0  0  0  0  0  0  0  0  0  0
  -18.2841   13.6375  -20.4601 C   0  0  0  0  0  0  0  0  0  0  0  0
  -17.9605   13.5667  -21.8185 C   0  0  0  0  0  0  0  0  0  0  0  0
  -18.0880   14.5989  -22.6870 C   0  0  0  0  0  0  0  0  0  0  0  0
  -18.5624   15.8144  -22.2626 C   0  0  0  0  0  0  0  0  0  0  0  0
  -18.8953   15.9232  -20.9275 C   0  0  0  0  0  0  0  0  0  0  0  0
  -18.7559   14.8521  -20.0508 C   0  0  0  0  0  0  0  0  0  0  0  0
  -18.6841   16.8757  -23.1805 O   0  0  0  0  0  0  0  0  0  0  0  0
  -18.4535   18.1996  -22.6792 C   0  0  0  0  0  0  0  0  0  0  0  0
  -19.5650   19.1659  -22.9802 C   0  0  0  0  0  0  0  0  0  0  0  0
  -19.2095   20.0442  -24.0666 O   0  0  0  0  0  0  0  0  0  0  0  0
  -19.9458   21.2098  -24.3239 C   0  0  0  0  0  0  0  0  0  0  0  0
  -21.3204   21.1983  -24.2454 C   0  0  0  0  0  0  0  0  0  0  0  0
  -22.0128   22.3651  -24.5105 C   0  0  0  0  0  0  0  0  0  0  0  0
  -21.2958   23.5276  -24.8474 C   0  0  0  0  0  0  0  0  0  0  0  0
  -19.9159   23.5059  -24.9183 C   0  0  0  0  0  0  0  0  0  0  0  0
  -19.2732   22.3377  -24.6539 C   0  0  0  0  0  0  0  0  0  0  0  0
  -19.2066   24.7370  -25.2665 C   0  0  0  0  0  0  0  0  0  0  0  0
  -17.8620   24.6850  -25.0455 F   0  0  0  0  0  0  0  0  0  0  0  0
  -19.3983   24.9871  -26.6052 F   0  0  0  0  0  0  0  0  0  0  0  0
  -19.6855   25.8252  -24.5200 F   0  0  0  0  0  0  0  0  0  0  0  0
 31 32  1  0  0  0
 32 33  1  0  0  0
 32 30  1  0  0  0
 30 24  1  0  0  0
 24 25  2  0  0  0
 25 26  1  0  0  0
 26 27  2  0  0  0
 27 28  1  0  0  0
 28 29  2  0  0  0
 27 20  1  0  0  0
 20 21  2  0  0  0
 20 22  1  0  0  0
 22 13  1  0  0  0
 13 14  2  0  0  0
 14 15  1  0  0  0
 15 16  2  0  0  0
 16 17  1  0  0  0
 17 18  2  0  0  0
 18 19  1  0  0  0
 17  1  1  0  0  0
  1  2  1  0  0  0
  2  3  2  0  0  0
  3  4  1  0  0  0
  4  5  2  0  0  0
  5  6  1  0  0  0
  6  7  2  0  0  0
  7  8  1  0  0  0
  8  9  1  0  0  0
  9 10  1  0  0  0
  5 34  1  0  0  0
 34 35  2  0  0  0
 35 36  1  0  0  0
 36 37  2  0  0  0
 37 40  1  0  0  0
 40 41  1  0  0  0
 41 42  1  0  0  0
 42 43  1  0  0  0
 43 44  1  0  0  0
 44 45  2  0  0  0
 45 46  1  0  0  0
 46 47  2  0  0  0
 47 48  1  0  0  0
 48 49  2  0  0  0
 48 50  1  0  0  0
 50 51  1  0  0  0
 50 52  1  0  0  0
 50 53  1  0  0  0
 37 38  1  0  0  0
 38 39  2  0  0  0
 29 24  1  0  0  0
 18 13  1  0  0  0
  9  1  2  0  0  0
 39 34  1  0  0  0
  8  4  1  0  0  0
 49 44  1  0  0  0
 22 23  1  0  0  0
 10 11  1  0  0  0
 10 12  1  0  0  0
M  END
> <minimizedAffinity>
-8.81827

> <CNNscore>
0.3710757494

> <CNNaffinity>
6.5776128769

> <CNN_VS>
2.4407925606

> <CNNaffinity_variance>
0.0413597152

$$$$
[H]c1nc2c(-c3c([H])c([H])c(OC([H])([H])C([H])([H])Oc4c([H])c([H])c([H])c(C(F)(F)F)c4[H])c([H])c3[H])c([H])nn2c(N([H])[H])c1-c1c([H])c([H])c([H])c(N([H])C(=O)c2c([H])c([H])c(C([H])([H])N(C([H])([H])[H])C([H])([H])[H])c([H])c2[H])c1C([H])([H])[H]


 53 58  0  0  0  0  0  0  0  0999 V2000
  -20.0107   10.1275  -16.2003 C   0  0  0  0  0  0  0  0  0  0  0  0
  -20.5740   11.2687  -16.5313 C   0  0  0  0  0  0  0  0  0  0  0  0
  -20.1156   12.0525  -17.5639 N   0  0  0  0  0  0  0  0  0  0  0  0
  -19.0407   11.6722  -18.2916 C   0  0  0  0  0  0  0  0  0  0  0  0
  -18.3651   12.2260  -19.3464 C   0  0  0  0  0  0  0  0  0  0  0  0
  -17.3324   11.3272  -19.6328 C   0  0  0  0  0  0  0  0  0  0  0  0
  -17.3807   10.2922  -18.8047 N   0  0  0  0  0  0  0  0  0  0  0  0
  -18.4290   10.5108  -17.9867 N   0  0  0  0  0  0  0  0  0  0  0  0
  -18.8759    9.7554  -16.9930 C   0  0  0  0  0  0  0  0  0  0  0  0
  -18.2047    8.5230  -16.7018 N   0  0  0  0  0  0  0  0  0  0  0  0
  -17.4562    8.5726  -15.9998 H   0  0  0  0  0  0  0  0  0  0  0  0
  -18.4623    7.6409  -17.1739 H   0  0  0  0  0  0  0  0  0  0  0  0
  -19.4811    8.2268  -13.0838 C   0  0  0  0  0  0  0  0  0  0  0  0
  -19.8270    6.9416  -13.5319 C   0  0  0  0  0  0  0  0  0  0  0  0
  -20.3551    6.7465  -14.7715 C   0  0  0  0  0  0  0  0  0  0  0  0
  -20.5588    7.8346  -15.6244 C   0  0  0  0  0  0  0  0  0  0  0  0
  -20.2204    9.0881  -15.2037 C   0  0  0  0  0  0  0  0  0  0  0  0
  -19.6958    9.2688  -13.9413 C   0  0  0  0  0  0  0  0  0  0  0  0
  -19.3716   10.6229  -13.5033 C   0  0  0  0  0  0  0  0  0  0  0  0
  -18.5461    8.3604  -10.5507 C   0  0  0  0  0  0  0  0  0  0  0  0
  -17.5718    7.7280  -10.0034 O   0  0  0  0  0  0  0  0  0  0  0  0
  -19.0064    8.2988  -11.7891 N   0  0  0  0  0  0  0  0  0  0  0  0
  -18.2554    7.1872  -12.0362 H   0  0  0  0  0  0  0  0  0  0  0  0
  -20.8384   10.8433   -8.0120 C   0  0  0  0  0  0  0  0  0  0  0  0
  -20.1011   11.4118   -9.0231 C   0  0  0  0  0  0  0  0  0  0  0  0
  -19.2973   10.6107   -9.7976 C   0  0  0  0  0  0  0  0  0  0  0  0
  -19.2239    9.2641   -9.5646 C   0  0  0  0  0  0  0  0  0  0  0  0
  -19.9572    8.6827   -8.5333 C   0  0  0  0  0  0  0  0  0  0  0  0
  -20.7734    9.5048   -7.7572 C   0  0  0  0  0  0  0  0  0  0  0  0
  -21.8220   11.6262   -7.2294 C   0  0  0  0  0  0  0  0  0  0  0  0
  -21.2935   13.8596   -6.4492 C   0  0  0  0  0  0  0  0  0  0  0  0
  -21.7046   13.0366   -7.5653 N   0  0  0  0  0  0  0  0  0  0  0  0
  -22.9915   13.5617   -8.0271 C   0  0  0  0  0  0  0  0  0  0  0  0
  -18.5825   13.4409  -20.1015 C   0  0  0  0  0  0  0  0  0  0  0  0
  -17.9836   13.5295  -21.3620 C   0  0  0  0  0  0  0  0  0  0  0  0
  -18.1098   14.5927  -22.1924 C   0  0  0  0  0  0  0  0  0  0  0  0
  -18.8634   15.6794  -21.8265 C   0  0  0  0  0  0  0  0  0  0  0  0
  -19.4730   15.6284  -20.5892 C   0  0  0  0  0  0  0  0  0  0  0  0
  -19.3303   14.5283  -19.7498 C   0  0  0  0  0  0  0  0  0  0  0  0
  -18.9790   16.7761  -22.7027 O   0  0  0  0  0  0  0  0  0  0  0  0
  -19.7802   17.8805  -22.2610 C   0  0  0  0  0  0  0  0  0  0  0  0
  -20.5977   18.5135  -23.3524 C   0  0  0  0  0  0  0  0  0  0  0  0
  -19.8390   19.5199  -24.0521 O   0  0  0  0  0  0  0  0  0  0  0  0
  -20.2462   20.8619  -24.0520 C   0  0  0  0  0  0  0  0  0  0  0  0
  -21.2629   21.2826  -24.8797 C   0  0  0  0  0  0  0  0  0  0  0  0
  -21.6340   22.6141  -24.8558 C   0  0  0  0  0  0  0  0  0  0  0  0
  -20.9677   23.4970  -23.9865 C   0  0  0  0  0  0  0  0  0  0  0  0
  -19.9506   23.0432  -23.1685 C   0  0  0  0  0  0  0  0  0  0  0  0
  -19.6137   21.7276  -23.2250 C   0  0  0  0  0  0  0  0  0  0  0  0
  -19.2861   23.9916  -22.2746 C   0  0  0  0  0  0  0  0  0  0  0  0
  -18.4311   23.4111  -21.3850 F   0  0  0  0  0  0  0  0  0  0  0  0
  -18.5563   24.8726  -23.0380 F   0  0  0  0  0  0  0  0  0  0  0  0
  -20.2215   24.7073  -21.5107 F   0  0  0  0  0  0  0  0  0  0  0  0
 31 32  1  0  0  0
 32 33  1  0  0  0
 32 30  1  0  0  0
 30 24  1  0  0  0
 24 25  2  0  0  0
 25 26  1  0  0  0
 26 27  2  0  0  0
 27 28  1  0  0  0
 28 29  2  0  0  0
 27 20  1  0  0  0
 20 21  2  0  0  0
 20 22  1  0  0  0
 22 13  1  0  0  0
 13 14  2  0  0  0
 14 15  1  0  0  0
 15 16  2  0  0  0
 16 17  1  0  0  0
 17 18  2  0  0  0
 18 19  1  0  0  0
 17  1  1  0  0  0
  1  2  1  0  0  0
  2  3  2  0  0  0
  3  4  1  0  0  0
  4  5  2  0  0  0
  5  6  1  0  0  0
  6  7  2  0  0  0
  7  8  1  0  0  0
  8  9  1  0  0  0
  9 10  1  0  0  0
  5 34  1  0  0  0
 34 35  2  0  0  0
 35 36  1  0  0  0
 36 37  2  0  0  0
 37 40  1  0  0  0
 40 41  1  0  0  0
 41 42  1  0  0  0
 42 43  1  0  0  0
 43 44  1  0  0  0
 44 45  2  0  0  0
 45 46  1  0  0  0
 46 47  2  0  0  0
 47 48  1  0  0  0
 48 49  2  0  0  0
 48 50  1  0  0  0
 50 51  1  0  0  0
 50 52  1  0  0  0
 50 53  1  0  0  0
 37 38  1  0  0  0
 38 39  2  0  0  0
 29 24  1  0  0  0
 18 13  1  0  0  0
  9  1  2  0  0  0
 39 34  1  0  0  0
  8  4  1  0  0  0
 49 44  1  0  0  0
 22 23  1  0  0  0
 10 11  1  0  0  0
 10 12  1  0  0  0
M  END
> <minimizedAffinity>
-9.04116

> <CNNscore>
0.3621849716

> <CNNaffinity>
6.8385725021

> <CNN_VS>
2.4768280983

> <CNNaffinity_variance>
0.0719930008

$$$$
[H]c1nc2c(-c3c([H])c([H])c(OC([H])([H])C([H])([H])Oc4c([H])c([H])c([H])c(C(F)(F)F)c4[H])c([H])c3[H])c([H])nn2c(N([H])[H])c1-c1c([H])c([H])c([H])c(N([H])C(=O)c2c([H])c([H])c(C([H])([H])N(C([H])([H])[H])C([H])([H])[H])c([H])c2[H])c1C([H])([H])[H]


 53 58  0  0  0  0  0  0  0  0999 V2000
  -20.1379   10.0300  -15.9976 C   0  0  0  0  0  0  0  0  0  0  0  0
  -20.7202   11.1886  -16.2167 C   0  0  0  0  0  0  0  0  0  0  0  0
  -20.2914   12.0651  -17.1856 N   0  0  0  0  0  0  0  0  0  0  0  0
  -19.2277   11.7631  -17.9645 C   0  0  0  0  0  0  0  0  0  0  0  0
  -18.5797   12.4150  -18.9798 C   0  0  0  0  0  0  0  0  0  0  0  0
  -17.5435   11.5575  -19.3637 C   0  0  0  0  0  0  0  0  0  0  0  0
  -17.5638   10.4538  -18.6284 N   0  0  0  0  0  0  0  0  0  0  0  0
  -18.5974   10.5872  -17.7741 N   0  0  0  0  0  0  0  0  0  0  0  0
  -19.0157    9.7427  -16.8417 C   0  0  0  0  0  0  0  0  0  0  0  0
  -18.3255    8.4980  -16.6724 N   0  0  0  0  0  0  0  0  0  0  0  0
  -17.5633    8.4956  -15.9834 H   0  0  0  0  0  0  0  0  0  0  0  0
  -18.5833    7.6573  -17.2146 H   0  0  0  0  0  0  0  0  0  0  0  0
  -19.4494    7.8067  -13.1361 C   0  0  0  0  0  0  0  0  0  0  0  0
  -19.8925    6.5879  -13.6749 C   0  0  0  0  0  0  0  0  0  0  0  0
  -20.5286    6.5395  -14.8776 C   0  0  0  0  0  0  0  0  0  0  0  0
  -20.7480    7.7149  -15.6009 C   0  0  0  0  0  0  0  0  0  0  0  0
  -20.3160    8.9053  -15.0917 C   0  0  0  0  0  0  0  0  0  0  0  0
  -19.6824    8.9372  -13.8674 C   0  0  0  0  0  0  0  0  0  0  0  0
  -19.2583   10.2264  -13.3302 C   0  0  0  0  0  0  0  0  0  0  0  0
  -18.3027    7.6552  -10.6926 C   0  0  0  0  0  0  0  0  0  0  0  0
  -17.0650    7.7443  -10.3623 O   0  0  0  0  0  0  0  0  0  0  0  0
  -18.8680    7.7294  -11.8860 N   0  0  0  0  0  0  0  0  0  0  0  0
  -17.6497    7.6402  -12.4928 H   0  0  0  0  0  0  0  0  0  0  0  0
  -20.7428    6.5169   -7.4346 C   0  0  0  0  0  0  0  0  0  0  0  0
  -21.3281    7.0340   -8.5657 C   0  0  0  0  0  0  0  0  0  0  0  0
  -20.5278    7.4743   -9.5921 C   0  0  0  0  0  0  0  0  0  0  0  0
  -19.1647    7.4065   -9.4912 C   0  0  0  0  0  0  0  0  0  0  0  0
  -18.5640    6.8967   -8.3429 C   0  0  0  0  0  0  0  0  0  0  0  0
  -19.3862    6.4481   -7.3099 C   0  0  0  0  0  0  0  0  0  0  0  0
  -21.5461    5.9048   -6.3515 C   0  0  0  0  0  0  0  0  0  0  0  0
  -23.7486    6.7665   -5.8203 C   0  0  0  0  0  0  0  0  0  0  0  0
  -22.9562    5.9422   -6.7061 N   0  0  0  0  0  0  0  0  0  0  0  0
  -23.5317    4.5962   -6.6596 C   0  0  0  0  0  0  0  0  0  0  0  0
  -18.8255   13.6883  -19.6216 C   0  0  0  0  0  0  0  0  0  0  0  0
  -20.1429   13.9781  -19.9901 C   0  0  0  0  0  0  0  0  0  0  0  0
  -20.5320   15.1335  -20.5814 C   0  0  0  0  0  0  0  0  0  0  0  0
  -19.6183   16.1190  -20.8580 C   0  0  0  0  0  0  0  0  0  0  0  0
  -18.3067   15.8709  -20.5066 C   0  0  0  0  0  0  0  0  0  0  0  0
  -17.9263   14.6775  -19.9014 C   0  0  0  0  0  0  0  0  0  0  0  0
  -20.0426   17.3111  -21.4763 O   0  0  0  0  0  0  0  0  0  0  0  0
  -19.0347   18.2907  -21.7619 C   0  0  0  0  0  0  0  0  0  0  0  0
  -18.9649   18.6868  -23.2104 C   0  0  0  0  0  0  0  0  0  0  0  0
  -18.9125   17.5264  -24.0640 O   0  0  0  0  0  0  0  0  0  0  0  0
  -17.7709   16.7129  -24.1081 C   0  0  0  0  0  0  0  0  0  0  0  0
  -16.5324   17.2614  -24.3547 C   0  0  0  0  0  0  0  0  0  0  0  0
  -15.4304   16.4276  -24.3956 C   0  0  0  0  0  0  0  0  0  0  0  0
  -15.6047   15.0484  -24.1805 C   0  0  0  0  0  0  0  0  0  0  0  0
  -16.8617   14.5289  -23.9359 C   0  0  0  0  0  0  0  0  0  0  0  0
  -17.9194   15.3820  -23.9076 C   0  0  0  0  0  0  0  0  0  0  0  0
  -17.0005   13.0900  -23.7118 C   0  0  0  0  0  0  0  0  0  0  0  0
  -17.7251   12.7678  -22.6025 F   0  0  0  0  0  0  0  0  0  0  0  0
  -17.6375   12.5386  -24.7988 F   0  0  0  0  0  0  0  0  0  0  0  0
  -15.7464   12.4795  -23.5526 F   0  0  0  0  0  0  0  0  0  0  0  0
 31 32  1  0  0  0
 32 33  1  0  0  0
 32 30  1  0  0  0
 30 24  1  0  0  0
 24 25  2  0  0  0
 25 26  1  0  0  0
 26 27  2  0  0  0
 27 28  1  0  0  0
 28 29  2  0  0  0
 27 20  1  0  0  0
 20 21  2  0  0  0
 20 22  1  0  0  0
 22 13  1  0  0  0
 13 14  2  0  0  0
 14 15  1  0  0  0
 15 16  2  0  0  0
 16 17  1  0  0  0
 17 18  2  0  0  0
 18 19  1  0  0  0
 17  1  1  0  0  0
  1  2  1  0  0  0
  2  3  2  0  0  0
  3  4  1  0  0  0
  4  5  2  0  0  0
  5  6  1  0  0  0
  6  7  2  0  0  0
  7  8  1  0  0  0
  8  9  1  0  0  0
  9 10  1  0  0  0
  5 34  1  0  0  0
 34 35  2  0  0  0
 35 36  1  0  0  0
 36 37  2  0  0  0
 37 40  1  0  0  0
 40 41  1  0  0  0
 41 42  1  0  0  0
 42 43  1  0  0  0
 43 44  1  0  0  0
 44 45  2  0  0  0
 45 46  1  0  0  0
 46 47  2  0  0  0
 47 48  1  0  0  0
 48 49  2  0  0  0
 48 50  1  0  0  0
 50 51  1  0  0  0
 50 52  1  0  0  0
 50 53  1  0  0  0
 37 38  1  0  0  0
 38 39  2  0  0  0
 29 24  1  0  0  0
 18 13  1  0  0  0
  9  1  2  0  0  0
 39 34  1  0  0  0
  8  4  1  0  0  0
 49 44  1  0  0  0
 22 23  1  0  0  0
 10 11  1  0  0  0
 10 12  1  0  0  0
M  END
> <minimizedAffinity>
-9.03795

> <CNNscore>
0.2693189681

> <CNNaffinity>
7.1904892921

> <CNN_VS>
1.9365351200

> <CNNaffinity_variance>
0.1129755154

$$$$
[H]C([H])=C([H])C(=O)N([H])c1c([H])c([H])c([H])c(-n2c([H])nc3c([H])nc(N([H])c4c([H])c([H])c(OC([H])([H])C([H])([H])N(C([H])([H])[H])C([H])([H])[H])c([H])c4[H])nc32)c1[H]


 35 38  0  0  0  0  0  0  0  0999 V2000
  -17.3324   10.1825  -19.0215 C   0  0  0  0  0  0  0  0  0  0  0  0
  -16.4314    9.8969  -19.9588 N   0  0  0  0  0  0  0  0  0  0  0  0
  -16.0956   10.6315  -21.0156 C   0  0  0  0  0  0  0  0  0  0  0  0
  -16.7704   11.8431  -21.1529 C   0  0  0  0  0  0  0  0  0  0  0  0
  -16.7364   12.8354  -22.0318 N   0  0  0  0  0  0  0  0  0  0  0  0
  -17.6234   13.7735  -21.6616 C   0  0  0  0  0  0  0  0  0  0  0  0
  -18.2522   13.4096  -20.5340 N   0  0  0  0  0  0  0  0  0  0  0  0
  -17.7171   12.1901  -20.2075 C   0  0  0  0  0  0  0  0  0  0  0  0
  -17.9837   11.3806  -19.1783 N   0  0  0  0  0  0  0  0  0  0  0  0
  -19.2594   14.0909  -19.7929 C   0  0  0  0  0  0  0  0  0  0  0  0
  -20.5799   14.0329  -20.1383 C   0  0  0  0  0  0  0  0  0  0  0  0
  -21.5209   14.7105  -19.3909 C   0  0  0  0  0  0  0  0  0  0  0  0
  -21.1780   15.4569  -18.2902 C   0  0  0  0  0  0  0  0  0  0  0  0
  -19.8293   15.5342  -17.9119 C   0  0  0  0  0  0  0  0  0  0  0  0
  -18.9275   14.8614  -18.6611 C   0  0  0  0  0  0  0  0  0  0  0  0
  -19.4562   16.3097  -16.7912 N   0  0  0  0  0  0  0  0  0  0  0  0
  -19.4312   17.6955  -16.6432 C   0  0  0  0  0  0  0  0  0  0  0  0
  -19.7640   18.5127  -17.5742 O   0  0  0  0  0  0  0  0  0  0  0  0
  -19.1480   15.7505  -15.9228 H   0  0  0  0  0  0  0  0  0  0  0  0
  -19.0221   18.3286  -15.4090 C   0  0  0  0  0  0  0  0  0  0  0  0
  -19.7278   18.2774  -14.3274 C   0  0  0  0  0  0  0  0  0  0  0  0
  -17.6573    9.3648  -17.9080 N   0  0  0  0  0  0  0  0  0  0  0  0
  -16.9898    8.5308  -17.7185 H   0  0  0  0  0  0  0  0  0  0  0  0
  -20.8894    9.9244  -15.2767 C   0  0  0  0  0  0  0  0  0  0  0  0
  -20.0177    8.8310  -15.1448 C   0  0  0  0  0  0  0  0  0  0  0  0
  -18.9569    8.6107  -15.9912 C   0  0  0  0  0  0  0  0  0  0  0  0
  -18.7278    9.4903  -17.0135 C   0  0  0  0  0  0  0  0  0  0  0  0
  -19.6037   10.5955  -17.1533 C   0  0  0  0  0  0  0  0  0  0  0  0
  -20.6533   10.8009  -16.3059 C   0  0  0  0  0  0  0  0  0  0  0  0
  -21.9179   10.0733  -14.4023 O   0  0  0  0  0  0  0  0  0  0  0  0
  -22.3063   11.0126  -13.5032 C   0  0  0  0  0  0  0  0  0  0  0  0
  -21.1957   11.6241  -12.7059 C   0  0  0  0  0  0  0  0  0  0  0  0
  -22.8375   12.8957  -11.5131 C   0  0  0  0  0  0  0  0  0  0  0  0
  -21.6582   12.0567  -11.3898 N   0  0  0  0  0  0  0  0  0  0  0  0
  -21.9283   10.8980  -10.5497 C   0  0  0  0  0  0  0  0  0  0  0  0
 33 34  1  0  0  0
 34 35  1  0  0  0
 34 32  1  0  0  0
 32 31  1  0  0  0
 31 30  1  0  0  0
 30 24  1  0  0  0
 24 25  2  0  0  0
 25 26  1  0  0  0
 26 27  2  0  0  0
 27 22  1  0  0  0
 22  1  1  0  0  0
  1  2  2  0  0  0
  2  3  1  0  0  0
  3  4  2  0  0  0
  4  5  1  0  0  0
  5  6  2  0  0  0
  6  7  1  0  0  0
  7 10  1  0  0  0
 10 11  2  0  0  0
 11 12  1  0  0  0
 12 13  2  0  0  0
 13 14  1  0  0  0
 14 16  1  0  0  0
 16 17  1  0  0  0
 17 18  2  0  0  0
 17 20  1  0  0  0
 20 21  2  0  0  0
 14 15  2  0  0  0
  7  8  1  0  0  0
  8  9  2  0  0  0
 27 28  1  0  0  0
 28 29  2  0  0  0
 29 24  1  0  0  0
  9  1  1  0  0  0
  8  4  1  0  0  0
 15 10  1  0  0  0
 22 23  1  0  0  0
 16 19  1  0  0  0
M  END
> <minimizedAffinity>
-7.06580

> <CNNscore>
0.8889015317

> <CNNaffinity>
7.3444185257

> <CNN_VS>
6.5284647942

> <CNNaffinity_variance>
0.1478391886

$$$$
[H]C([H])=C([H])C(=O)N([H])c1c([H])c([H])c([H])c(-n2c([H])nc3c([H])nc(N([H])c4c([H])c([H])c(OC([H])([H])C([H])([H])N(C([H])([H])[H])C([H])([H])[H])c([H])c4[H])nc32)c1[H]


 35 38  0  0  0  0  0  0  0  0999 V2000
  -17.4690   10.1476  -18.9700 C   0  0  0  0  0  0  0  0  0  0  0  0
  -16.5811    9.8277  -19.9087 N   0  0  0  0  0  0  0  0  0  0  0  0
  -16.2418   10.5349  -20.9829 C   0  0  0  0  0  0  0  0  0  0  0  0
  -16.8968   11.7551  -21.1391 C   0  0  0  0  0  0  0  0  0  0  0  0
  -16.8532   12.7288  -22.0381 N   0  0  0  0  0  0  0  0  0  0  0  0
  -17.7207   13.6894  -21.6796 C   0  0  0  0  0  0  0  0  0  0  0  0
  -18.3460   13.3593  -20.5398 N   0  0  0  0  0  0  0  0  0  0  0  0
  -17.8292   12.1374  -20.1931 C   0  0  0  0  0  0  0  0  0  0  0  0
  -18.1008   11.3535  -19.1456 N   0  0  0  0  0  0  0  0  0  0  0  0
  -19.3348   14.0727  -19.8044 C   0  0  0  0  0  0  0  0  0  0  0  0
  -20.6542   14.0591  -20.1586 C   0  0  0  0  0  0  0  0  0  0  0  0
  -21.5772   14.7666  -19.4165 C   0  0  0  0  0  0  0  0  0  0  0  0
  -21.2170   15.4998  -18.3124 C   0  0  0  0  0  0  0  0  0  0  0  0
  -19.8690   15.5317  -17.9250 C   0  0  0  0  0  0  0  0  0  0  0  0
  -18.9851   14.8303  -18.6693 C   0  0  0  0  0  0  0  0  0  0  0  0
  -19.4778   16.2929  -16.8007 N   0  0  0  0  0  0  0  0  0  0  0  0
  -19.4151   17.6770  -16.6479 C   0  0  0  0  0  0  0  0  0  0  0  0
  -19.7226   18.5061  -17.5770 O   0  0  0  0  0  0  0  0  0  0  0  0
  -19.1876   15.7226  -15.9334 H   0  0  0  0  0  0  0  0  0  0  0  0
  -18.9921   18.2945  -15.4105 C   0  0  0  0  0  0  0  0  0  0  0  0
  -19.7027   18.2607  -14.3315 C   0  0  0  0  0  0  0  0  0  0  0  0
  -17.7984    9.3582  -17.8375 N   0  0  0  0  0  0  0  0  0  0  0  0
  -17.1189    8.5434  -17.6109 H   0  0  0  0  0  0  0  0  0  0  0  0
  -21.0695    9.9423  -15.2604 C   0  0  0  0  0  0  0  0  0  0  0  0
  -20.2830    8.7805  -15.1948 C   0  0  0  0  0  0  0  0  0  0  0  0
  -19.2126    8.5510  -16.0264 C   0  0  0  0  0  0  0  0  0  0  0  0
  -18.8868    9.4903  -16.9660 C   0  0  0  0  0  0  0  0  0  0  0  0
  -19.6764   10.6648  -17.0387 C   0  0  0  0  0  0  0  0  0  0  0  0
  -20.7368   10.8786  -16.2069 C   0  0  0  0  0  0  0  0  0  0  0  0
  -22.1138   10.0962  -14.4057 O   0  0  0  0  0  0  0  0  0  0  0  0
  -23.3571    9.5676  -14.2789 C   0  0  0  0  0  0  0  0  0  0  0  0
  -24.2509    9.7585  -15.4655 C   0  0  0  0  0  0  0  0  0  0  0  0
  -26.0786    9.0915  -14.0690 C   0  0  0  0  0  0  0  0  0  0  0  0
  -25.6229   10.0515  -15.0593 N   0  0  0  0  0  0  0  0  0  0  0  0
  -25.7121   11.4117  -14.5465 C   0  0  0  0  0  0  0  0  0  0  0  0
 33 34  1  0  0  0
 34 35  1  0  0  0
 34 32  1  0  0  0
 32 31  1  0  0  0
 31 30  1  0  0  0
 30 24  1  0  0  0
 24 25  2  0  0  0
 25 26  1  0  0  0
 26 27  2  0  0  0
 27 22  1  0  0  0
 22  1  1  0  0  0
  1  2  2  0  0  0
  2  3  1  0  0  0
  3  4  2  0  0  0
  4  5  1  0  0  0
  5  6  2  0  0  0
  6  7  1  0  0  0
  7 10  1  0  0  0
 10 11  2  0  0  0
 11 12  1  0  0  0
 12 13  2  0  0  0
 13 14  1  0  0  0
 14 16  1  0  0  0
 16 17  1  0  0  0
 17 18  2  0  0  0
 17 20  1  0  0  0
 20 21  2  0  0  0
 14 15  2  0  0  0
  7  8  1  0  0  0
  8  9  2  0  0  0
 27 28  1  0  0  0
 28 29  2  0  0  0
 29 24  1  0  0  0
  9  1  1  0  0  0
  8  4  1  0  0  0
 15 10  1  0  0  0
 22 23  1  0  0  0
 16 19  1  0  0  0
M  END
> <minimizedAffinity>
-6.94963

> <CNNscore>
0.8671944141

> <CNNaffinity>
7.2765464783

> <CNN_VS>
6.3101806641

> <CNNaffinity_variance>
0.1452806890

$$$$
[H]C([H])=C([H])C(=O)N([H])c1c([H])c([H])c([H])c(-n2c([H])nc3c([H])nc(N([H])c4c([H])c([H])c(OC([H])([H])C([H])([H])N(C([H])([H])[H])C([H])([H])[H])c([H])c4[H])nc32)c1[H]


 35 38  0  0  0  0  0  0  0  0999 V2000
  -16.7766   10.3537  -19.6596 C   0  0  0  0  0  0  0  0  0  0  0  0
  -15.8328    9.8390  -20.4446 N   0  0  0  0  0  0  0  0  0  0  0  0
  -15.3888   10.3163  -21.6039 C   0  0  0  0  0  0  0  0  0  0  0  0
  -15.9862   11.4959  -22.0444 C   0  0  0  0  0  0  0  0  0  0  0  0
  -15.8405   12.2747  -23.1077 N   0  0  0  0  0  0  0  0  0  0  0  0
  -16.6976   13.3043  -23.0119 C   0  0  0  0  0  0  0  0  0  0  0  0
  -17.4181   13.2154  -21.8840 N   0  0  0  0  0  0  0  0  0  0  0  0
  -16.9727   12.0741  -21.2680 C   0  0  0  0  0  0  0  0  0  0  0  0
  -17.3500   11.5151  -20.1145 N   0  0  0  0  0  0  0  0  0  0  0  0
  -18.4332   14.0785  -21.3818 C   0  0  0  0  0  0  0  0  0  0  0  0
  -19.4097   13.6359  -20.5351 C   0  0  0  0  0  0  0  0  0  0  0  0
  -20.3739   14.5085  -20.0745 C   0  0  0  0  0  0  0  0  0  0  0  0
  -20.3932   15.8324  -20.4397 C   0  0  0  0  0  0  0  0  0  0  0  0
  -19.4024   16.3149  -21.3078 C   0  0  0  0  0  0  0  0  0  0  0  0
  -18.4698   15.4393  -21.7447 C   0  0  0  0  0  0  0  0  0  0  0  0
  -19.4153   17.6705  -21.7061 N   0  0  0  0  0  0  0  0  0  0  0  0
  -18.5549   18.7064  -21.3463 C   0  0  0  0  0  0  0  0  0  0  0  0
  -17.5659   18.5580  -20.5430 O   0  0  0  0  0  0  0  0  0  0  0  0
  -20.2026   17.9452  -22.3892 H   0  0  0  0  0  0  0  0  0  0  0  0
  -18.7133   20.0493  -21.8590 C   0  0  0  0  0  0  0  0  0  0  0  0
  -19.1918   20.2993  -23.0334 C   0  0  0  0  0  0  0  0  0  0  0  0
  -17.2180    9.8070  -18.4266 N   0  0  0  0  0  0  0  0  0  0  0  0
  -16.5700    9.0623  -17.9766 H   0  0  0  0  0  0  0  0  0  0  0  0
  -20.7458   10.5035  -16.2464 C   0  0  0  0  0  0  0  0  0  0  0  0
  -20.1431   11.5175  -17.0090 C   0  0  0  0  0  0  0  0  0  0  0  0
  -18.9855   11.3293  -17.7264 C   0  0  0  0  0  0  0  0  0  0  0  0
  -18.3824   10.1017  -17.7061 C   0  0  0  0  0  0  0  0  0  0  0  0
  -18.9843    9.0739  -16.9382 C   0  0  0  0  0  0  0  0  0  0  0  0
  -20.1332    9.2756  -16.2302 C   0  0  0  0  0  0  0  0  0  0  0  0
  -21.8886   10.7669  -15.5616 O   0  0  0  0  0  0  0  0  0  0  0  0
  -22.2043   11.1308  -14.2929 C   0  0  0  0  0  0  0  0  0  0  0  0
  -22.4520    9.9933  -13.3506 C   0  0  0  0  0  0  0  0  0  0  0  0
  -21.0505   11.4500  -12.0662 C   0  0  0  0  0  0  0  0  0  0  0  0
  -21.6823   10.1430  -12.1184 N   0  0  0  0  0  0  0  0  0  0  0  0
  -22.5439    9.9341  -10.9629 C   0  0  0  0  0  0  0  0  0  0  0  0
 33 34  1  0  0  0
 34 35  1  0  0  0
 34 32  1  0  0  0
 32 31  1  0  0  0
 31 30  1  0  0  0
 30 24  1  0  0  0
 24 25  2  0  0  0
 25 26  1  0  0  0
 26 27  2  0  0  0
 27 22  1  0  0  0
 22  1  1  0  0  0
  1  2  2  0  0  0
  2  3  1  0  0  0
  3  4  2  0  0  0
  4  5  1  0  0  0
  5  6  2  0  0  0
  6  7  1  0  0  0
  7 10  1  0  0  0
 10 11  2  0  0  0
 11 12  1  0  0  0
 12 13  2  0  0  0
 13 14  1  0  0  0
 14 16  1  0  0  0
 16 17  1  0  0  0
 17 18  2  0  0  0
 17 20  1  0  0  0
 20 21  2  0  0  0
 14 15  2  0  0  0
  7  8  1  0  0  0
  8  9  2  0  0  0
 27 28  1  0  0  0
 28 29  2  0  0  0
 29 24  1  0  0  0
  9  1  1  0  0  0
  8  4  1  0  0  0
 15 10  1  0  0  0
 22 23  1  0  0  0
 16 19  1  0  0  0
M  END
> <minimizedAffinity>
-7.76276

> <CNNscore>
0.8495952487

> <CNNaffinity>
7.2040815353

> <CNN_VS>
6.1205534935

> <CNNaffinity_variance>
0.0478195474

$$$$
[H]C([H])=C([H])C(=O)N([H])c1c([H])c([H])c([H])c(-n2c([H])nc3c([H])nc(N([H])c4c([H])c([H])c(OC([H])([H])C([H])([H])N(C([H])([H])[H])C([H])([H])[H])c([H])c4[H])nc32)c1[H]


 35 38  0  0  0  0  0  0  0  0999 V2000
  -17.4610   13.5457  -22.1641 C   0  0  0  0  0  0  0  0  0  0  0  0
  -16.5501   12.9083  -22.8962 N   0  0  0  0  0  0  0  0  0  0  0  0
  -15.9204   11.7737  -22.6044 C   0  0  0  0  0  0  0  0  0  0  0  0
  -16.2582   11.1867  -21.3864 C   0  0  0  0  0  0  0  0  0  0  0  0
  -15.8779   10.0927  -20.7409 N   0  0  0  0  0  0  0  0  0  0  0  0
  -16.5480   10.0194  -19.5792 C   0  0  0  0  0  0  0  0  0  0  0  0
  -17.3778   11.0648  -19.4463 N   0  0  0  0  0  0  0  0  0  0  0  0
  -17.1991   11.8063  -20.5858 C   0  0  0  0  0  0  0  0  0  0  0  0
  -17.7771   12.9485  -20.9692 N   0  0  0  0  0  0  0  0  0  0  0  0
  -18.2692   11.3903  -18.3845 C   0  0  0  0  0  0  0  0  0  0  0  0
  -19.0174   10.4412  -17.7475 C   0  0  0  0  0  0  0  0  0  0  0  0
  -19.8689   10.8034  -16.7242 C   0  0  0  0  0  0  0  0  0  0  0  0
  -19.9983   12.1066  -16.3104 C   0  0  0  0  0  0  0  0  0  0  0  0
  -19.2420   13.1024  -16.9463 C   0  0  0  0  0  0  0  0  0  0  0  0
  -18.4157   12.7210  -17.9459 C   0  0  0  0  0  0  0  0  0  0  0  0
  -19.3734   14.4505  -16.5439 N   0  0  0  0  0  0  0  0  0  0  0  0
  -18.8042   15.5975  -17.0946 C   0  0  0  0  0  0  0  0  0  0  0  0
  -18.0242   15.5815  -18.1128 O   0  0  0  0  0  0  0  0  0  0  0  0
  -20.0072   14.6189  -15.6885 H   0  0  0  0  0  0  0  0  0  0  0  0
  -19.0534   16.9147  -16.5522 C   0  0  0  0  0  0  0  0  0  0  0  0
  -20.0574   17.1770  -15.7816 C   0  0  0  0  0  0  0  0  0  0  0  0
  -18.1082   14.7581  -22.5183 N   0  0  0  0  0  0  0  0  0  0  0  0
  -18.5126   14.8060  -23.5238 H   0  0  0  0  0  0  0  0  0  0  0  0
  -18.8697   18.1919  -20.2134 C   0  0  0  0  0  0  0  0  0  0  0  0
  -17.5843   17.9083  -20.7035 C   0  0  0  0  0  0  0  0  0  0  0  0
  -17.2962   16.7916  -21.4518 C   0  0  0  0  0  0  0  0  0  0  0  0
  -18.2991   15.9073  -21.7406 C   0  0  0  0  0  0  0  0  0  0  0  0
  -19.5984   16.1863  -21.2487 C   0  0  0  0  0  0  0  0  0  0  0  0
  -19.8695   17.2987  -20.5063 C   0  0  0  0  0  0  0  0  0  0  0  0
  -19.0759   19.3150  -19.4781 O   0  0  0  0  0  0  0  0  0  0  0  0
  -19.9638   20.3411  -19.4918 C   0  0  0  0  0  0  0  0  0  0  0  0
  -19.4327   21.6454  -18.9821 C   0  0  0  0  0  0  0  0  0  0  0  0
  -18.8855   22.6231  -21.0988 C   0  0  0  0  0  0  0  0  0  0  0  0
  -19.7142   22.7366  -19.9112 N   0  0  0  0  0  0  0  0  0  0  0  0
  -21.1280   22.7426  -20.2608 C   0  0  0  0  0  0  0  0  0  0  0  0
 33 34  1  0  0  0
 34 35  1  0  0  0
 34 32  1  0  0  0
 32 31  1  0  0  0
 31 30  1  0  0  0
 30 24  1  0  0  0
 24 25  2  0  0  0
 25 26  1  0  0  0
 26 27  2  0  0  0
 27 22  1  0  0  0
 22  1  1  0  0  0
  1  2  2  0  0  0
  2  3  1  0  0  0
  3  4  2  0  0  0
  4  5  1  0  0  0
  5  6  2  0  0  0
  6  7  1  0  0  0
  7 10  1  0  0  0
 10 11  2  0  0  0
 11 12  1  0  0  0
 12 13  2  0  0  0
 13 14  1  0  0  0
 14 16  1  0  0  0
 16 17  1  0  0  0
 17 18  2  0  0  0
 17 20  1  0  0  0
 20 21  2  0  0  0
 14 15  2  0  0  0
  7  8  1  0  0  0
  8  9  2  0  0  0
 27 28  1  0  0  0
 28 29  2  0  0  0
 29 24  1  0  0  0
  9  1  1  0  0  0
  8  4  1  0  0  0
 15 10  1  0  0  0
 22 23  1  0  0  0
 16 19  1  0  0  0
M  END
> <minimizedAffinity>
-7.28689

> <CNNscore>
0.6853826046

> <CNNaffinity>
7.1693282127

> <CNN_VS>
4.9137330055

> <CNNaffinity_variance>
0.0333261117

$$$$
[H]C([H])=C([H])C(=O)N([H])c1c([H])c([H])c([H])c(-n2c([H])nc3c([H])nc(N([H])c4c([H])c([H])c(OC([H])([H])C([H])([H])N(C([H])([H])[H])C([H])([H])[H])c([H])c4[H])nc32)c1[H]


 35 38  0  0  0  0  0  0  0  0999 V2000
  -18.7069   11.9397  -18.7500 C   0  0  0  0  0  0  0  0  0  0  0  0
  -18.1112   10.8689  -18.2300 N   0  0  0  0  0  0  0  0  0  0  0  0
  -17.1276   10.1471  -18.7598 C   0  0  0  0  0  0  0  0  0  0  0  0
  -16.6702   10.5662  -20.0077 C   0  0  0  0  0  0  0  0  0  0  0  0
  -15.7394   10.1411  -20.8510 N   0  0  0  0  0  0  0  0  0  0  0  0
  -15.7310   10.9433  -21.9282 C   0  0  0  0  0  0  0  0  0  0  0  0
  -16.6566   11.9064  -21.8068 N   0  0  0  0  0  0  0  0  0  0  0  0
  -17.2537   11.6733  -20.5945 C   0  0  0  0  0  0  0  0  0  0  0  0
  -18.2394   12.3331  -19.9793 N   0  0  0  0  0  0  0  0  0  0  0  0
  -16.9942   12.9625  -22.7003 C   0  0  0  0  0  0  0  0  0  0  0  0
  -17.1543   12.7563  -24.0413 C   0  0  0  0  0  0  0  0  0  0  0  0
  -17.4806   13.8104  -24.8693 C   0  0  0  0  0  0  0  0  0  0  0  0
  -17.6550   15.0860  -24.3912 C   0  0  0  0  0  0  0  0  0  0  0  0
  -17.4973   15.3272  -23.0182 C   0  0  0  0  0  0  0  0  0  0  0  0
  -17.1773   14.2774  -22.2290 C   0  0  0  0  0  0  0  0  0  0  0  0
  -17.6581   16.6361  -22.5107 N   0  0  0  0  0  0  0  0  0  0  0  0
  -18.7633   17.2137  -21.8880 C   0  0  0  0  0  0  0  0  0  0  0  0
  -19.8648   16.5901  -21.6806 O   0  0  0  0  0  0  0  0  0  0  0  0
  -16.8025   17.2828  -22.6176 H   0  0  0  0  0  0  0  0  0  0  0  0
  -18.7529   18.5821  -21.4201 C   0  0  0  0  0  0  0  0  0  0  0  0
  -17.9389   19.0055  -20.5097 C   0  0  0  0  0  0  0  0  0  0  0  0
  -19.7557   12.6801  -18.1450 N   0  0  0  0  0  0  0  0  0  0  0  0
  -20.4420   12.1139  -17.5244 H   0  0  0  0  0  0  0  0  0  0  0  0
  -20.4029   16.8310  -18.3313 C   0  0  0  0  0  0  0  0  0  0  0  0
  -21.4399   15.9158  -18.5757 C   0  0  0  0  0  0  0  0  0  0  0  0
  -21.2636   14.5530  -18.5329 C   0  0  0  0  0  0  0  0  0  0  0  0
  -20.0254   14.0514  -18.2390 C   0  0  0  0  0  0  0  0  0  0  0  0
  -18.9739   14.9688  -17.9921 C   0  0  0  0  0  0  0  0  0  0  0  0
  -19.1636   16.3193  -18.0389 C   0  0  0  0  0  0  0  0  0  0  0  0
  -20.6542   18.1642  -18.3947 O   0  0  0  0  0  0  0  0  0  0  0  0
  -21.1883   19.0972  -17.5666 C   0  0  0  0  0  0  0  0  0  0  0  0
  -20.2625   19.6065  -16.5051 C   0  0  0  0  0  0  0  0  0  0  0  0
  -22.0571   18.7503  -15.1701 C   0  0  0  0  0  0  0  0  0  0  0  0
  -20.6556   19.1323  -15.1808 N   0  0  0  0  0  0  0  0  0  0  0  0
  -19.8087   18.0182  -14.7776 C   0  0  0  0  0  0  0  0  0  0  0  0
 33 34  1  0  0  0
 34 35  1  0  0  0
 34 32  1  0  0  0
 32 31  1  0  0  0
 31 30  1  0  0  0
 30 24  1  0  0  0
 24 25  2  0  0  0
 25 26  1  0  0  0
 26 27  2  0  0  0
 27 22  1  0  0  0
 22  1  1  0  0  0
  1  2  2  0  0  0
  2  3  1  0  0  0
  3  4  2  0  0  0
  4  5  1  0  0  0
  5  6  2  0  0  0
  6  7  1  0  0  0
  7 10  1  0  0  0
 10 11  2  0  0  0
 11 12  1  0  0  0
 12 13  2  0  0  0
 13 14  1  0  0  0
 14 16  1  0  0  0
 16 17  1  0  0  0
 17 18  2  0  0  0
 17 20  1  0  0  0
 20 21  2  0  0  0
 14 15  2  0  0  0
  7  8  1  0  0  0
  8  9  2  0  0  0
 27 28  1  0  0  0
 28 29  2  0  0  0
 29 24  1  0  0  0
  9  1  1  0  0  0
  8  4  1  0  0  0
 15 10  1  0  0  0
 22 23  1  0  0  0
 16 19  1  0  0  0
M  END
> <minimizedAffinity>
-6.80144

> <CNNscore>
0.6329760551

> <CNNaffinity>
7.2010240555

> <CNN_VS>
4.5580759048

> <CNNaffinity_variance>
0.0379461646

$$$$
[H]C([H])=C([H])C(=O)N([H])c1c([H])c([H])c([H])c(-n2c([H])nc3c([H])nc(N([H])c4c([H])c([H])c(OC([H])([H])C([H])([H])N(C([H])([H])[H])C([H])([H])[H])c([H])c4[H])nc32)c1[H]


 35 38  0  0  0  0  0  0  0  0999 V2000
  -16.4706   12.7403  -22.9368 C   0  0  0  0  0  0  0  0  0  0  0  0
  -15.5112   11.8203  -23.0090 N   0  0  0  0  0  0  0  0  0  0  0  0
  -15.2296   10.8671  -22.1251 C   0  0  0  0  0  0  0  0  0  0  0  0
  -16.0382   10.8319  -20.9906 C   0  0  0  0  0  0  0  0  0  0  0  0
  -16.0928   10.0692  -19.9073 N   0  0  0  0  0  0  0  0  0  0  0  0
  -17.0966   10.4981  -19.1249 C   0  0  0  0  0  0  0  0  0  0  0  0
  -17.7151   11.5487  -19.6841 N   0  0  0  0  0  0  0  0  0  0  0  0
  -17.0505   11.7644  -20.8640 C   0  0  0  0  0  0  0  0  0  0  0  0
  -17.2536   12.6854  -21.8106 N   0  0  0  0  0  0  0  0  0  0  0  0
  -18.8187   12.3136  -19.2101 C   0  0  0  0  0  0  0  0  0  0  0  0
  -19.5736   13.0920  -20.0411 C   0  0  0  0  0  0  0  0  0  0  0  0
  -20.6333   13.8171  -19.5368 C   0  0  0  0  0  0  0  0  0  0  0  0
  -20.9684   13.7881  -18.2051 C   0  0  0  0  0  0  0  0  0  0  0  0
  -20.2109   12.9972  -17.3284 C   0  0  0  0  0  0  0  0  0  0  0  0
  -19.1779   12.2970  -17.8479 C   0  0  0  0  0  0  0  0  0  0  0  0
  -20.5317   12.9670  -15.9526 N   0  0  0  0  0  0  0  0  0  0  0  0
  -21.3199   12.0587  -15.2479 C   0  0  0  0  0  0  0  0  0  0  0  0
  -21.9060   11.0573  -15.7946 O   0  0  0  0  0  0  0  0  0  0  0  0
  -20.1041   13.7591  -15.3598 H   0  0  0  0  0  0  0  0  0  0  0  0
  -21.5407   12.1770  -13.8236 C   0  0  0  0  0  0  0  0  0  0  0  0
  -22.6214   11.7668  -13.2453 C   0  0  0  0  0  0  0  0  0  0  0  0
  -16.7342   13.7406  -23.9085 N   0  0  0  0  0  0  0  0  0  0  0  0
  -16.6000   13.4460  -24.9439 H   0  0  0  0  0  0  0  0  0  0  0  0
  -17.8352   17.7352  -23.1912 C   0  0  0  0  0  0  0  0  0  0  0  0
  -18.7178   16.8302  -23.8034 C   0  0  0  0  0  0  0  0  0  0  0  0
  -18.3896   15.5204  -24.0620 C   0  0  0  0  0  0  0  0  0  0  0  0
  -17.1488   15.0638  -23.7111 C   0  0  0  0  0  0  0  0  0  0  0  0
  -16.2525   15.9715  -23.0938 C   0  0  0  0  0  0  0  0  0  0  0  0
  -16.5920   17.2693  -22.8441 C   0  0  0  0  0  0  0  0  0  0  0  0
  -18.2312   19.0155  -22.9710 O   0  0  0  0  0  0  0  0  0  0  0  0
  -18.7921   19.7003  -21.9425 C   0  0  0  0  0  0  0  0  0  0  0  0
  -19.0782   18.8847  -20.7193 C   0  0  0  0  0  0  0  0  0  0  0  0
  -21.2708   19.5539  -21.4122 C   0  0  0  0  0  0  0  0  0  0  0  0
  -20.5123   18.6718  -20.5425 N   0  0  0  0  0  0  0  0  0  0  0  0
  -20.8451   17.2768  -20.7964 C   0  0  0  0  0  0  0  0  0  0  0  0
 33 34  1  0  0  0
 34 35  1  0  0  0
 34 32  1  0  0  0
 32 31  1  0  0  0
 31 30  1  0  0  0
 30 24  1  0  0  0
 24 25  2  0  0  0
 25 26  1  0  0  0
 26 27  2  0  0  0
 27 22  1  0  0  0
 22  1  1  0  0  0
  1  2  2  0  0  0
  2  3  1  0  0  0
  3  4  2  0  0  0
  4  5  1  0  0  0
  5  6  2  0  0  0
  6  7  1  0  0  0
  7 10  1  0  0  0
 10 11  2  0  0  0
 11 12  1  0  0  0
 12 13  2  0  0  0
 13 14  1  0  0  0
 14 16  1  0  0  0
 16 17  1  0  0  0
 17 18  2  0  0  0
 17 20  1  0  0  0
 20 21  2  0  0  0
 14 15  2  0  0  0
  7  8  1  0  0  0
  8  9  2  0  0  0
 27 28  1  0  0  0
 28 29  2  0  0  0
 29 24  1  0  0  0
  9  1  1  0  0  0
  8  4  1  0  0  0
 15 10  1  0  0  0
 22 23  1  0  0  0
 16 19  1  0  0  0
M  END
> <minimizedAffinity>
-7.48435

> <CNNscore>
0.6328803301

> <CNNaffinity>
7.1182732582

> <CNN_VS>
4.5050148964

> <CNNaffinity_variance>
0.1383454353

$$$$
[H]C([H])=C([H])C(=O)N([H])c1c([H])c([H])c([H])c(-n2c([H])nc3c([H])nc(N([H])c4c([H])c([H])c(OC([H])([H])C([H])([H])N(C([H])([H])[H])C([H])([H])[H])c([H])c4[H])nc32)c1[H]


 35 38  0  0  0  0  0  0  0  0999 V2000
  -17.1774   13.2614  -22.9013 C   0  0  0  0  0  0  0  0  0  0  0  0
  -16.1262   12.6575  -23.4511 N   0  0  0  0  0  0  0  0  0  0  0  0
  -15.4132   11.6512  -22.9531 C   0  0  0  0  0  0  0  0  0  0  0  0
  -15.8194   11.1765  -21.7073 C   0  0  0  0  0  0  0  0  0  0  0  0
  -15.3968   10.2218  -20.8898 N   0  0  0  0  0  0  0  0  0  0  0  0
  -16.1808   10.2060  -19.7994 C   0  0  0  0  0  0  0  0  0  0  0  0
  -17.1292   11.1505  -19.8862 N   0  0  0  0  0  0  0  0  0  0  0  0
  -16.9060   11.7674  -21.0904 C   0  0  0  0  0  0  0  0  0  0  0  0
  -17.5583   12.7765  -21.6748 N   0  0  0  0  0  0  0  0  0  0  0  0
  -18.1641   11.4886  -18.9683 C   0  0  0  0  0  0  0  0  0  0  0  0
  -18.7769   12.7095  -18.9819 C   0  0  0  0  0  0  0  0  0  0  0  0
  -19.7745   12.9931  -18.0722 C   0  0  0  0  0  0  0  0  0  0  0  0
  -20.1862   12.0792  -17.1332 C   0  0  0  0  0  0  0  0  0  0  0  0
  -19.5747   10.8171  -17.0961 C   0  0  0  0  0  0  0  0  0  0  0  0
  -18.6000   10.5648  -17.9981 C   0  0  0  0  0  0  0  0  0  0  0  0
  -19.9749    9.8696  -16.1273 N   0  0  0  0  0  0  0  0  0  0  0  0
  -19.4224    8.6261  -15.8251 C   0  0  0  0  0  0  0  0  0  0  0  0
  -18.4044    8.1374  -16.4335 O   0  0  0  0  0  0  0  0  0  0  0  0
  -20.8300   10.1477  -15.5329 H   0  0  0  0  0  0  0  0  0  0  0  0
  -19.9627    7.7779  -14.7858 C   0  0  0  0  0  0  0  0  0  0  0  0
  -20.9878    8.1101  -14.0722 C   0  0  0  0  0  0  0  0  0  0  0  0
  -17.9091   14.3347  -23.4728 N   0  0  0  0  0  0  0  0  0  0  0  0
  -18.4713   14.1029  -24.3712 H   0  0  0  0  0  0  0  0  0  0  0  0
  -18.1136   18.3698  -22.3064 C   0  0  0  0  0  0  0  0  0  0  0  0
  -18.2994   17.3291  -21.3816 C   0  0  0  0  0  0  0  0  0  0  0  0
  -18.2489   15.9996  -21.7279 C   0  0  0  0  0  0  0  0  0  0  0  0
  -18.0065   15.6602  -23.0307 C   0  0  0  0  0  0  0  0  0  0  0  0
  -17.8188   16.7049  -23.9697 C   0  0  0  0  0  0  0  0  0  0  0  0
  -17.8725   18.0205  -23.6115 C   0  0  0  0  0  0  0  0  0  0  0  0
  -18.1809   19.6602  -21.8886 O   0  0  0  0  0  0  0  0  0  0  0  0
  -19.1709   20.5414  -21.5975 C   0  0  0  0  0  0  0  0  0  0  0  0
  -20.5610   20.0238  -21.8047 C   0  0  0  0  0  0  0  0  0  0  0  0
  -21.2353   19.9727  -24.1021 C   0  0  0  0  0  0  0  0  0  0  0  0
  -21.2466   20.7464  -22.8728 N   0  0  0  0  0  0  0  0  0  0  0  0
  -22.6097   21.0613  -22.4676 C   0  0  0  0  0  0  0  0  0  0  0  0
 33 34  1  0  0  0
 34 35  1  0  0  0
 34 32  1  0  0  0
 32 31  1  0  0  0
 31 30  1  0  0  0
 30 24  1  0  0  0
 24 25  2  0  0  0
 25 26  1  0  0  0
 26 27  2  0  0  0
 27 22  1  0  0  0
 22  1  1  0  0  0
  1  2  2  0  0  0
  2  3  1  0  0  0
  3  4  2  0  0  0
  4  5  1  0  0  0
  5  6  2  0  0  0
  6  7  1  0  0  0
  7 10  1  0  0  0
 10 11  2  0  0  0
 11 12  1  0  0  0
 12 13  2  0  0  0
 13 14  1  0  0  0
 14 16  1  0  0  0
 16 17  1  0  0  0
 17 18  2  0  0  0
 17 20  1  0  0  0
 20 21  2  0  0  0
 14 15  2  0  0  0
  7  8  1  0  0  0
  8  9  2  0  0  0
 27 28  1  0  0  0
 28 29  2  0  0  0
 29 24  1  0  0  0
  9  1  1  0  0  0
  8  4  1  0  0  0
 15 10  1  0  0  0
 22 23  1  0  0  0
 16 19  1  0  0  0
M  END
> <minimizedAffinity>
-7.38113

> <CNNscore>
0.6298949122

> <CNNaffinity>
7.1169624329

> <CNN_VS>
4.4829382896

> <CNNaffinity_variance>
0.1005981565

$$$$
[H]C([H])=C([H])C(=O)N([H])c1c([H])c([H])c([H])c(-n2c([H])nc3c([H])nc(N([H])c4c([H])c([H])c(OC([H])([H])C([H])([H])N(C([H])([H])[H])C([H])([H])[H])c([H])c4[H])nc32)c1[H]


 35 38  0  0  0  0  0  0  0  0999 V2000
  -17.3922   10.5441  -18.9740 C   0  0  0  0  0  0  0  0  0  0  0  0
  -16.9948   10.0129  -20.1280 N   0  0  0  0  0  0  0  0  0  0  0  0
  -16.8454   10.6274  -21.2982 C   0  0  0  0  0  0  0  0  0  0  0  0
  -17.1414   11.9891  -21.3118 C   0  0  0  0  0  0  0  0  0  0  0  0
  -17.1247   12.9381  -22.2378 N   0  0  0  0  0  0  0  0  0  0  0  0
  -17.5148   14.0958  -21.6797 C   0  0  0  0  0  0  0  0  0  0  0  0
  -17.7932   13.9225  -20.3791 N   0  0  0  0  0  0  0  0  0  0  0  0
  -17.5589   12.5926  -20.1406 C   0  0  0  0  0  0  0  0  0  0  0  0
  -17.6779   11.8862  -19.0126 N   0  0  0  0  0  0  0  0  0  0  0  0
  -18.2375   14.8661  -19.4096 C   0  0  0  0  0  0  0  0  0  0  0  0
  -17.9116   16.1908  -19.4825 C   0  0  0  0  0  0  0  0  0  0  0  0
  -18.3641   17.0688  -18.5195 C   0  0  0  0  0  0  0  0  0  0  0  0
  -19.1459   16.6575  -17.4677 C   0  0  0  0  0  0  0  0  0  0  0  0
  -19.4965   15.3029  -17.3675 C   0  0  0  0  0  0  0  0  0  0  0  0
  -19.0399   14.4637  -18.3238 C   0  0  0  0  0  0  0  0  0  0  0  0
  -20.2875   14.8592  -16.2840 N   0  0  0  0  0  0  0  0  0  0  0  0
  -21.6754   14.8033  -16.1665 C   0  0  0  0  0  0  0  0  0  0  0  0
  -22.4796   15.1786  -17.0926 O   0  0  0  0  0  0  0  0  0  0  0  0
  -19.7404   14.5108  -15.4232 H   0  0  0  0  0  0  0  0  0  0  0  0
  -22.3256   14.3098  -14.9727 C   0  0  0  0  0  0  0  0  0  0  0  0
  -22.1505   13.1104  -14.5240 C   0  0  0  0  0  0  0  0  0  0  0  0
  -17.5366    9.8462  -17.7467 N   0  0  0  0  0  0  0  0  0  0  0  0
  -16.6270    9.4332  -17.3237 H   0  0  0  0  0  0  0  0  0  0  0  0
  -20.9870    8.9772  -15.5055 C   0  0  0  0  0  0  0  0  0  0  0  0
  -20.8502   10.1905  -16.1997 C   0  0  0  0  0  0  0  0  0  0  0  0
  -19.7338   10.5129  -16.9344 C   0  0  0  0  0  0  0  0  0  0  0  0
  -18.7007    9.6188  -17.0016 C   0  0  0  0  0  0  0  0  0  0  0  0
  -18.8312    8.3928  -16.3030 C   0  0  0  0  0  0  0  0  0  0  0  0
  -19.9452    8.0868  -15.5768 C   0  0  0  0  0  0  0  0  0  0  0  0
  -22.1202    8.7316  -14.7982 O   0  0  0  0  0  0  0  0  0  0  0  0
  -22.8775    9.4123  -13.9012 C   0  0  0  0  0  0  0  0  0  0  0  0
  -24.2902    9.6668  -14.3285 C   0  0  0  0  0  0  0  0  0  0  0  0
  -24.7635    8.2463  -12.4594 C   0  0  0  0  0  0  0  0  0  0  0  0
  -25.2031    8.6685  -13.7779 N   0  0  0  0  0  0  0  0  0  0  0  0
  -26.5571    9.2027  -13.7297 C   0  0  0  0  0  0  0  0  0  0  0  0
 33 34  1  0  0  0
 34 35  1  0  0  0
 34 32  1  0  0  0
 32 31  1  0  0  0
 31 30  1  0  0  0
 30 24  1  0  0  0
 24 25  2  0  0  0
 25 26  1  0  0  0
 26 27  2  0  0  0
 27 22  1  0  0  0
 22  1  1  0  0  0
  1  2  2  0  0  0
  2  3  1  0  0  0
  3  4  2  0  0  0
  4  5  1  0  0  0
  5  6  2  0  0  0
  6  7  1  0  0  0
  7 10  1  0  0  0
 10 11  2  0  0  0
 11 12  1  0  0  0
 12 13  2  0  0  0
 13 14  1  0  0  0
 14 16  1  0  0  0
 16 17  1  0  0  0
 17 18  2  0  0  0
 17 20  1  0  0  0
 20 21  2  0  0  0
 14 15  2  0  0  0
  7  8  1  0  0  0
  8  9  2  0  0  0
 27 28  1  0  0  0
 28 29  2  0  0  0
 29 24  1  0  0  0
  9  1  1  0  0  0
  8  4  1  0  0  0
 15 10  1  0  0  0
 22 23  1  0  0  0
 16 19  1  0  0  0
M  END
> <minimizedAffinity>
-6.78165

> <CNNscore>
0.6244425774

> <CNNaffinity>
6.9379730225

> <CNN_VS>
4.3323659897

> <CNNaffinity_variance>
0.1024078280

$$$$
[H]C([H])=C([H])C(=O)N([H])c1c([H])c([H])c([H])c(-n2c([H])nc3c([H])nc(N([H])c4c([H])c([H])c(OC([H])([H])C([H])([H])N(C([H])([H])[H])C([H])([H])[H])c([H])c4[H])nc32)c1[H]


 35 38  0  0  0  0  0  0  0  0999 V2000
  -17.5448   13.5783  -22.3535 C   0  0  0  0  0  0  0  0  0  0  0  0
  -16.5938   13.0173  -23.0969 N   0  0  0  0  0  0  0  0  0  0  0  0
  -15.8699   11.9380  -22.8136 C   0  0  0  0  0  0  0  0  0  0  0  0
  -16.1439   11.3257  -21.5920 C   0  0  0  0  0  0  0  0  0  0  0  0
  -15.6677   10.2666  -20.9519 N   0  0  0  0  0  0  0  0  0  0  0  0
  -16.3155   10.1392  -19.7823 C   0  0  0  0  0  0  0  0  0  0  0  0
  -17.2263   11.1133  -19.6386 N   0  0  0  0  0  0  0  0  0  0  0  0
  -17.1226   11.8666  -20.7796 C   0  0  0  0  0  0  0  0  0  0  0  0
  -17.7966   12.9576  -21.1553 N   0  0  0  0  0  0  0  0  0  0  0  0
  -18.1284   11.3651  -18.5659 C   0  0  0  0  0  0  0  0  0  0  0  0
  -18.4281   12.6317  -18.1508 C   0  0  0  0  0  0  0  0  0  0  0  0
  -19.3074   12.8275  -17.1061 C   0  0  0  0  0  0  0  0  0  0  0  0
  -19.9072   11.7794  -16.4518 C   0  0  0  0  0  0  0  0  0  0  0  0
  -19.6183   10.4677  -16.8569 C   0  0  0  0  0  0  0  0  0  0  0  0
  -18.7534   10.3034  -17.8827 C   0  0  0  0  0  0  0  0  0  0  0  0
  -20.2144    9.3766  -16.1856 N   0  0  0  0  0  0  0  0  0  0  0  0
  -19.7492    8.6509  -15.0901 C   0  0  0  0  0  0  0  0  0  0  0  0
  -18.6338    8.8913  -14.5042 O   0  0  0  0  0  0  0  0  0  0  0  0
  -21.1685    9.0590  -16.5738 H   0  0  0  0  0  0  0  0  0  0  0  0
  -20.5003    7.5541  -14.5207 C   0  0  0  0  0  0  0  0  0  0  0  0
  -20.1176    6.9168  -13.4633 C   0  0  0  0  0  0  0  0  0  0  0  0
  -18.2932   14.7336  -22.6990 N   0  0  0  0  0  0  0  0  0  0  0  0
  -18.7260   14.7409  -23.6937 H   0  0  0  0  0  0  0  0  0  0  0  0
  -19.1750   18.0407  -20.2557 C   0  0  0  0  0  0  0  0  0  0  0  0
  -18.6905   18.2043  -21.5639 C   0  0  0  0  0  0  0  0  0  0  0  0
  -18.3828   17.1475  -22.3877 C   0  0  0  0  0  0  0  0  0  0  0  0
  -18.5525   15.8716  -21.9246 C   0  0  0  0  0  0  0  0  0  0  0  0
  -19.0401   15.6987  -20.6053 C   0  0  0  0  0  0  0  0  0  0  0  0
  -19.3406   16.7574  -19.7985 C   0  0  0  0  0  0  0  0  0  0  0  0
  -19.4541   19.1345  -19.5007 O   0  0  0  0  0  0  0  0  0  0  0  0
  -19.2958   19.4892  -18.2005 C   0  0  0  0  0  0  0  0  0  0  0  0
  -20.5471   19.4574  -17.3781 C   0  0  0  0  0  0  0  0  0  0  0  0
  -19.0641   18.0339  -16.1493 C   0  0  0  0  0  0  0  0  0  0  0  0
  -20.4241   18.5335  -16.2536 N   0  0  0  0  0  0  0  0  0  0  0  0
  -20.8340   19.1908  -15.0202 C   0  0  0  0  0  0  0  0  0  0  0  0
 33 34  1  0  0  0
 34 35  1  0  0  0
 34 32  1  0  0  0
 32 31  1  0  0  0
 31 30  1  0  0  0
 30 24  1  0  0  0
 24 25  2  0  0  0
 25 26  1  0  0  0
 26 27  2  0  0  0
 27 22  1  0  0  0
 22  1  1  0  0  0
  1  2  2  0  0  0
  2  3  1  0  0  0
  3  4  2  0  0  0
  4  5  1  0  0  0
  5  6  2  0  0  0
  6  7  1  0  0  0
  7 10  1  0  0  0
 10 11  2  0  0  0
 11 12  1  0  0  0
 12 13  2  0  0  0
 13 14  1  0  0  0
 14 16  1  0  0  0
 16 17  1  0  0  0
 17 18  2  0  0  0
 17 20  1  0  0  0
 20 21  2  0  0  0
 14 15  2  0  0  0
  7  8  1  0  0  0
  8  9  2  0  0  0
 27 28  1  0  0  0
 28 29  2  0  0  0
 29 24  1  0  0  0
  9  1  1  0  0  0
  8  4  1  0  0  0
 15 10  1  0  0  0
 22 23  1  0  0  0
 16 19  1  0  0  0
M  END
> <minimizedAffinity>
-6.91889

> <CNNscore>
0.6153916717

> <CNNaffinity>
7.1454458237

> <CNN_VS>
4.3972477913

> <CNNaffinity_variance>
0.1612384021

$$$$
[H]OC([H])([H])C([H])([H])N1C([H])([H])C([H])([H])N(C2([H])C([H])([H])C([H])([H])C([H])(n3nc(-c4c([H])c([H])c(Oc5c([H])c([H])c([H])c([H])c5[H])c([H])c4[H])c4c(N([H])[H])nc([H])nc43)C([H])([H])C2([H])[H])C([H])([H])C1([H])[H]


 41 46  0  0  0  0  0  0  0  0999 V2000
  -17.7369    9.2957  -17.5461 N   0  0  0  0  0  0  0  0  0  0  0  0
  -17.7621   10.1793  -18.6560 C   0  0  0  0  0  0  0  0  0  0  0  0
  -16.9608    9.9570  -19.7267 N   0  0  0  0  0  0  0  0  0  0  0  0
  -16.9312   10.7931  -20.7767 C   0  0  0  0  0  0  0  0  0  0  0  0
  -17.6979   11.8935  -20.8136 N   0  0  0  0  0  0  0  0  0  0  0  0
  -18.5049   12.1378  -19.7604 C   0  0  0  0  0  0  0  0  0  0  0  0
  -19.3668   13.1531  -19.4973 N   0  0  0  0  0  0  0  0  0  0  0  0
  -19.9327   12.9783  -18.3277 N   0  0  0  0  0  0  0  0  0  0  0  0
  -19.4721   11.8272  -17.7491 C   0  0  0  0  0  0  0  0  0  0  0  0
  -18.5780   11.2993  -18.6387 C   0  0  0  0  0  0  0  0  0  0  0  0
  -18.1404    8.3380  -17.5404 H   0  0  0  0  0  0  0  0  0  0  0  0
  -17.2790    9.6309  -16.6731 H   0  0  0  0  0  0  0  0  0  0  0  0
  -19.8447   11.3161  -16.4461 C   0  0  0  0  0  0  0  0  0  0  0  0
  -19.5065   11.8901  -15.2380 C   0  0  0  0  0  0  0  0  0  0  0  0
  -19.9063   11.3865  -14.0155 C   0  0  0  0  0  0  0  0  0  0  0  0
  -20.6849   10.2521  -13.9357 C   0  0  0  0  0  0  0  0  0  0  0  0
  -21.0349    9.6599  -15.1272 C   0  0  0  0  0  0  0  0  0  0  0  0
  -20.6392   10.1584  -16.3427 C   0  0  0  0  0  0  0  0  0  0  0  0
  -21.0624    9.7833  -12.6913 O   0  0  0  0  0  0  0  0  0  0  0  0
  -20.3147    9.8278  -11.5593 C   0  0  0  0  0  0  0  0  0  0  0  0
  -19.1980    9.0426  -11.4343 C   0  0  0  0  0  0  0  0  0  0  0  0
  -18.4000    9.0454  -10.3082 C   0  0  0  0  0  0  0  0  0  0  0  0
  -18.7597    9.8812   -9.2763 C   0  0  0  0  0  0  0  0  0  0  0  0
  -19.8787   10.6856   -9.3691 C   0  0  0  0  0  0  0  0  0  0  0  0
  -20.6643   10.6572  -10.5251 C   0  0  0  0  0  0  0  0  0  0  0  0
  -19.6072   14.2668  -20.4138 C   0  0  0  0  0  0  0  0  0  0  0  0
  -18.3901   15.1420  -20.3933 C   0  0  0  0  0  0  0  0  0  0  0  0
  -18.6125   16.5124  -20.9540 C   0  0  0  0  0  0  0  0  0  0  0  0
  -19.8233   17.1156  -20.2496 C   0  0  0  0  0  0  0  0  0  0  0  0
  -21.0211   16.3320  -20.6828 C   0  0  0  0  0  0  0  0  0  0  0  0
  -20.8860   14.9371  -20.0531 C   0  0  0  0  0  0  0  0  0  0  0  0
  -19.8882   18.5131  -20.3469 N   0  0  0  0  0  0  0  0  0  0  0  0
  -19.0026   19.1982  -19.5206 C   0  0  0  0  0  0  0  0  0  0  0  0
  -19.3094   20.6291  -19.2195 C   0  0  0  0  0  0  0  0  0  0  0  0
  -20.1767   21.2553  -20.1828 N   0  0  0  0  0  0  0  0  0  0  0  0
  -21.3219   20.4928  -20.5263 C   0  0  0  0  0  0  0  0  0  0  0  0
  -20.8584   19.1636  -21.0877 C   0  0  0  0  0  0  0  0  0  0  0  0
  -19.3973   21.7843  -21.2471 C   0  0  0  0  0  0  0  0  0  0  0  0
  -19.0432   23.2424  -21.1228 C   0  0  0  0  0  0  0  0  0  0  0  0
  -17.6458   23.3025  -20.8951 O   0  0  0  0  0  0  0  0  0  0  0  0
  -17.4665   23.6020  -19.9573 H   0  0  0  0  0  0  0  0  0  0  0  0
  1  2  1  0  0  0
  2  3  2  0  0  0
  3  4  1  0  0  0
  4  5  2  0  0  0
  5  6  1  0  0  0
  6  7  1  0  0  0
  7  8  1  0  0  0
  8  9  2  0  0  0
  9 13  1  0  0  0
 13 14  2  0  0  0
 14 15  1  0  0  0
 15 16  2  0  0  0
 16 19  1  0  0  0
 19 20  1  0  0  0
 20 21  2  0  0  0
 21 22  1  0  0  0
 22 23  2  0  0  0
 23 24  1  0  0  0
 24 25  2  0  0  0
 16 17  1  0  0  0
 17 18  2  0  0  0
  9 10  1  0  0  0
  7 26  1  0  0  0
 26 27  1  0  0  0
 27 28  1  0  0  0
 28 29  1  0  0  0
 29 30  1  0  0  0
 30 31  1  0  0  0
 29 32  1  0  0  0
 32 33  1  0  0  0
 33 34  1  0  0  0
 34 35  1  0  0  0
 35 38  1  0  0  0
 38 39  1  0  0  0
 39 40  1  0  0  0
 35 36  1  0  0  0
 36 37  1  0  0  0
 10  2  1  0  0  0
 31 26  1  0  0  0
 37 32  1  0  0  0
 10  6  2  0  0  0
 18 13  1  0  0  0
 25 20  1  0  0  0
  1 11  1  0  0  0
  1 12  1  0  0  0
 40 41  1  0  0  0
M  END
> <minimizedAffinity>
-8.35869

> <CNNscore>
0.6765632033

> <CNNaffinity>
7.2211928368

> <CNN_VS>
4.8855934143

> <CNNaffinity_variance>
0.1048021540

$$$$
[H]OC([H])([H])C([H])([H])N1C([H])([H])C([H])([H])N(C2([H])C([H])([H])C([H])([H])C([H])(n3nc(-c4c([H])c([H])c(Oc5c([H])c([H])c([H])c([H])c5[H])c([H])c4[H])c4c(N([H])[H])nc([H])nc43)C([H])([H])C2([H])[H])C([H])([H])C1([H])[H]


 41 46  0  0  0  0  0  0  0  0999 V2000
  -17.7836    9.3047  -18.2490 N   0  0  0  0  0  0  0  0  0  0  0  0
  -17.3262   10.1954  -19.2543 C   0  0  0  0  0  0  0  0  0  0  0  0
  -16.3730    9.8030  -20.1348 N   0  0  0  0  0  0  0  0  0  0  0  0
  -15.8899   10.6321  -21.0739 C   0  0  0  0  0  0  0  0  0  0  0  0
  -16.3313   11.8943  -21.1835 N   0  0  0  0  0  0  0  0  0  0  0  0
  -17.2802   12.3099  -20.3193 C   0  0  0  0  0  0  0  0  0  0  0  0
  -17.9035   13.5062  -20.1664 N   0  0  0  0  0  0  0  0  0  0  0  0
  -18.7565   13.4514  -19.1724 N   0  0  0  0  0  0  0  0  0  0  0  0
  -18.7441   12.2044  -18.6095 C   0  0  0  0  0  0  0  0  0  0  0  0
  -17.8219   11.4879  -19.3205 C   0  0  0  0  0  0  0  0  0  0  0  0
  -18.3994    8.4847  -18.4179 H   0  0  0  0  0  0  0  0  0  0  0  0
  -17.4788    9.4849  -17.2699 H   0  0  0  0  0  0  0  0  0  0  0  0
  -19.5298   11.7710  -17.4726 C   0  0  0  0  0  0  0  0  0  0  0  0
  -19.5828   10.4813  -16.9853 C   0  0  0  0  0  0  0  0  0  0  0  0
  -20.3236   10.1137  -15.8789 C   0  0  0  0  0  0  0  0  0  0  0  0
  -21.0703   11.0411  -15.1848 C   0  0  0  0  0  0  0  0  0  0  0  0
  -21.0350   12.3347  -15.6517 C   0  0  0  0  0  0  0  0  0  0  0  0
  -20.2997   12.7024  -16.7502 C   0  0  0  0  0  0  0  0  0  0  0  0
  -21.7965   10.6292  -14.0830 O   0  0  0  0  0  0  0  0  0  0  0  0
  -21.2840   10.2241  -12.8932 C   0  0  0  0  0  0  0  0  0  0  0  0
  -21.4766    8.9390  -12.4564 C   0  0  0  0  0  0  0  0  0  0  0  0
  -20.9799    8.4709  -11.2568 C   0  0  0  0  0  0  0  0  0  0  0  0
  -20.2620    9.3504  -10.4796 C   0  0  0  0  0  0  0  0  0  0  0  0
  -20.0492   10.6521  -10.8894 C   0  0  0  0  0  0  0  0  0  0  0  0
  -20.5671   11.0924  -12.1110 C   0  0  0  0  0  0  0  0  0  0  0  0
  -17.6377   14.6695  -21.0116 C   0  0  0  0  0  0  0  0  0  0  0  0
  -17.7484   15.8912  -20.1498 C   0  0  0  0  0  0  0  0  0  0  0  0
  -17.8991   17.1687  -20.9159 C   0  0  0  0  0  0  0  0  0  0  0  0
  -19.0543   16.9932  -21.8961 C   0  0  0  0  0  0  0  0  0  0  0  0
  -18.6182   15.9908  -22.9166 C   0  0  0  0  0  0  0  0  0  0  0  0
  -18.5375   14.6360  -22.1964 C   0  0  0  0  0  0  0  0  0  0  0  0
  -19.5845   18.2063  -22.3588 N   0  0  0  0  0  0  0  0  0  0  0  0
  -20.8672   18.1182  -22.8911 C   0  0  0  0  0  0  0  0  0  0  0  0
  -21.3124   19.2181  -23.7991 C   0  0  0  0  0  0  0  0  0  0  0  0
  -20.5828   20.4473  -23.6282 N   0  0  0  0  0  0  0  0  0  0  0  0
  -19.1741   20.2928  -23.5773 C   0  0  0  0  0  0  0  0  0  0  0  0
  -18.8375   19.3686  -22.4244 C   0  0  0  0  0  0  0  0  0  0  0  0
  -21.1952   21.2223  -22.6064 C   0  0  0  0  0  0  0  0  0  0  0  0
  -21.9675   22.4232  -23.0845 C   0  0  0  0  0  0  0  0  0  0  0  0
  -21.6660   22.5777  -24.4604 O   0  0  0  0  0  0  0  0  0  0  0  0
  -21.1072   23.3966  -24.5963 H   0  0  0  0  0  0  0  0  0  0  0  0
  1  2  1  0  0  0
  2  3  2  0  0  0
  3  4  1  0  0  0
  4  5  2  0  0  0
  5  6  1  0  0  0
  6  7  1  0  0  0
  7  8  1  0  0  0
  8  9  2  0  0  0
  9 13  1  0  0  0
 13 14  2  0  0  0
 14 15  1  0  0  0
 15 16  2  0  0  0
 16 19  1  0  0  0
 19 20  1  0  0  0
 20 21  2  0  0  0
 21 22  1  0  0  0
 22 23  2  0  0  0
 23 24  1  0  0  0
 24 25  2  0  0  0
 16 17  1  0  0  0
 17 18  2  0  0  0
  9 10  1  0  0  0
  7 26  1  0  0  0
 26 27  1  0  0  0
 27 28  1  0  0  0
 28 29  1  0  0  0
 29 30  1  0  0  0
 30 31  1  0  0  0
 29 32  1  0  0  0
 32 33  1  0  0  0
 33 34  1  0  0  0
 34 35  1  0  0  0
 35 38  1  0  0  0
 38 39  1  0  0  0
 39 40  1  0  0  0
 35 36  1  0  0  0
 36 37  1  0  0  0
 10  2  1  0  0  0
 31 26  1  0  0  0
 37 32  1  0  0  0
 10  6  2  0  0  0
 18 13  1  0  0  0
 25 20  1  0  0  0
  1 11  1  0  0  0
  1 12  1  0  0  0
 40 41  1  0  0  0
M  END
> <minimizedAffinity>
-8.06265

> <CNNscore>
0.6390755177

> <CNNaffinity>
7.3589949608

> <CNN_VS>
4.7029533386

> <CNNaffinity_variance>
0.1794780940

$$$$
[H]OC([H])([H])C([H])([H])N1C([H])([H])C([H])([H])N(C2([H])C([H])([H])C([H])([H])C([H])(n3nc(-c4c([H])c([H])c(Oc5c([H])c([H])c([H])c([H])c5[H])c([H])c4[H])c4c(N([H])[H])nc([H])nc43)C([H])([H])C2([H])[H])C([H])([H])C1([H])[H]


 41 46  0  0  0  0  0  0  0  0999 V2000
  -16.4306   10.5883  -20.0487 N   0  0  0  0  0  0  0  0  0  0  0  0
  -17.4758   10.7165  -19.0978 C   0  0  0  0  0  0  0  0  0  0  0  0
  -17.7096    9.7283  -18.1997 N   0  0  0  0  0  0  0  0  0  0  0  0
  -18.7138    9.7997  -17.3114 C   0  0  0  0  0  0  0  0  0  0  0  0
  -19.5366   10.8587  -17.2727 N   0  0  0  0  0  0  0  0  0  0  0  0
  -19.3253   11.8564  -18.1558 C   0  0  0  0  0  0  0  0  0  0  0  0
  -19.9808   13.0249  -18.3748 N   0  0  0  0  0  0  0  0  0  0  0  0
  -19.4213   13.6830  -19.3610 N   0  0  0  0  0  0  0  0  0  0  0  0
  -18.3553   12.9795  -19.8516 C   0  0  0  0  0  0  0  0  0  0  0  0
  -18.2922   11.8364  -19.1040 C   0  0  0  0  0  0  0  0  0  0  0  0
  -15.4172   10.6645  -19.8310 H   0  0  0  0  0  0  0  0  0  0  0  0
  -16.6984   10.4029  -21.0377 H   0  0  0  0  0  0  0  0  0  0  0  0
  -17.5079   13.3714  -20.9589 C   0  0  0  0  0  0  0  0  0  0  0  0
  -17.0919   12.5393  -21.9778 C   0  0  0  0  0  0  0  0  0  0  0  0
  -16.3060   12.9596  -23.0332 C   0  0  0  0  0  0  0  0  0  0  0  0
  -15.8835   14.2681  -23.1261 C   0  0  0  0  0  0  0  0  0  0  0  0
  -16.2843   15.1179  -22.1213 C   0  0  0  0  0  0  0  0  0  0  0  0
  -17.0651   14.7030  -21.0722 C   0  0  0  0  0  0  0  0  0  0  0  0
  -15.0984   14.6452  -24.1996 O   0  0  0  0  0  0  0  0  0  0  0  0
  -15.5029   14.7407  -25.4918 C   0  0  0  0  0  0  0  0  0  0  0  0
  -16.5943   14.0368  -25.9308 C   0  0  0  0  0  0  0  0  0  0  0  0
  -17.0516   14.0943  -27.2318 C   0  0  0  0  0  0  0  0  0  0  0  0
  -16.3666   14.9005  -28.1113 C   0  0  0  0  0  0  0  0  0  0  0  0
  -15.2629   15.6233  -27.7024 C   0  0  0  0  0  0  0  0  0  0  0  0
  -14.8274   15.5411  -26.3765 C   0  0  0  0  0  0  0  0  0  0  0  0
  -21.1421   13.4575  -17.5987 C   0  0  0  0  0  0  0  0  0  0  0  0
  -21.3875   14.9020  -17.9161 C   0  0  0  0  0  0  0  0  0  0  0  0
  -22.2711   15.6033  -16.9315 C   0  0  0  0  0  0  0  0  0  0  0  0
  -21.7023   15.3615  -15.5372 C   0  0  0  0  0  0  0  0  0  0  0  0
  -21.8798   13.9078  -15.2345 C   0  0  0  0  0  0  0  0  0  0  0  0
  -20.9203   13.1449  -16.1608 C   0  0  0  0  0  0  0  0  0  0  0  0
  -22.1504   16.2858  -14.5824 N   0  0  0  0  0  0  0  0  0  0  0  0
  -23.2448   15.8668  -13.8319 C   0  0  0  0  0  0  0  0  0  0  0  0
  -24.0525   16.9199  -13.1459 C   0  0  0  0  0  0  0  0  0  0  0  0
  -23.3428   18.1544  -12.9341 N   0  0  0  0  0  0  0  0  0  0  0  0
  -22.6412   18.6318  -14.0702 C   0  0  0  0  0  0  0  0  0  0  0  0
  -21.6463   17.5710  -14.4963 C   0  0  0  0  0  0  0  0  0  0  0  0
  -22.6323   18.0861  -11.7051 C   0  0  0  0  0  0  0  0  0  0  0  0
  -21.3923   18.9369  -11.6301 C   0  0  0  0  0  0  0  0  0  0  0  0
  -20.4407   18.2017  -10.8805 O   0  0  0  0  0  0  0  0  0  0  0  0
  -20.2967   18.6385   -9.9918 H   0  0  0  0  0  0  0  0  0  0  0  0
  1  2  1  0  0  0
  2  3  2  0  0  0
  3  4  1  0  0  0
  4  5  2  0  0  0
  5  6  1  0  0  0
  6  7  1  0  0  0
  7  8  1  0  0  0
  8  9  2  0  0  0
  9 13  1  0  0  0
 13 14  2  0  0  0
 14 15  1  0  0  0
 15 16  2  0  0  0
 16 19  1  0  0  0
 19 20  1  0  0  0
 20 21  2  0  0  0
 21 22  1  0  0  0
 22 23  2  0  0  0
 23 24  1  0  0  0
 24 25  2  0  0  0
 16 17  1  0  0  0
 17 18  2  0  0  0
  9 10  1  0  0  0
  7 26  1  0  0  0
 26 27  1  0  0  0
 27 28  1  0  0  0
 28 29  1  0  0  0
 29 30  1  0  0  0
 30 31  1  0  0  0
 29 32  1  0  0  0
 32 33  1  0  0  0
 33 34  1  0  0  0
 34 35  1  0  0  0
 35 38  1  0  0  0
 38 39  1  0  0  0
 39 40  1  0  0  0
 35 36  1  0  0  0
 36 37  1  0  0  0
 10  2  1  0  0  0
 31 26  1  0  0  0
 37 32  1  0  0  0
 10  6  2  0  0  0
 18 13  1  0  0  0
 25 20  1  0  0  0
  1 11  1  0  0  0
  1 12  1  0  0  0
 40 41  1  0  0  0
M  END
> <minimizedAffinity>
-9.39843

> <CNNscore>
0.5070677400

> <CNNaffinity>
7.2322607040

> <CNN_VS>
3.6672461033

> <CNNaffinity_variance>
0.3189744949

$$$$
[H]OC([H])([H])C([H])([H])N1C([H])([H])C([H])([H])N(C2([H])C([H])([H])C([H])([H])C([H])(n3nc(-c4c([H])c([H])c(Oc5c([H])c([H])c([H])c([H])c5[H])c([H])c4[H])c4c(N([H])[H])nc([H])nc43)C([H])([H])C2([H])[H])C([H])([H])C1([H])[H]


 41 46  0  0  0  0  0  0  0  0999 V2000
  -18.1914    9.0856  -17.0590 N   0  0  0  0  0  0  0  0  0  0  0  0
  -18.0373    9.9620  -18.1642 C   0  0  0  0  0  0  0  0  0  0  0  0
  -17.1748    9.6573  -19.1647 N   0  0  0  0  0  0  0  0  0  0  0  0
  -16.9760   10.4814  -20.2058 C   0  0  0  0  0  0  0  0  0  0  0  0
  -17.6259   11.6512  -20.3031 N   0  0  0  0  0  0  0  0  0  0  0  0
  -18.4905   11.9781  -19.3205 C   0  0  0  0  0  0  0  0  0  0  0  0
  -19.2683   13.0738  -19.1271 N   0  0  0  0  0  0  0  0  0  0  0  0
  -19.9444   12.9608  -18.0097 N   0  0  0  0  0  0  0  0  0  0  0  0
  -19.6483   11.7732  -17.3983 C   0  0  0  0  0  0  0  0  0  0  0  0
  -18.7387   11.1563  -18.2116 C   0  0  0  0  0  0  0  0  0  0  0  0
  -18.6855    8.1718  -17.0902 H   0  0  0  0  0  0  0  0  0  0  0  0
  -17.7777    9.3788  -16.1496 H   0  0  0  0  0  0  0  0  0  0  0  0
  -20.1767   11.3071  -16.1328 C   0  0  0  0  0  0  0  0  0  0  0  0
  -19.6159   11.5517  -14.8962 C   0  0  0  0  0  0  0  0  0  0  0  0
  -20.1674   11.1129  -13.7081 C   0  0  0  0  0  0  0  0  0  0  0  0
  -21.3387   10.3868  -13.6951 C   0  0  0  0  0  0  0  0  0  0  0  0
  -21.9174   10.1286  -14.9162 C   0  0  0  0  0  0  0  0  0  0  0  0
  -21.3717   10.5636  -16.0975 C   0  0  0  0  0  0  0  0  0  0  0  0
  -21.8553    9.9680  -12.4832 O   0  0  0  0  0  0  0  0  0  0  0  0
  -22.7234    8.9415  -12.2956 C   0  0  0  0  0  0  0  0  0  0  0  0
  -24.0577    9.1883  -12.1006 C   0  0  0  0  0  0  0  0  0  0  0  0
  -24.9862    8.1861  -11.9048 C   0  0  0  0  0  0  0  0  0  0  0  0
  -24.5308    6.8879  -11.9091 C   0  0  0  0  0  0  0  0  0  0  0  0
  -23.1930    6.6037  -12.1025 C   0  0  0  0  0  0  0  0  0  0  0  0
  -22.2800    7.6442  -12.2979 C   0  0  0  0  0  0  0  0  0  0  0  0
  -19.3213   14.2012  -20.0569 C   0  0  0  0  0  0  0  0  0  0  0  0
  -18.1606   15.0985  -19.7486 C   0  0  0  0  0  0  0  0  0  0  0  0
  -18.2822   16.4755  -20.3238 C   0  0  0  0  0  0  0  0  0  0  0  0
  -19.6340   17.0414  -19.9017 C   0  0  0  0  0  0  0  0  0  0  0  0
  -20.6851   16.2444  -20.6062 C   0  0  0  0  0  0  0  0  0  0  0  0
  -20.6635   14.8398  -19.9839 C   0  0  0  0  0  0  0  0  0  0  0  0
  -19.7074   18.4392  -19.9895 N   0  0  0  0  0  0  0  0  0  0  0  0
  -19.1126   19.1231  -18.9335 C   0  0  0  0  0  0  0  0  0  0  0  0
  -19.5319   20.5392  -18.7078 C   0  0  0  0  0  0  0  0  0  0  0  0
  -20.1066   21.1697  -19.8674 N   0  0  0  0  0  0  0  0  0  0  0  0
  -21.0852   20.3911  -20.5359 C   0  0  0  0  0  0  0  0  0  0  0  0
  -20.4446   19.0863  -20.9647 C   0  0  0  0  0  0  0  0  0  0  0  0
  -19.0716   21.7412  -20.6563 C   0  0  0  0  0  0  0  0  0  0  0  0
  -19.3976   23.0725  -21.2795 C   0  0  0  0  0  0  0  0  0  0  0  0
  -20.0747   23.8283  -20.2904 O   0  0  0  0  0  0  0  0  0  0  0  0
  -21.0364   23.9372  -20.5447 H   0  0  0  0  0  0  0  0  0  0  0  0
  1  2  1  0  0  0
  2  3  2  0  0  0
  3  4  1  0  0  0
  4  5  2  0  0  0
  5  6  1  0  0  0
  6  7  1  0  0  0
  7  8  1  0  0  0
  8  9  2  0  0  0
  9 13  1  0  0  0
 13 14  2  0  0  0
 14 15  1  0  0  0
 15 16  2  0  0  0
 16 19  1  0  0  0
 19 20  1  0  0  0
 20 21  2  0  0  0
 21 22  1  0  0  0
 22 23  2  0  0  0
 23 24  1  0  0  0
 24 25  2  0  0  0
 16 17  1  0  0  0
 17 18  2  0  0  0
  9 10  1  0  0  0
  7 26  1  0  0  0
 26 27  1  0  0  0
 27 28  1  0  0  0
 28 29  1  0  0  0
 29 30  1  0  0  0
 30 31  1  0  0  0
 29 32  1  0  0  0
 32 33  1  0  0  0
 33 34  1  0  0  0
 34 35  1  0  0  0
 35 38  1  0  0  0
 38 39  1  0  0  0
 39 40  1  0  0  0
 35 36  1  0  0  0
 36 37  1  0  0  0
 10  2  1  0  0  0
 31 26  1  0  0  0
 37 32  1  0  0  0
 10  6  2  0  0  0
 18 13  1  0  0  0
 25 20  1  0  0  0
  1 11  1  0  0  0
  1 12  1  0  0  0
 40 41  1  0  0  0
M  END
> <minimizedAffinity>
-6.86720

> <CNNscore>
0.4730038345

> <CNNaffinity>
6.9404478073

> <CNN_VS>
3.2828583717

> <CNNaffinity_variance>
0.1135979891

$$$$
[H]OC([H])([H])C([H])([H])N1C([H])([H])C([H])([H])N(C2([H])C([H])([H])C([H])([H])C([H])(n3nc(-c4c([H])c([H])c(Oc5c([H])c([H])c([H])c([H])c5[H])c([H])c4[H])c4c(N([H])[H])nc([H])nc43)C([H])([H])C2([H])[H])C([H])([H])C1([H])[H]


 41 46  0  0  0  0  0  0  0  0999 V2000
  -17.4420   13.3571  -20.8790 N   0  0  0  0  0  0  0  0  0  0  0  0
  -17.5617   12.2007  -20.0657 C   0  0  0  0  0  0  0  0  0  0  0  0
  -16.7500   11.1339  -20.2684 N   0  0  0  0  0  0  0  0  0  0  0  0
  -16.8612   10.0096  -19.5431 C   0  0  0  0  0  0  0  0  0  0  0  0
  -17.7869    9.8905  -18.5792 N   0  0  0  0  0  0  0  0  0  0  0  0
  -18.6072   10.9381  -18.3570 C   0  0  0  0  0  0  0  0  0  0  0  0
  -19.6325   11.1156  -17.4849 N   0  0  0  0  0  0  0  0  0  0  0  0
  -20.1592   12.3062  -17.6378 N   0  0  0  0  0  0  0  0  0  0  0  0
  -19.5047   12.9873  -18.6275 C   0  0  0  0  0  0  0  0  0  0  0  0
  -18.5357   12.1364  -19.0821 C   0  0  0  0  0  0  0  0  0  0  0  0
  -16.6658   14.0459  -20.8212 H   0  0  0  0  0  0  0  0  0  0  0  0
  -18.1859   13.5278  -21.5873 H   0  0  0  0  0  0  0  0  0  0  0  0
  -19.8179   14.3199  -19.1007 C   0  0  0  0  0  0  0  0  0  0  0  0
  -20.9518   14.6699  -19.8044 C   0  0  0  0  0  0  0  0  0  0  0  0
  -21.2278   15.9600  -20.2136 C   0  0  0  0  0  0  0  0  0  0  0  0
  -20.3607   16.9941  -19.9338 C   0  0  0  0  0  0  0  0  0  0  0  0
  -19.2215   16.6705  -19.2337 C   0  0  0  0  0  0  0  0  0  0  0  0
  -18.9453   15.3899  -18.8258 C   0  0  0  0  0  0  0  0  0  0  0  0
  -20.6768   18.2697  -20.3622 O   0  0  0  0  0  0  0  0  0  0  0  0
  -21.3877   18.5867  -21.4743 C   0  0  0  0  0  0  0  0  0  0  0  0
  -20.8500   18.3922  -22.7201 C   0  0  0  0  0  0  0  0  0  0  0  0
  -21.5248   18.6955  -23.8853 C   0  0  0  0  0  0  0  0  0  0  0  0
  -22.7931   19.2157  -23.7683 C   0  0  0  0  0  0  0  0  0  0  0  0
  -23.3650   19.4245  -22.5285 C   0  0  0  0  0  0  0  0  0  0  0  0
  -22.6524   19.1056  -21.3688 C   0  0  0  0  0  0  0  0  0  0  0  0
  -20.0595   10.1006  -16.5228 C   0  0  0  0  0  0  0  0  0  0  0  0
  -20.8718   10.7891  -15.4675 C   0  0  0  0  0  0  0  0  0  0  0  0
  -21.0505    9.9895  -14.2143 C   0  0  0  0  0  0  0  0  0  0  0  0
  -19.6705    9.5429  -13.7432 C   0  0  0  0  0  0  0  0  0  0  0  0
  -19.1583    8.5603  -14.7475 C   0  0  0  0  0  0  0  0  0  0  0  0
  -18.8702    9.3531  -16.0317 C   0  0  0  0  0  0  0  0  0  0  0  0
  -19.6338    9.1723  -12.3911 N   0  0  0  0  0  0  0  0  0  0  0  0
  -18.5811    8.3310  -12.0441 C   0  0  0  0  0  0  0  0  0  0  0  0
  -18.7203    7.5378  -10.7856 C   0  0  0  0  0  0  0  0  0  0  0  0
  -19.6674    8.0875   -9.8510 N   0  0  0  0  0  0  0  0  0  0  0  0
  -20.9100    8.4603  -10.4236 C   0  0  0  0  0  0  0  0  0  0  0  0
  -20.6469    9.4895  -11.5044 C   0  0  0  0  0  0  0  0  0  0  0  0
  -19.0149    9.0398   -9.0219 C   0  0  0  0  0  0  0  0  0  0  0  0
  -17.5869    8.7166   -8.6707 C   0  0  0  0  0  0  0  0  0  0  0  0
  -16.8322    9.8893   -8.9215 O   0  0  0  0  0  0  0  0  0  0  0  0
  -16.2374    9.7482   -9.7137 H   0  0  0  0  0  0  0  0  0  0  0  0
  1  2  1  0  0  0
  2  3  2  0  0  0
  3  4  1  0  0  0
  4  5  2  0  0  0
  5  6  1  0  0  0
  6  7  1  0  0  0
  7  8  1  0  0  0
  8  9  2  0  0  0
  9 13  1  0  0  0
 13 14  2  0  0  0
 14 15  1  0  0  0
 15 16  2  0  0  0
 16 19  1  0  0  0
 19 20  1  0  0  0
 20 21  2  0  0  0
 21 22  1  0  0  0
 22 23  2  0  0  0
 23 24  1  0  0  0
 24 25  2  0  0  0
 16 17  1  0  0  0
 17 18  2  0  0  0
  9 10  1  0  0  0
  7 26  1  0  0  0
 26 27  1  0  0  0
 27 28  1  0  0  0
 28 29  1  0  0  0
 29 30  1  0  0  0
 30 31  1  0  0  0
 29 32  1  0  0  0
 32 33  1  0  0  0
 33 34  1  0  0  0
 34 35  1  0  0  0
 35 38  1  0  0  0
 38 39  1  0  0  0
 39 40  1  0  0  0
 35 36  1  0  0  0
 36 37  1  0  0  0
 10  2  1  0  0  0
 31 26  1  0  0  0
 37 32  1  0  0  0
 10  6  2  0  0  0
 18 13  1  0  0  0
 25 20  1  0  0  0
  1 11  1  0  0  0
  1 12  1  0  0  0
 40 41  1  0  0  0
M  END
> <minimizedAffinity>
-7.97345

> <CNNscore>
0.3750033081

> <CNNaffinity>
6.9141411781

> <CNN_VS>
2.5928258896

> <CNNaffinity_variance>
0.1762317121

$$$$
[H]OC([H])([H])C([H])([H])N1C([H])([H])C([H])([H])N(C2([H])C([H])([H])C([H])([H])C([H])(n3nc(-c4c([H])c([H])c(Oc5c([H])c([H])c([H])c([H])c5[H])c([H])c4[H])c4c(N([H])[H])nc([H])nc43)C([H])([H])C2([H])[H])C([H])([H])C1([H])[H]


 41 46  0  0  0  0  0  0  0  0999 V2000
  -16.3626   13.0043  -21.7839 N   0  0  0  0  0  0  0  0  0  0  0  0
  -16.8602   12.1059  -20.8050 C   0  0  0  0  0  0  0  0  0  0  0  0
  -16.4200   10.8243  -20.7648 N   0  0  0  0  0  0  0  0  0  0  0  0
  -16.8973    9.9375  -19.8768 C   0  0  0  0  0  0  0  0  0  0  0  0
  -17.8376   10.2820  -18.9840 N   0  0  0  0  0  0  0  0  0  0  0  0
  -18.2926   11.5519  -19.0025 C   0  0  0  0  0  0  0  0  0  0  0  0
  -19.2318   12.1876  -18.2564 N   0  0  0  0  0  0  0  0  0  0  0  0
  -19.3537   13.4341  -18.6435 N   0  0  0  0  0  0  0  0  0  0  0  0
  -18.4934   13.6931  -19.6754 C   0  0  0  0  0  0  0  0  0  0  0  0
  -17.8297   12.5200  -19.9055 C   0  0  0  0  0  0  0  0  0  0  0  0
  -15.4111   13.4222  -21.7772 H   0  0  0  0  0  0  0  0  0  0  0  0
  -16.9970   13.2630  -22.5680 H   0  0  0  0  0  0  0  0  0  0  0  0
  -18.3599   14.9495  -20.3835 C   0  0  0  0  0  0  0  0  0  0  0  0
  -17.5698   16.0084  -19.9862 C   0  0  0  0  0  0  0  0  0  0  0  0
  -17.4474   17.1811  -20.7059 C   0  0  0  0  0  0  0  0  0  0  0  0
  -18.1277   17.3605  -21.8910 C   0  0  0  0  0  0  0  0  0  0  0  0
  -18.9236   16.3190  -22.3085 C   0  0  0  0  0  0  0  0  0  0  0  0
  -19.0466   15.1531  -21.5956 C   0  0  0  0  0  0  0  0  0  0  0  0
  -17.9756   18.5500  -22.5787 O   0  0  0  0  0  0  0  0  0  0  0  0
  -18.8409   19.5957  -22.5691 C   0  0  0  0  0  0  0  0  0  0  0  0
  -18.6843   20.6174  -21.6685 C   0  0  0  0  0  0  0  0  0  0  0  0
  -19.5319   21.7052  -21.6117 C   0  0  0  0  0  0  0  0  0  0  0  0
  -20.5746   21.7460  -22.5083 C   0  0  0  0  0  0  0  0  0  0  0  0
  -20.7617   20.7335  -23.4289 C   0  0  0  0  0  0  0  0  0  0  0  0
  -19.8834   19.6462  -23.4581 C   0  0  0  0  0  0  0  0  0  0  0  0
  -19.9805   11.5420  -17.1789 C   0  0  0  0  0  0  0  0  0  0  0  0
  -19.7860   12.3603  -15.9378 C   0  0  0  0  0  0  0  0  0  0  0  0
  -20.1442   11.6459  -14.6717 C   0  0  0  0  0  0  0  0  0  0  0  0
  -19.4021   10.3136  -14.6599 C   0  0  0  0  0  0  0  0  0  0  0  0
  -19.9901    9.4717  -15.7471 C   0  0  0  0  0  0  0  0  0  0  0  0
  -19.5705   10.1151  -17.0778 C   0  0  0  0  0  0  0  0  0  0  0  0
  -19.2926    9.7456  -13.3824 N   0  0  0  0  0  0  0  0  0  0  0  0
  -19.2777    8.3542  -13.3607 C   0  0  0  0  0  0  0  0  0  0  0  0
  -19.6236    7.6824  -12.0719 C   0  0  0  0  0  0  0  0  0  0  0  0
  -19.4489    8.5181  -10.9128 N   0  0  0  0  0  0  0  0  0  0  0  0
  -20.0001    9.8187  -11.0370 C   0  0  0  0  0  0  0  0  0  0  0  0
  -19.3504   10.5001  -12.2245 C   0  0  0  0  0  0  0  0  0  0  0  0
  -18.1078    8.4150  -10.4536 C   0  0  0  0  0  0  0  0  0  0  0  0
  -17.7504    9.3168   -9.3021 C   0  0  0  0  0  0  0  0  0  0  0  0
  -16.6473   10.0986   -9.7265 O   0  0  0  0  0  0  0  0  0  0  0  0
  -15.8236    9.8223   -9.2302 H   0  0  0  0  0  0  0  0  0  0  0  0
  1  2  1  0  0  0
  2  3  2  0  0  0
  3  4  1  0  0  0
  4  5  2  0  0  0
  5  6  1  0  0  0
  6  7  1  0  0  0
  7  8  1  0  0  0
  8  9  2  0  0  0
  9 13  1  0  0  0
 13 14  2  0  0  0
 14 15  1  0  0  0
 15 16  2  0  0  0
 16 19  1  0  0  0
 19 20  1  0  0  0
 20 21  2  0  0  0
 21 22  1  0  0  0
 22 23  2  0  0  0
 23 24  1  0  0  0
 24 25  2  0  0  0
 16 17  1  0  0  0
 17 18  2  0  0  0
  9 10  1  0  0  0
  7 26  1  0  0  0
 26 27  1  0  0  0
 27 28  1  0  0  0
 28 29  1  0  0  0
 29 30  1  0  0  0
 30 31  1  0  0  0
 29 32  1  0  0  0
 32 33  1  0  0  0
 33 34  1  0  0  0
 34 35  1  0  0  0
 35 38  1  0  0  0
 38 39  1  0  0  0
 39 40  1  0  0  0
 35 36  1  0  0  0
 36 37  1  0  0  0
 10  2  1  0  0  0
 31 26  1  0  0  0
 37 32  1  0  0  0
 10  6  2  0  0  0
 18 13  1  0  0  0
 25 20  1  0  0  0
  1 11  1  0  0  0
  1 12  1  0  0  0
 40 41  1  0  0  0
M  END
> <minimizedAffinity>
-8.01249

> <CNNscore>
0.3167132437

> <CNNaffinity>
7.0077185631

> <CNN_VS>
2.2194373608

> <CNNaffinity_variance>
0.2592532039

$$$$
[H]OC([H])([H])C([H])([H])N1C([H])([H])C([H])([H])N(C2([H])C([H])([H])C([H])([H])C([H])(n3nc(-c4c([H])c([H])c(Oc5c([H])c([H])c([H])c([H])c5[H])c([H])c4[H])c4c(N([H])[H])nc([H])nc43)C([H])([H])C2([H])[H])C([H])([H])C1([H])[H]


 41 46  0  0  0  0  0  0  0  0999 V2000
  -16.4781   13.0589  -22.7116 N   0  0  0  0  0  0  0  0  0  0  0  0
  -16.7127   12.2307  -21.5836 C   0  0  0  0  0  0  0  0  0  0  0  0
  -16.2962   10.9407  -21.5827 N   0  0  0  0  0  0  0  0  0  0  0  0
  -16.5350   10.1185  -20.5484 C   0  0  0  0  0  0  0  0  0  0  0  0
  -17.2014   10.5394  -19.4626 N   0  0  0  0  0  0  0  0  0  0  0  0
  -17.6267   11.8195  -19.4382 C   0  0  0  0  0  0  0  0  0  0  0  0
  -18.3265   12.5229  -18.5117 N   0  0  0  0  0  0  0  0  0  0  0  0
  -18.5281   13.7495  -18.9281 N   0  0  0  0  0  0  0  0  0  0  0  0
  -17.9669   13.9256  -20.1634 C   0  0  0  0  0  0  0  0  0  0  0  0
  -17.4045   12.7224  -20.4880 C   0  0  0  0  0  0  0  0  0  0  0  0
  -15.5526   13.4479  -22.9802 H   0  0  0  0  0  0  0  0  0  0  0  0
  -17.2931   13.2932  -23.3158 H   0  0  0  0  0  0  0  0  0  0  0  0
  -18.0068   15.1368  -20.9567 C   0  0  0  0  0  0  0  0  0  0  0  0
  -19.0802   15.5591  -21.7136 C   0  0  0  0  0  0  0  0  0  0  0  0
  -19.0889   16.7372  -22.4347 C   0  0  0  0  0  0  0  0  0  0  0  0
  -17.9952   17.5759  -22.4368 C   0  0  0  0  0  0  0  0  0  0  0  0
  -16.9109   17.1764  -21.6901 C   0  0  0  0  0  0  0  0  0  0  0  0
  -16.9000   16.0069  -20.9729 C   0  0  0  0  0  0  0  0  0  0  0  0
  -18.0475   18.7451  -23.1723 O   0  0  0  0  0  0  0  0  0  0  0  0
  -18.7334   19.8686  -22.8408 C   0  0  0  0  0  0  0  0  0  0  0  0
  -18.6613   20.3753  -21.5691 C   0  0  0  0  0  0  0  0  0  0  0  0
  -19.3358   21.5129  -21.1744 C   0  0  0  0  0  0  0  0  0  0  0  0
  -20.1100   22.1515  -22.1155 C   0  0  0  0  0  0  0  0  0  0  0  0
  -20.2051   21.6679  -23.4058 C   0  0  0  0  0  0  0  0  0  0  0  0
  -19.5078   20.5126  -23.7709 C   0  0  0  0  0  0  0  0  0  0  0  0
  -18.7736   11.9601  -17.2383 C   0  0  0  0  0  0  0  0  0  0  0  0
  -19.3107   10.5875  -17.5126 C   0  0  0  0  0  0  0  0  0  0  0  0
  -20.1612   10.0322  -16.4125 C   0  0  0  0  0  0  0  0  0  0  0  0
  -21.2342   11.0649  -16.0838 C   0  0  0  0  0  0  0  0  0  0  0  0
  -20.5422   12.2395  -15.4690 C   0  0  0  0  0  0  0  0  0  0  0  0
  -19.7233   12.9027  -16.5872 C   0  0  0  0  0  0  0  0  0  0  0  0
  -22.3371   10.5284  -15.4036 N   0  0  0  0  0  0  0  0  0  0  0  0
  -22.9430   11.3943  -14.4982 C   0  0  0  0  0  0  0  0  0  0  0  0
  -23.7942   10.7880  -13.4305 C   0  0  0  0  0  0  0  0  0  0  0  0
  -24.2790    9.4703  -13.7485 N   0  0  0  0  0  0  0  0  0  0  0  0
  -23.2917    8.5863  -14.2530 C   0  0  0  0  0  0  0  0  0  0  0  0
  -22.7008    9.1979  -15.5074 C   0  0  0  0  0  0  0  0  0  0  0  0
  -25.4966    9.5770  -14.4738 C   0  0  0  0  0  0  0  0  0  0  0  0
  -26.7239    9.0964  -13.7460 C   0  0  0  0  0  0  0  0  0  0  0  0
  -27.4165    8.2416  -14.6391 O   0  0  0  0  0  0  0  0  0  0  0  0
  -28.2664    8.6776  -14.9371 H   0  0  0  0  0  0  0  0  0  0  0  0
  1  2  1  0  0  0
  2  3  2  0  0  0
  3  4  1  0  0  0
  4  5  2  0  0  0
  5  6  1  0  0  0
  6  7  1  0  0  0
  7  8  1  0  0  0
  8  9  2  0  0  0
  9 13  1  0  0  0
 13 14  2  0  0  0
 14 15  1  0  0  0
 15 16  2  0  0  0
 16 19  1  0  0  0
 19 20  1  0  0  0
 20 21  2  0  0  0
 21 22  1  0  0  0
 22 23  2  0  0  0
 23 24  1  0  0  0
 24 25  2  0  0  0
 16 17  1  0  0  0
 17 18  2  0  0  0
  9 10  1  0  0  0
  7 26  1  0  0  0
 26 27  1  0  0  0
 27 28  1  0  0  0
 28 29  1  0  0  0
 29 30  1  0  0  0
 30 31  1  0  0  0
 29 32  1  0  0  0
 32 33  1  0  0  0
 33 34  1  0  0  0
 34 35  1  0  0  0
 35 38  1  0  0  0
 38 39  1  0  0  0
 39 40  1  0  0  0
 35 36  1  0  0  0
 36 37  1  0  0  0
 10  2  1  0  0  0
 31 26  1  0  0  0
 37 32  1  0  0  0
 10  6  2  0  0  0
 18 13  1  0  0  0
 25 20  1  0  0  0
  1 11  1  0  0  0
  1 12  1  0  0  0
 40 41  1  0  0  0
M  END
> <minimizedAffinity>
-7.93693

> <CNNscore>
0.3145347536

> <CNNaffinity>
7.0560441017

> <CNN_VS>
2.2193710804

> <CNNaffinity_variance>
0.3947897851

$$$$
[H]OC([H])([H])C([H])([H])N1C([H])([H])C([H])([H])N(C2([H])C([H])([H])C([H])([H])C([H])(n3nc(-c4c([H])c([H])c(Oc5c([H])c([H])c([H])c([H])c5[H])c([H])c4[H])c4c(N([H])[H])nc([H])nc43)C([H])([H])C2([H])[H])C([H])([H])C1([H])[H]


 41 46  0  0  0  0  0  0  0  0999 V2000
  -17.5557   13.1785  -21.3371 N   0  0  0  0  0  0  0  0  0  0  0  0
  -17.6016   12.1740  -20.3360 C   0  0  0  0  0  0  0  0  0  0  0  0
  -16.9180   11.0145  -20.4975 N   0  0  0  0  0  0  0  0  0  0  0  0
  -16.9698   10.0277  -19.5886 C   0  0  0  0  0  0  0  0  0  0  0  0
  -17.7055   10.1454  -18.4728 N   0  0  0  0  0  0  0  0  0  0  0  0
  -18.3953   11.2899  -18.2877 C   0  0  0  0  0  0  0  0  0  0  0  0
  -19.2251   11.6955  -17.2928 N   0  0  0  0  0  0  0  0  0  0  0  0
  -19.6872   12.8958  -17.5462 N   0  0  0  0  0  0  0  0  0  0  0  0
  -19.1830   13.3536  -18.7329 C   0  0  0  0  0  0  0  0  0  0  0  0
  -18.3772   12.3534  -19.2017 C   0  0  0  0  0  0  0  0  0  0  0  0
  -16.7365   13.7886  -21.5288 H   0  0  0  0  0  0  0  0  0  0  0  0
  -18.4049   13.3135  -21.9242 H   0  0  0  0  0  0  0  0  0  0  0  0
  -19.4857   14.6247  -19.3578 C   0  0  0  0  0  0  0  0  0  0  0  0
  -20.6222   14.9031  -20.0888 C   0  0  0  0  0  0  0  0  0  0  0  0
  -20.8876   16.1391  -20.6455 C   0  0  0  0  0  0  0  0  0  0  0  0
  -20.0062   17.1882  -20.4968 C   0  0  0  0  0  0  0  0  0  0  0  0
  -18.8641   16.9357  -19.7726 C   0  0  0  0  0  0  0  0  0  0  0  0
  -18.5985   15.7090  -19.2184 C   0  0  0  0  0  0  0  0  0  0  0  0
  -20.3120   18.4081  -21.0706 O   0  0  0  0  0  0  0  0  0  0  0  0
  -21.3093   18.6461  -21.9602 C   0  0  0  0  0  0  0  0  0  0  0  0
  -22.5126   19.1471  -21.5356 C   0  0  0  0  0  0  0  0  0  0  0  0
  -23.5620   19.4087  -22.3930 C   0  0  0  0  0  0  0  0  0  0  0  0
  -23.3706   19.1474  -23.7301 C   0  0  0  0  0  0  0  0  0  0  0  0
  -22.1709   18.6422  -24.1919 C   0  0  0  0  0  0  0  0  0  0  0  0
  -21.1290   18.3892  -23.2947 C   0  0  0  0  0  0  0  0  0  0  0  0
  -19.5347   10.8827  -16.1173 C   0  0  0  0  0  0  0  0  0  0  0  0
  -20.4576    9.7852  -16.5550 C   0  0  0  0  0  0  0  0  0  0  0  0
  -21.1809    9.1097  -15.4314 C   0  0  0  0  0  0  0  0  0  0  0  0
  -21.8548   10.1901  -14.5920 C   0  0  0  0  0  0  0  0  0  0  0  0
  -20.7684   10.9718  -13.9249 C   0  0  0  0  0  0  0  0  0  0  0  0
  -20.0501   11.7598  -15.0313 C   0  0  0  0  0  0  0  0  0  0  0  0
  -22.8969    9.7053  -13.7884 N   0  0  0  0  0  0  0  0  0  0  0  0
  -24.0347    9.3075  -14.4839 C   0  0  0  0  0  0  0  0  0  0  0  0
  -25.3148    9.2230  -13.7182 C   0  0  0  0  0  0  0  0  0  0  0  0
  -25.1364    9.0809  -12.2968 N   0  0  0  0  0  0  0  0  0  0  0  0
  -24.1974    9.9792  -11.7292 C   0  0  0  0  0  0  0  0  0  0  0  0
  -22.8595    9.7611  -12.4068 C   0  0  0  0  0  0  0  0  0  0  0  0
  -25.0055    7.7033  -11.9723 C   0  0  0  0  0  0  0  0  0  0  0  0
  -26.1668    7.1050  -11.2237 C   0  0  0  0  0  0  0  0  0  0  0  0
  -26.8133    6.2179  -12.1198 O   0  0  0  0  0  0  0  0  0  0  0  0
  -27.7047    6.5892  -12.3821 H   0  0  0  0  0  0  0  0  0  0  0  0
  1  2  1  0  0  0
  2  3  2  0  0  0
  3  4  1  0  0  0
  4  5  2  0  0  0
  5  6  1  0  0  0
  6  7  1  0  0  0
  7  8  1  0  0  0
  8  9  2  0  0  0
  9 13  1  0  0  0
 13 14  2  0  0  0
 14 15  1  0  0  0
 15 16  2  0  0  0
 16 19  1  0  0  0
 19 20  1  0  0  0
 20 21  2  0  0  0
 21 22  1  0  0  0
 22 23  2  0  0  0
 23 24  1  0  0  0
 24 25  2  0  0  0
 16 17  1  0  0  0
 17 18  2  0  0  0
  9 10  1  0  0  0
  7 26  1  0  0  0
 26 27  1  0  0  0
 27 28  1  0  0  0
 28 29  1  0  0  0
 29 30  1  0  0  0
 30 31  1  0  0  0
 29 32  1  0  0  0
 32 33  1  0  0  0
 33 34  1  0  0  0
 34 35  1  0  0  0
 35 38  1  0  0  0
 38 39  1  0  0  0
 39 40  1  0  0  0
 35 36  1  0  0  0
 36 37  1  0  0  0
 10  2  1  0  0  0
 31 26  1  0  0  0
 37 32  1  0  0  0
 10  6  2  0  0  0
 18 13  1  0  0  0
 25 20  1  0  0  0
  1 11  1  0  0  0
  1 12  1  0  0  0
 40 41  1  0  0  0
M  END
> <minimizedAffinity>
-6.83662

> <CNNscore>
0.2779807150

> <CNNaffinity>
6.7778215408

> <CNN_VS>
1.8841036558

> <CNNaffinity_variance>
0.3484457135

$$$$
[H]OC([H])([H])C([H])([H])N1C([H])([H])C([H])([H])N(C2([H])C([H])([H])C([H])([H])C([H])(n3nc(-c4c([H])c([H])c(Oc5c([H])c([H])c([H])c([H])c5[H])c([H])c4[H])c4c(N([H])[H])nc([H])nc43)C([H])([H])C2([H])[H])C([H])([H])C1([H])[H]


 41 46  0  0  0  0  0  0  0  0999 V2000
  -18.2002    9.3721  -17.5798 N   0  0  0  0  0  0  0  0  0  0  0  0
  -17.8516   10.3134  -18.5825 C   0  0  0  0  0  0  0  0  0  0  0  0
  -16.9948    9.9705  -19.5756 N   0  0  0  0  0  0  0  0  0  0  0  0
  -16.6137   10.8473  -20.5183 C   0  0  0  0  0  0  0  0  0  0  0  0
  -17.0663   12.1103  -20.5196 N   0  0  0  0  0  0  0  0  0  0  0  0
  -17.9207   12.4771  -19.5422 C   0  0  0  0  0  0  0  0  0  0  0  0
  -18.5267   13.6604  -19.2670 N   0  0  0  0  0  0  0  0  0  0  0  0
  -19.2712   13.5518  -18.1935 N   0  0  0  0  0  0  0  0  0  0  0  0
  -19.1981   12.2792  -17.6964 C   0  0  0  0  0  0  0  0  0  0  0  0
  -18.3538   11.6041  -18.5337 C   0  0  0  0  0  0  0  0  0  0  0  0
  -18.8288    8.5570  -17.7234 H   0  0  0  0  0  0  0  0  0  0  0  0
  -17.7952    9.5068  -16.6301 H   0  0  0  0  0  0  0  0  0  0  0  0
  -19.8602   11.7860  -16.5064 C   0  0  0  0  0  0  0  0  0  0  0  0
  -19.3402   11.8286  -15.2292 C   0  0  0  0  0  0  0  0  0  0  0  0
  -20.0168   11.3728  -14.1145 C   0  0  0  0  0  0  0  0  0  0  0  0
  -21.2813   10.8355  -14.2224 C   0  0  0  0  0  0  0  0  0  0  0  0
  -21.8217   10.7807  -15.4864 C   0  0  0  0  0  0  0  0  0  0  0  0
  -21.1519   11.2331  -16.5950 C   0  0  0  0  0  0  0  0  0  0  0  0
  -21.9217   10.3918  -13.0805 O   0  0  0  0  0  0  0  0  0  0  0  0
  -21.6526   10.7837  -11.8091 C   0  0  0  0  0  0  0  0  0  0  0  0
  -22.0265   12.0285  -11.3731 C   0  0  0  0  0  0  0  0  0  0  0  0
  -21.7800   12.4814  -10.0929 C   0  0  0  0  0  0  0  0  0  0  0  0
  -21.1283   11.6291   -9.2316 C   0  0  0  0  0  0  0  0  0  0  0  0
  -20.7375   10.3683   -9.6382 C   0  0  0  0  0  0  0  0  0  0  0  0
  -21.0037    9.9423  -10.9428 C   0  0  0  0  0  0  0  0  0  0  0  0
  -18.3525   14.8649  -20.0775 C   0  0  0  0  0  0  0  0  0  0  0  0
  -19.0860   15.9806  -19.3956 C   0  0  0  0  0  0  0  0  0  0  0  0
  -19.3456   17.1671  -20.2711 C   0  0  0  0  0  0  0  0  0  0  0  0
  -20.0182   16.6697  -21.5463 C   0  0  0  0  0  0  0  0  0  0  0  0
  -19.0042   15.8640  -22.2942 C   0  0  0  0  0  0  0  0  0  0  0  0
  -18.7702   14.5835  -21.4778 C   0  0  0  0  0  0  0  0  0  0  0  0
  -20.6989   17.6748  -22.2484 N   0  0  0  0  0  0  0  0  0  0  0  0
  -19.8991   18.4480  -23.0844 C   0  0  0  0  0  0  0  0  0  0  0  0
  -20.4244   19.7847  -23.4962 C   0  0  0  0  0  0  0  0  0  0  0  0
  -21.8554   19.9056  -23.3957 N   0  0  0  0  0  0  0  0  0  0  0  0
  -22.4009   19.4368  -22.1736 C   0  0  0  0  0  0  0  0  0  0  0  0
  -22.0285   17.9764  -22.0147 C   0  0  0  0  0  0  0  0  0  0  0  0
  -22.4542   19.4468  -24.6003 C   0  0  0  0  0  0  0  0  0  0  0  0
  -23.7591   20.1050  -24.9621 C   0  0  0  0  0  0  0  0  0  0  0  0
  -24.6650   19.0625  -25.2792 O   0  0  0  0  0  0  0  0  0  0  0  0
  -24.8620   19.0697  -26.2602 H   0  0  0  0  0  0  0  0  0  0  0  0
  1  2  1  0  0  0
  2  3  2  0  0  0
  3  4  1  0  0  0
  4  5  2  0  0  0
  5  6  1  0  0  0
  6  7  1  0  0  0
  7  8  1  0  0  0
  8  9  2  0  0  0
  9 13  1  0  0  0
 13 14  2  0  0  0
 14 15  1  0  0  0
 15 16  2  0  0  0
 16 19  1  0  0  0
 19 20  1  0  0  0
 20 21  2  0  0  0
 21 22  1  0  0  0
 22 23  2  0  0  0
 23 24  1  0  0  0
 24 25  2  0  0  0
 16 17  1  0  0  0
 17 18  2  0  0  0
  9 10  1  0  0  0
  7 26  1  0  0  0
 26 27  1  0  0  0
 27 28  1  0  0  0
 28 29  1  0  0  0
 29 30  1  0  0  0
 30 31  1  0  0  0
 29 32  1  0  0  0
 32 33  1  0  0  0
 33 34  1  0  0  0
 34 35  1  0  0  0
 35 38  1  0  0  0
 38 39  1  0  0  0
 39 40  1  0  0  0
 35 36  1  0  0  0
 36 37  1  0  0  0
 10  2  1  0  0  0
 31 26  1  0  0  0
 37 32  1  0  0  0
 10  6  2  0  0  0
 18 13  1  0  0  0
 25 20  1  0  0  0
  1 11  1  0  0  0
  1 12  1  0  0  0
 40 41  1  0  0  0
M  END
> <minimizedAffinity>
-7.95198

> <CNNscore>
0.2478355765

> <CNNaffinity>
6.8680076599

> <CNN_VS>
1.7021366358

> <CNNaffinity_variance>
0.3042253554

$$$$
[H]c1c([H])c(C(=O)N([H])[H])c([H])c(N([H])C(=O)c2c([H])c([H])c3nc(N([H])c4c(Cl)c([H])c([H])c([H])c4C([H])([H])[H])sc3c2[H])c1[H]


 34 37  0  0  0  0  0  0  0  0999 V2000
  -16.3059   12.3127  -22.8348 C   0  0  0  0  0  0  0  0  0  0  0  0
  -16.1184   11.4615  -21.8525 N   0  0  0  0  0  0  0  0  0  0  0  0
  -16.8948   11.4969  -20.7985 C   0  0  0  0  0  0  0  0  0  0  0  0
  -16.8051   10.6458  -19.6769 C   0  0  0  0  0  0  0  0  0  0  0  0
  -17.6891   10.8034  -18.6489 C   0  0  0  0  0  0  0  0  0  0  0  0
  -18.6781   11.7308  -18.6015 C   0  0  0  0  0  0  0  0  0  0  0  0
  -18.7757   12.5730  -19.6985 C   0  0  0  0  0  0  0  0  0  0  0  0
  -17.8843   12.4401  -20.7733 C   0  0  0  0  0  0  0  0  0  0  0  0
  -17.6349   13.2248  -22.2804 S   0  0  0  0  0  0  0  0  0  0  0  0
  -19.6406   11.9089  -17.5077 C   0  0  0  0  0  0  0  0  0  0  0  0
  -20.1226   13.0594  -17.3586 O   0  0  0  0  0  0  0  0  0  0  0  0
  -19.9934   10.8499  -16.6852 N   0  0  0  0  0  0  0  0  0  0  0  0
  -19.5387    9.9044  -16.8913 H   0  0  0  0  0  0  0  0  0  0  0  0
  -20.8928   10.8873  -15.6003 C   0  0  0  0  0  0  0  0  0  0  0  0
  -20.6539   11.4865  -14.3946 C   0  0  0  0  0  0  0  0  0  0  0  0
  -21.6009   11.5080  -13.3604 C   0  0  0  0  0  0  0  0  0  0  0  0
  -22.8045   10.8983  -13.5887 C   0  0  0  0  0  0  0  0  0  0  0  0
  -23.0984   10.2772  -14.7883 C   0  0  0  0  0  0  0  0  0  0  0  0
  -22.1612   10.2750  -15.7665 C   0  0  0  0  0  0  0  0  0  0  0  0
  -24.3991    9.6419  -14.9769 C   0  0  0  0  0  0  0  0  0  0  0  0
  -25.4128   10.3777  -15.6328 N   0  0  0  0  0  0  0  0  0  0  0  0
  -24.6194    8.4748  -14.5705 O   0  0  0  0  0  0  0  0  0  0  0  0
  -25.6392   10.1667  -16.6216 H   0  0  0  0  0  0  0  0  0  0  0  0
  -25.9155   11.1121  -15.1290 H   0  0  0  0  0  0  0  0  0  0  0  0
  -15.6179   12.4871  -24.0709 N   0  0  0  0  0  0  0  0  0  0  0  0
  -14.9516   11.7313  -24.4132 H   0  0  0  0  0  0  0  0  0  0  0  0
  -17.5783   12.4643  -26.0574 C   0  0  0  0  0  0  0  0  0  0  0  0
  -16.7196   13.6352  -25.8672 C   0  0  0  0  0  0  0  0  0  0  0  0
  -16.8923   14.7496  -26.6959 C   0  0  0  0  0  0  0  0  0  0  0  0
  -16.0904   15.8426  -26.5179 C   0  0  0  0  0  0  0  0  0  0  0  0
  -15.1291   15.8518  -25.5426 C   0  0  0  0  0  0  0  0  0  0  0  0
  -14.9743   14.7303  -24.7281 C   0  0  0  0  0  0  0  0  0  0  0  0
  -13.7580   14.7372  -23.4914 Cl  0  0  0  0  0  0  0  0  0  0  0  0
  -15.7658   13.6142  -24.8819 C   0  0  0  0  0  0  0  0  0  0  0  0
 27 28  1  0  0  0
 28 29  2  0  0  0
 29 30  1  0  0  0
 30 31  2  0  0  0
 31 32  1  0  0  0
 32 33  1  0  0  0
 32 34  2  0  0  0
 34 25  1  0  0  0
 25  1  1  0  0  0
  1  2  2  0  0  0
  2  3  1  0  0  0
  3  4  2  0  0  0
  4  5  1  0  0  0
  5  6  2  0  0  0
  6  7  1  0  0  0
  7  8  2  0  0  0
  8  9  1  0  0  0
  6 10  1  0  0  0
 10 11  2  0  0  0
 10 12  1  0  0  0
 12 14  1  0  0  0
 14 15  2  0  0  0
 15 16  1  0  0  0
 16 17  2  0  0  0
 17 18  1  0  0  0
 18 19  2  0  0  0
 18 20  1  0  0  0
 20 21  1  0  0  0
 20 22  2  0  0  0
 34 28  1  0  0  0
  9  1  1  0  0  0
 19 14  1  0  0  0
  8  3  1  0  0  0
 25 26  1  0  0  0
 12 13  1  0  0  0
 21 23  1  0  0  0
 21 24  1  0  0  0
M  END
> <minimizedAffinity>
-9.09524

> <CNNscore>
0.6357903481

> <CNNaffinity>
6.8981904984

> <CNN_VS>
4.3858027458

> <CNNaffinity_variance>
0.2387881577

$$$$
[H]c1c([H])c(C(=O)N([H])[H])c([H])c(N([H])C(=O)c2c([H])c([H])c3nc(N([H])c4c(Cl)c([H])c([H])c([H])c4C([H])([H])[H])sc3c2[H])c1[H]


 34 37  0  0  0  0  0  0  0  0999 V2000
  -16.5348   12.5768  -22.7571 C   0  0  0  0  0  0  0  0  0  0  0  0
  -17.4842   13.3804  -22.3358 N   0  0  0  0  0  0  0  0  0  0  0  0
  -18.0487   13.1733  -21.1724 C   0  0  0  0  0  0  0  0  0  0  0  0
  -19.0749   13.9548  -20.6009 C   0  0  0  0  0  0  0  0  0  0  0  0
  -19.5665   13.6142  -19.3739 C   0  0  0  0  0  0  0  0  0  0  0  0
  -19.1486   12.5614  -18.6273 C   0  0  0  0  0  0  0  0  0  0  0  0
  -18.1403   11.7861  -19.1792 C   0  0  0  0  0  0  0  0  0  0  0  0
  -17.6110   12.1063  -20.4380 C   0  0  0  0  0  0  0  0  0  0  0  0
  -16.4040   11.4609  -21.4752 S   0  0  0  0  0  0  0  0  0  0  0  0
  -19.6614   12.1858  -17.3043 C   0  0  0  0  0  0  0  0  0  0  0  0
  -19.3466   12.9300  -16.3423 O   0  0  0  0  0  0  0  0  0  0  0  0
  -20.4549   11.0611  -17.1369 N   0  0  0  0  0  0  0  0  0  0  0  0
  -20.6782   10.4914  -18.0136 H   0  0  0  0  0  0  0  0  0  0  0  0
  -21.0016   10.5865  -15.9274 C   0  0  0  0  0  0  0  0  0  0  0  0
  -22.1618   11.0300  -15.3555 C   0  0  0  0  0  0  0  0  0  0  0  0
  -22.6652   10.5002  -14.1585 C   0  0  0  0  0  0  0  0  0  0  0  0
  -21.9501    9.5011  -13.5560 C   0  0  0  0  0  0  0  0  0  0  0  0
  -20.7711    9.0156  -14.0901 C   0  0  0  0  0  0  0  0  0  0  0  0
  -20.3130    9.5494  -15.2479 C   0  0  0  0  0  0  0  0  0  0  0  0
  -20.0490    7.9483  -13.4041 C   0  0  0  0  0  0  0  0  0  0  0  0
  -18.6386    8.0276  -13.3445 N   0  0  0  0  0  0  0  0  0  0  0  0
  -20.6565    6.9833  -12.8793 O   0  0  0  0  0  0  0  0  0  0  0  0
  -18.1801    8.3269  -12.4649 H   0  0  0  0  0  0  0  0  0  0  0  0
  -18.0803    7.7897  -14.1677 H   0  0  0  0  0  0  0  0  0  0  0  0
  -15.7694   12.5762  -23.9595 N   0  0  0  0  0  0  0  0  0  0  0  0
  -15.1153   11.7626  -24.1662 H   0  0  0  0  0  0  0  0  0  0  0  0
  -13.9455   14.6802  -23.7707 C   0  0  0  0  0  0  0  0  0  0  0  0
  -14.9423   14.6483  -24.8430 C   0  0  0  0  0  0  0  0  0  0  0  0
  -14.9720   15.6892  -25.7781 C   0  0  0  0  0  0  0  0  0  0  0  0
  -15.9029   15.6588  -26.7790 C   0  0  0  0  0  0  0  0  0  0  0  0
  -16.7969   14.6255  -26.8699 C   0  0  0  0  0  0  0  0  0  0  0  0
  -16.7494   13.5987  -25.9272 C   0  0  0  0  0  0  0  0  0  0  0  0
  -17.8799   12.2877  -26.0382 Cl  0  0  0  0  0  0  0  0  0  0  0  0
  -15.8243   13.5999  -24.9075 C   0  0  0  0  0  0  0  0  0  0  0  0
 27 28  1  0  0  0
 28 29  2  0  0  0
 29 30  1  0  0  0
 30 31  2  0  0  0
 31 32  1  0  0  0
 32 33  1  0  0  0
 32 34  2  0  0  0
 34 25  1  0  0  0
 25  1  1  0  0  0
  1  2  2  0  0  0
  2  3  1  0  0  0
  3  4  2  0  0  0
  4  5  1  0  0  0
  5  6  2  0  0  0
  6  7  1  0  0  0
  7  8  2  0  0  0
  8  9  1  0  0  0
  6 10  1  0  0  0
 10 11  2  0  0  0
 10 12  1  0  0  0
 12 14  1  0  0  0
 14 15  2  0  0  0
 15 16  1  0  0  0
 16 17  2  0  0  0
 17 18  1  0  0  0
 18 19  2  0  0  0
 18 20  1  0  0  0
 20 21  1  0  0  0
 20 22  2  0  0  0
 34 28  1  0  0  0
  9  1  1  0  0  0
 19 14  1  0  0  0
  8  3  1  0  0  0
 25 26  1  0  0  0
 12 13  1  0  0  0
 21 23  1  0  0  0
 21 24  1  0  0  0
M  END
> <minimizedAffinity>
-8.83175

> <CNNscore>
0.4468052685

> <CNNaffinity>
6.9116411209

> <CNN_VS>
3.0881576538

> <CNNaffinity_variance>
0.4618248343

$$$$
[H]c1c([H])c(C(=O)N([H])[H])c([H])c(N([H])C(=O)c2c([H])c([H])c3nc(N([H])c4c(Cl)c([H])c([H])c([H])c4C([H])([H])[H])sc3c2[H])c1[H]


 34 37  0  0  0  0  0  0  0  0999 V2000
  -16.3223   12.4507  -22.7742 C   0  0  0  0  0  0  0  0  0  0  0  0
  -16.4135   11.4797  -21.8947 N   0  0  0  0  0  0  0  0  0  0  0  0
  -17.0102   11.6892  -20.7480 C   0  0  0  0  0  0  0  0  0  0  0  0
  -17.1778   10.7398  -19.7179 C   0  0  0  0  0  0  0  0  0  0  0  0
  -17.8246   11.1064  -18.5731 C   0  0  0  0  0  0  0  0  0  0  0  0
  -18.3384   12.3369  -18.3235 C   0  0  0  0  0  0  0  0  0  0  0  0
  -18.1794   13.2782  -19.3289 C   0  0  0  0  0  0  0  0  0  0  0  0
  -17.5200   12.9370  -20.5189 C   0  0  0  0  0  0  0  0  0  0  0  0
  -17.1060   13.7392  -21.9798 S   0  0  0  0  0  0  0  0  0  0  0  0
  -19.0422   12.7450  -17.1017 C   0  0  0  0  0  0  0  0  0  0  0  0
  -18.7301   13.8597  -16.6135 O   0  0  0  0  0  0  0  0  0  0  0  0
  -20.0039   11.9305  -16.5236 N   0  0  0  0  0  0  0  0  0  0  0  0
  -20.2101   11.0026  -17.0130 H   0  0  0  0  0  0  0  0  0  0  0  0
  -20.7429   12.1974  -15.3532 C   0  0  0  0  0  0  0  0  0  0  0  0
  -21.7479   13.1184  -15.2446 C   0  0  0  0  0  0  0  0  0  0  0  0
  -22.4615   13.3216  -14.0546 C   0  0  0  0  0  0  0  0  0  0  0  0
  -22.1214   12.5572  -12.9717 C   0  0  0  0  0  0  0  0  0  0  0  0
  -21.1137   11.6124  -13.0259 C   0  0  0  0  0  0  0  0  0  0  0  0
  -20.4442   11.4413  -14.1911 C   0  0  0  0  0  0  0  0  0  0  0  0
  -20.7927   10.8251  -11.8392 C   0  0  0  0  0  0  0  0  0  0  0  0
  -21.8599   10.3698  -11.0312 N   0  0  0  0  0  0  0  0  0  0  0  0
  -19.6043   10.5555  -11.5378 O   0  0  0  0  0  0  0  0  0  0  0  0
  -22.1587    9.3795  -11.0892 H   0  0  0  0  0  0  0  0  0  0  0  0
  -22.3297   11.0189  -10.3956 H   0  0  0  0  0  0  0  0  0  0  0  0
  -15.7360   12.4899  -24.0728 N   0  0  0  0  0  0  0  0  0  0  0  0
  -15.1748   11.6559  -24.4219 H   0  0  0  0  0  0  0  0  0  0  0  0
  -17.6986   12.4236  -26.0562 C   0  0  0  0  0  0  0  0  0  0  0  0
  -16.8079   13.5784  -25.9234 C   0  0  0  0  0  0  0  0  0  0  0  0
  -16.9509   14.6552  -26.8059 C   0  0  0  0  0  0  0  0  0  0  0  0
  -16.1191   15.7332  -26.6814 C   0  0  0  0  0  0  0  0  0  0  0  0
  -15.1568   15.7637  -25.7076 C   0  0  0  0  0  0  0  0  0  0  0  0
  -15.0319   14.6797  -24.8390 C   0  0  0  0  0  0  0  0  0  0  0  0
  -13.8145   14.7137  -23.6039 Cl  0  0  0  0  0  0  0  0  0  0  0  0
  -15.8539   13.5795  -24.9381 C   0  0  0  0  0  0  0  0  0  0  0  0
 27 28  1  0  0  0
 28 29  2  0  0  0
 29 30  1  0  0  0
 30 31  2  0  0  0
 31 32  1  0  0  0
 32 33  1  0  0  0
 32 34  2  0  0  0
 34 25  1  0  0  0
 25  1  1  0  0  0
  1  2  2  0  0  0
  2  3  1  0  0  0
  3  4  2  0  0  0
  4  5  1  0  0  0
  5  6  2  0  0  0
  6  7  1  0  0  0
  7  8  2  0  0  0
  8  9  1  0  0  0
  6 10  1  0  0  0
 10 11  2  0  0  0
 10 12  1  0  0  0
 12 14  1  0  0  0
 14 15  2  0  0  0
 15 16  1  0  0  0
 16 17  2  0  0  0
 17 18  1  0  0  0
 18 19  2  0  0  0
 18 20  1  0  0  0
 20 21  1  0  0  0
 20 22  2  0  0  0
 34 28  1  0  0  0
  9  1  1  0  0  0
 19 14  1  0  0  0
  8  3  1  0  0  0
 25 26  1  0  0  0
 12 13  1  0  0  0
 21 23  1  0  0  0
 21 24  1  0  0  0
M  END
> <minimizedAffinity>
-8.81073

> <CNNscore>
0.4357216358

> <CNNaffinity>
6.7413887978

> <CNN_VS>
2.9373688698

> <CNNaffinity_variance>
0.5128770471

$$$$
[H]c1c([H])c(C(=O)N([H])[H])c([H])c(N([H])C(=O)c2c([H])c([H])c3nc(N([H])c4c(Cl)c([H])c([H])c([H])c4C([H])([H])[H])sc3c2[H])c1[H]


 34 37  0  0  0  0  0  0  0  0999 V2000
  -16.7394   12.8477  -22.8021 C   0  0  0  0  0  0  0  0  0  0  0  0
  -17.5888   13.7845  -22.4476 N   0  0  0  0  0  0  0  0  0  0  0  0
  -18.2763   13.6597  -21.3400 C   0  0  0  0  0  0  0  0  0  0  0  0
  -19.2176   14.5855  -20.8428 C   0  0  0  0  0  0  0  0  0  0  0  0
  -19.8591   14.3172  -19.6682 C   0  0  0  0  0  0  0  0  0  0  0  0
  -19.6715   13.2089  -18.9086 C   0  0  0  0  0  0  0  0  0  0  0  0
  -18.7486   12.2919  -19.3876 C   0  0  0  0  0  0  0  0  0  0  0  0
  -18.0704   12.5344  -20.5912 C   0  0  0  0  0  0  0  0  0  0  0  0
  -16.8903   11.7180  -21.5346 S   0  0  0  0  0  0  0  0  0  0  0  0
  -20.3475   12.9088  -17.6407 C   0  0  0  0  0  0  0  0  0  0  0  0
  -21.0146   13.8376  -17.1205 O   0  0  0  0  0  0  0  0  0  0  0  0
  -20.2473   11.6560  -17.0552 N   0  0  0  0  0  0  0  0  0  0  0  0
  -19.6646   10.9246  -17.5733 H   0  0  0  0  0  0  0  0  0  0  0  0
  -20.8355   11.2417  -15.8429 C   0  0  0  0  0  0  0  0  0  0  0  0
  -20.3341   11.4889  -14.5949 C   0  0  0  0  0  0  0  0  0  0  0  0
  -20.9801   11.0674  -13.4237 C   0  0  0  0  0  0  0  0  0  0  0  0
  -22.1572   10.3828  -13.5589 C   0  0  0  0  0  0  0  0  0  0  0  0
  -22.7086   10.1052  -14.7958 C   0  0  0  0  0  0  0  0  0  0  0  0
  -22.0588   10.5269  -15.9072 C   0  0  0  0  0  0  0  0  0  0  0  0
  -23.9671    9.3705  -14.8809 C   0  0  0  0  0  0  0  0  0  0  0  0
  -24.9386    9.8153  -15.8069 N   0  0  0  0  0  0  0  0  0  0  0  0
  -24.1883    8.3704  -14.1551 O   0  0  0  0  0  0  0  0  0  0  0  0
  -25.0679    9.3029  -16.6980 H   0  0  0  0  0  0  0  0  0  0  0  0
  -25.5068   10.6381  -15.5924 H   0  0  0  0  0  0  0  0  0  0  0  0
  -15.8822   12.7369  -23.9355 N   0  0  0  0  0  0  0  0  0  0  0  0
  -15.1948   11.9270  -23.9977 H   0  0  0  0  0  0  0  0  0  0  0  0
  -14.0092   14.8061  -23.9391 C   0  0  0  0  0  0  0  0  0  0  0  0
  -14.9796   14.6735  -25.0278 C   0  0  0  0  0  0  0  0  0  0  0  0
  -14.9588   15.5998  -26.0766 C   0  0  0  0  0  0  0  0  0  0  0  0
  -15.8650   15.4756  -27.0929 C   0  0  0  0  0  0  0  0  0  0  0  0
  -16.7832   14.4596  -27.0892 C   0  0  0  0  0  0  0  0  0  0  0  0
  -16.7859   13.5477  -26.0340 C   0  0  0  0  0  0  0  0  0  0  0  0
  -17.9471   12.2591  -26.0249 Cl  0  0  0  0  0  0  0  0  0  0  0  0
  -15.8867   13.6454  -24.9958 C   0  0  0  0  0  0  0  0  0  0  0  0
 27 28  1  0  0  0
 28 29  2  0  0  0
 29 30  1  0  0  0
 30 31  2  0  0  0
 31 32  1  0  0  0
 32 33  1  0  0  0
 32 34  2  0  0  0
 34 25  1  0  0  0
 25  1  1  0  0  0
  1  2  2  0  0  0
  2  3  1  0  0  0
  3  4  2  0  0  0
  4  5  1  0  0  0
  5  6  2  0  0  0
  6  7  1  0  0  0
  7  8  2  0  0  0
  8  9  1  0  0  0
  6 10  1  0  0  0
 10 11  2  0  0  0
 10 12  1  0  0  0
 12 14  1  0  0  0
 14 15  2  0  0  0
 15 16  1  0  0  0
 16 17  2  0  0  0
 17 18  1  0  0  0
 18 19  2  0  0  0
 18 20  1  0  0  0
 20 21  1  0  0  0
 20 22  2  0  0  0
 34 28  1  0  0  0
  9  1  1  0  0  0
 19 14  1  0  0  0
  8  3  1  0  0  0
 25 26  1  0  0  0
 12 13  1  0  0  0
 21 23  1  0  0  0
 21 24  1  0  0  0
M  END
> <minimizedAffinity>
-9.27799

> <CNNscore>
0.4165774882

> <CNNaffinity>
6.7752289772

> <CNN_VS>
2.8224079609

> <CNNaffinity_variance>
0.2983382344

$$$$
[H]c1c([H])c(C(=O)N([H])[H])c([H])c(N([H])C(=O)c2c([H])c([H])c3nc(N([H])c4c(Cl)c([H])c([H])c([H])c4C([H])([H])[H])sc3c2[H])c1[H]


 34 37  0  0  0  0  0  0  0  0999 V2000
  -16.6397   12.8833  -22.8790 C   0  0  0  0  0  0  0  0  0  0  0  0
  -16.7874   12.1024  -21.8335 N   0  0  0  0  0  0  0  0  0  0  0  0
  -17.5415   12.4835  -20.8331 C   0  0  0  0  0  0  0  0  0  0  0  0
  -17.7859   11.7470  -19.6549 C   0  0  0  0  0  0  0  0  0  0  0  0
  -18.5988   12.2769  -18.6948 C   0  0  0  0  0  0  0  0  0  0  0  0
  -19.2141   13.4837  -18.7682 C   0  0  0  0  0  0  0  0  0  0  0  0
  -18.9810   14.2165  -19.9218 C   0  0  0  0  0  0  0  0  0  0  0  0
  -18.1512   13.7035  -20.9296 C   0  0  0  0  0  0  0  0  0  0  0  0
  -17.5973   14.2319  -22.4669 S   0  0  0  0  0  0  0  0  0  0  0  0
  -20.0961   14.0646  -17.7487 C   0  0  0  0  0  0  0  0  0  0  0  0
  -20.6996   13.2596  -16.9963 O   0  0  0  0  0  0  0  0  0  0  0  0
  -20.2473   15.4378  -17.6314 N   0  0  0  0  0  0  0  0  0  0  0  0
  -19.6881   16.0462  -18.3098 H   0  0  0  0  0  0  0  0  0  0  0  0
  -21.0641   16.1209  -16.7076 C   0  0  0  0  0  0  0  0  0  0  0  0
  -22.4283   16.0455  -16.6504 C   0  0  0  0  0  0  0  0  0  0  0  0
  -23.1838   16.7346  -15.6907 C   0  0  0  0  0  0  0  0  0  0  0  0
  -22.5083   17.5075  -14.7859 C   0  0  0  0  0  0  0  0  0  0  0  0
  -21.1305   17.6200  -14.7985 C   0  0  0  0  0  0  0  0  0  0  0  0
  -20.4309   16.9409  -15.7390 C   0  0  0  0  0  0  0  0  0  0  0  0
  -20.4619   18.4596  -13.8090 C   0  0  0  0  0  0  0  0  0  0  0  0
  -21.0927   19.6635  -13.4192 N   0  0  0  0  0  0  0  0  0  0  0  0
  -19.3571   18.1288  -13.3133 O   0  0  0  0  0  0  0  0  0  0  0  0
  -21.5828   19.7120  -12.5077 H   0  0  0  0  0  0  0  0  0  0  0  0
  -21.0617   20.4775  -14.0375 H   0  0  0  0  0  0  0  0  0  0  0  0
  -15.8908   12.7138  -24.0799 N   0  0  0  0  0  0  0  0  0  0  0  0
  -15.2888   11.8454  -24.2061 H   0  0  0  0  0  0  0  0  0  0  0  0
  -14.0688   14.8271  -24.0174 C   0  0  0  0  0  0  0  0  0  0  0  0
  -15.0141   14.6870  -25.1270 C   0  0  0  0  0  0  0  0  0  0  0  0
  -14.9953   15.6285  -26.1623 C   0  0  0  0  0  0  0  0  0  0  0  0
  -15.8780   15.4971  -27.1981 C   0  0  0  0  0  0  0  0  0  0  0  0
  -16.7712   14.4595  -27.2268 C   0  0  0  0  0  0  0  0  0  0  0  0
  -16.7725   13.5327  -26.1846 C   0  0  0  0  0  0  0  0  0  0  0  0
  -17.9021   12.2167  -26.2166 Cl  0  0  0  0  0  0  0  0  0  0  0  0
  -15.8965   13.6370  -25.1274 C   0  0  0  0  0  0  0  0  0  0  0  0
 27 28  1  0  0  0
 28 29  2  0  0  0
 29 30  1  0  0  0
 30 31  2  0  0  0
 31 32  1  0  0  0
 32 33  1  0  0  0
 32 34  2  0  0  0
 34 25  1  0  0  0
 25  1  1  0  0  0
  1  2  2  0  0  0
  2  3  1  0  0  0
  3  4  2  0  0  0
  4  5  1  0  0  0
  5  6  2  0  0  0
  6  7  1  0  0  0
  7  8  2  0  0  0
  8  9  1  0  0  0
  6 10  1  0  0  0
 10 11  2  0  0  0
 10 12  1  0  0  0
 12 14  1  0  0  0
 14 15  2  0  0  0
 15 16  1  0  0  0
 16 17  2  0  0  0
 17 18  1  0  0  0
 18 19  2  0  0  0
 18 20  1  0  0  0
 20 21  1  0  0  0
 20 22  2  0  0  0
 34 28  1  0  0  0
  9  1  1  0  0  0
 19 14  1  0  0  0
  8  3  1  0  0  0
 25 26  1  0  0  0
 12 13  1  0  0  0
 21 23  1  0  0  0
 21 24  1  0  0  0
M  END
> <minimizedAffinity>
-8.78090

> <CNNscore>
0.4144576192

> <CNNaffinity>
6.8740491867

> <CNN_VS>
2.8490021229

> <CNNaffinity_variance>
0.6162757277

$$$$
[H]c1c([H])c(C(=O)N([H])[H])c([H])c(N([H])C(=O)c2c([H])c([H])c3nc(N([H])c4c(Cl)c([H])c([H])c([H])c4C([H])([H])[H])sc3c2[H])c1[H]


 34 37  0  0  0  0  0  0  0  0999 V2000
  -16.6500   12.6257  -22.8379 C   0  0  0  0  0  0  0  0  0  0  0  0
  -17.5422   13.4955  -22.4231 N   0  0  0  0  0  0  0  0  0  0  0  0
  -18.1442   13.3181  -21.2738 C   0  0  0  0  0  0  0  0  0  0  0  0
  -19.1177   14.1699  -20.7106 C   0  0  0  0  0  0  0  0  0  0  0  0
  -19.6588   13.8529  -19.4981 C   0  0  0  0  0  0  0  0  0  0  0  0
  -19.3391   12.7611  -18.7591 C   0  0  0  0  0  0  0  0  0  0  0  0
  -18.3834   11.9167  -19.3029 C   0  0  0  0  0  0  0  0  0  0  0  0
  -17.8058   12.2108  -20.5467 C   0  0  0  0  0  0  0  0  0  0  0  0
  -16.6321   11.4865  -21.5701 S   0  0  0  0  0  0  0  0  0  0  0  0
  -19.9060   12.4097  -17.4515 C   0  0  0  0  0  0  0  0  0  0  0  0
  -20.1716   13.3608  -16.6749 O   0  0  0  0  0  0  0  0  0  0  0  0
  -20.1333   11.0873  -17.1020 N   0  0  0  0  0  0  0  0  0  0  0  0
  -19.8842   10.3445  -17.8295 H   0  0  0  0  0  0  0  0  0  0  0  0
  -20.6611   10.6155  -15.8829 C   0  0  0  0  0  0  0  0  0  0  0  0
  -21.9901   10.4490  -15.6076 C   0  0  0  0  0  0  0  0  0  0  0  0
  -22.4513    9.9534  -14.3794 C   0  0  0  0  0  0  0  0  0  0  0  0
  -21.5166    9.6308  -13.4335 C   0  0  0  0  0  0  0  0  0  0  0  0
  -20.1608    9.7798  -13.6586 C   0  0  0  0  0  0  0  0  0  0  0  0
  -19.7492   10.2611  -14.8561 C   0  0  0  0  0  0  0  0  0  0  0  0
  -19.2078    9.4200  -12.6130 C   0  0  0  0  0  0  0  0  0  0  0  0
  -18.8343   10.4137  -11.6792 N   0  0  0  0  0  0  0  0  0  0  0  0
  -18.7285    8.2621  -12.5384 O   0  0  0  0  0  0  0  0  0  0  0  0
  -19.2404   10.3983  -10.7261 H   0  0  0  0  0  0  0  0  0  0  0  0
  -18.1671   11.1403  -11.9489 H   0  0  0  0  0  0  0  0  0  0  0  0
  -15.8631   12.5808  -24.0255 N   0  0  0  0  0  0  0  0  0  0  0  0
  -15.2216   11.7499  -24.2003 H   0  0  0  0  0  0  0  0  0  0  0  0
  -17.6957   12.3851  -26.1214 C   0  0  0  0  0  0  0  0  0  0  0  0
  -16.7686   13.5157  -26.0416 C   0  0  0  0  0  0  0  0  0  0  0  0
  -16.8103   14.5034  -27.0323 C   0  0  0  0  0  0  0  0  0  0  0  0
  -15.9444   15.5589  -26.9572 C   0  0  0  0  0  0  0  0  0  0  0  0
  -15.0460   15.6530  -25.9280 C   0  0  0  0  0  0  0  0  0  0  0  0
  -15.0217   14.6574  -24.9517 C   0  0  0  0  0  0  0  0  0  0  0  0
  -13.8855   14.7724  -23.6461 Cl  0  0  0  0  0  0  0  0  0  0  0  0
  -15.8803   13.5821  -24.9987 C   0  0  0  0  0  0  0  0  0  0  0  0
 27 28  1  0  0  0
 28 29  2  0  0  0
 29 30  1  0  0  0
 30 31  2  0  0  0
 31 32  1  0  0  0
 32 33  1  0  0  0
 32 34  2  0  0  0
 34 25  1  0  0  0
 25  1  1  0  0  0
  1  2  2  0  0  0
  2  3  1  0  0  0
  3  4  2  0  0  0
  4  5  1  0  0  0
  5  6  2  0  0  0
  6  7  1  0  0  0
  7  8  2  0  0  0
  8  9  1  0  0  0
  6 10  1  0  0  0
 10 11  2  0  0  0
 10 12  1  0  0  0
 12 14  1  0  0  0
 14 15  2  0  0  0
 15 16  1  0  0  0
 16 17  2  0  0  0
 17 18  1  0  0  0
 18 19  2  0  0  0
 18 20  1  0  0  0
 20 21  1  0  0  0
 20 22  2  0  0  0
 34 28  1  0  0  0
  9  1  1  0  0  0
 19 14  1  0  0  0
  8  3  1  0  0  0
 25 26  1  0  0  0
 12 13  1  0  0  0
 21 23  1  0  0  0
 21 24  1  0  0  0
M  END
> <minimizedAffinity>
-9.14828

> <CNNscore>
0.4090025425

> <CNNaffinity>
6.8628754616

> <CNN_VS>
2.8069334030

> <CNNaffinity_variance>
0.5100269318

$$$$
[H]c1c([H])c(C(=O)N([H])[H])c([H])c(N([H])C(=O)c2c([H])c([H])c3nc(N([H])c4c(Cl)c([H])c([H])c([H])c4C([H])([H])[H])sc3c2[H])c1[H]


 34 37  0  0  0  0  0  0  0  0999 V2000
  -16.6988   12.8155  -22.7064 C   0  0  0  0  0  0  0  0  0  0  0  0
  -17.4321   13.8078  -22.2567 N   0  0  0  0  0  0  0  0  0  0  0  0
  -18.1455   13.6541  -21.1694 C   0  0  0  0  0  0  0  0  0  0  0  0
  -18.9735   14.6321  -20.5790 C   0  0  0  0  0  0  0  0  0  0  0  0
  -19.6598   14.3241  -19.4399 C   0  0  0  0  0  0  0  0  0  0  0  0
  -19.6202   13.1282  -18.8007 C   0  0  0  0  0  0  0  0  0  0  0  0
  -18.8097   12.1593  -19.3721 C   0  0  0  0  0  0  0  0  0  0  0  0
  -18.0897   12.4403  -20.5426 C   0  0  0  0  0  0  0  0  0  0  0  0
  -17.0050   11.5873  -21.5649 S   0  0  0  0  0  0  0  0  0  0  0  0
  -20.3460   12.7834  -17.5723 C   0  0  0  0  0  0  0  0  0  0  0  0
  -20.9854   13.7090  -17.0131 O   0  0  0  0  0  0  0  0  0  0  0  0
  -20.3197   11.4938  -17.0635 N   0  0  0  0  0  0  0  0  0  0  0  0
  -19.7557   10.7689  -17.6106 H   0  0  0  0  0  0  0  0  0  0  0  0
  -20.9614   11.0345  -15.8954 C   0  0  0  0  0  0  0  0  0  0  0  0
  -22.1735   10.4028  -15.8546 C   0  0  0  0  0  0  0  0  0  0  0  0
  -22.7495    9.9491  -14.6591 C   0  0  0  0  0  0  0  0  0  0  0  0
  -22.0537   10.1581  -13.4995 C   0  0  0  0  0  0  0  0  0  0  0  0
  -20.8251   10.7916  -13.4831 C   0  0  0  0  0  0  0  0  0  0  0  0
  -20.2969   11.2173  -14.6558 C   0  0  0  0  0  0  0  0  0  0  0  0
  -20.1270   10.9884  -12.2163 C   0  0  0  0  0  0  0  0  0  0  0  0
  -18.7520   10.6647  -12.1543 N   0  0  0  0  0  0  0  0  0  0  0  0
  -20.7241   11.4322  -11.2052 O   0  0  0  0  0  0  0  0  0  0  0  0
  -18.0467   11.4234  -12.1753 H   0  0  0  0  0  0  0  0  0  0  0  0
  -18.4621    9.6861  -12.0892 H   0  0  0  0  0  0  0  0  0  0  0  0
  -15.8454   12.7184  -23.8439 N   0  0  0  0  0  0  0  0  0  0  0  0
  -15.1669   11.9027  -23.9242 H   0  0  0  0  0  0  0  0  0  0  0  0
  -13.9378   14.7556  -23.8207 C   0  0  0  0  0  0  0  0  0  0  0  0
  -14.9185   14.6614  -24.9042 C   0  0  0  0  0  0  0  0  0  0  0  0
  -14.8900   15.6083  -25.9343 C   0  0  0  0  0  0  0  0  0  0  0  0
  -15.8058   15.5198  -26.9457 C   0  0  0  0  0  0  0  0  0  0  0  0
  -16.7409   14.5194  -26.9552 C   0  0  0  0  0  0  0  0  0  0  0  0
  -16.7511   13.5865  -25.9185 C   0  0  0  0  0  0  0  0  0  0  0  0
  -17.9338   12.3176  -25.9262 Cl  0  0  0  0  0  0  0  0  0  0  0  0
  -15.8426   13.6481  -24.8858 C   0  0  0  0  0  0  0  0  0  0  0  0
 27 28  1  0  0  0
 28 29  2  0  0  0
 29 30  1  0  0  0
 30 31  2  0  0  0
 31 32  1  0  0  0
 32 33  1  0  0  0
 32 34  2  0  0  0
 34 25  1  0  0  0
 25  1  1  0  0  0
  1  2  2  0  0  0
  2  3  1  0  0  0
  3  4  2  0  0  0
  4  5  1  0  0  0
  5  6  2  0  0  0
  6  7  1  0  0  0
  7  8  2  0  0  0
  8  9  1  0  0  0
  6 10  1  0  0  0
 10 11  2  0  0  0
 10 12  1  0  0  0
 12 14  1  0  0  0
 14 15  2  0  0  0
 15 16  1  0  0  0
 16 17  2  0  0  0
 17 18  1  0  0  0
 18 19  2  0  0  0
 18 20  1  0  0  0
 20 21  1  0  0  0
 20 22  2  0  0  0
 34 28  1  0  0  0
  9  1  1  0  0  0
 19 14  1  0  0  0
  8  3  1  0  0  0
 25 26  1  0  0  0
 12 13  1  0  0  0
 21 23  1  0  0  0
 21 24  1  0  0  0
M  END
> <minimizedAffinity>
-8.97096

> <CNNscore>
0.4013904333

> <CNNaffinity>
6.8649711609

> <CNN_VS>
2.7555336952

> <CNNaffinity_variance>
0.5409560204

$$$$
[H]c1c([H])c(C(=O)N([H])[H])c([H])c(N([H])C(=O)c2c([H])c([H])c3nc(N([H])c4c(Cl)c([H])c([H])c([H])c4C([H])([H])[H])sc3c2[H])c1[H]


 34 37  0  0  0  0  0  0  0  0999 V2000
  -16.7658   12.9380  -23.0258 C   0  0  0  0  0  0  0  0  0  0  0  0
  -16.9128   12.2014  -21.9485 N   0  0  0  0  0  0  0  0  0  0  0  0
  -17.7348   12.5817  -21.0028 C   0  0  0  0  0  0  0  0  0  0  0  0
  -17.9872   11.8896  -19.7995 C   0  0  0  0  0  0  0  0  0  0  0  0
  -18.8752   12.4124  -18.9042 C   0  0  0  0  0  0  0  0  0  0  0  0
  -19.5605   13.5718  -19.0667 C   0  0  0  0  0  0  0  0  0  0  0  0
  -19.3203   14.2606  -20.2457 C   0  0  0  0  0  0  0  0  0  0  0  0
  -18.4143   13.7535  -21.1887 C   0  0  0  0  0  0  0  0  0  0  0  0
  -17.8238   14.2404  -22.7261 S   0  0  0  0  0  0  0  0  0  0  0  0
  -20.5232   14.1438  -18.1177 C   0  0  0  0  0  0  0  0  0  0  0  0
  -21.1127   13.3390  -17.3541 O   0  0  0  0  0  0  0  0  0  0  0  0
  -20.7619   15.5090  -18.0755 N   0  0  0  0  0  0  0  0  0  0  0  0
  -20.2084   16.1186  -18.7575 H   0  0  0  0  0  0  0  0  0  0  0  0
  -21.6612   16.1825  -17.2242 C   0  0  0  0  0  0  0  0  0  0  0  0
  -21.4731   16.4002  -15.8873 C   0  0  0  0  0  0  0  0  0  0  0  0
  -22.3983   17.0984  -15.0977 C   0  0  0  0  0  0  0  0  0  0  0  0
  -23.5271   17.5709  -15.7101 C   0  0  0  0  0  0  0  0  0  0  0  0
  -23.7679   17.3787  -17.0578 C   0  0  0  0  0  0  0  0  0  0  0  0
  -22.8534   16.7001  -17.7918 C   0  0  0  0  0  0  0  0  0  0  0  0
  -24.9898   17.9046  -17.6589 C   0  0  0  0  0  0  0  0  0  0  0  0
  -25.0140   19.2658  -18.0405 N   0  0  0  0  0  0  0  0  0  0  0  0
  -25.9958   17.1746  -17.8352 O   0  0  0  0  0  0  0  0  0  0  0  0
  -24.9167   19.5182  -19.0406 H   0  0  0  0  0  0  0  0  0  0  0  0
  -25.1270   19.9917  -17.3291 H   0  0  0  0  0  0  0  0  0  0  0  0
  -15.9529   12.7585  -24.1828 N   0  0  0  0  0  0  0  0  0  0  0  0
  -15.3309   11.8985  -24.2603 H   0  0  0  0  0  0  0  0  0  0  0  0
  -17.7005   12.3732  -26.3246 C   0  0  0  0  0  0  0  0  0  0  0  0
  -16.7652   13.5001  -26.3156 C   0  0  0  0  0  0  0  0  0  0  0  0
  -16.7558   14.3875  -27.3977 C   0  0  0  0  0  0  0  0  0  0  0  0
  -15.8825   15.4394  -27.3887 C   0  0  0  0  0  0  0  0  0  0  0  0
  -15.0259   15.6267  -26.3368 C   0  0  0  0  0  0  0  0  0  0  0  0
  -15.0522   14.7300  -25.2689 C   0  0  0  0  0  0  0  0  0  0  0  0
  -13.9690   14.9630  -23.9342 Cl  0  0  0  0  0  0  0  0  0  0  0  0
  -15.9197   13.6609  -25.2478 C   0  0  0  0  0  0  0  0  0  0  0  0
 27 28  1  0  0  0
 28 29  2  0  0  0
 29 30  1  0  0  0
 30 31  2  0  0  0
 31 32  1  0  0  0
 32 33  1  0  0  0
 32 34  2  0  0  0
 34 25  1  0  0  0
 25  1  1  0  0  0
  1  2  2  0  0  0
  2  3  1  0  0  0
  3  4  2  0  0  0
  4  5  1  0  0  0
  5  6  2  0  0  0
  6  7  1  0  0  0
  7  8  2  0  0  0
  8  9  1  0  0  0
  6 10  1  0  0  0
 10 11  2  0  0  0
 10 12  1  0  0  0
 12 14  1  0  0  0
 14 15  2  0  0  0
 15 16  1  0  0  0
 16 17  2  0  0  0
 17 18  1  0  0  0
 18 19  2  0  0  0
 18 20  1  0  0  0
 20 21  1  0  0  0
 20 22  2  0  0  0
 34 28  1  0  0  0
  9  1  1  0  0  0
 19 14  1  0  0  0
  8  3  1  0  0  0
 25 26  1  0  0  0
 12 13  1  0  0  0
 21 23  1  0  0  0
 21 24  1  0  0  0
M  END
> <minimizedAffinity>
-8.51398

> <CNNscore>
0.3964865208

> <CNNaffinity>
6.8099036217

> <CNN_VS>
2.7000350952

> <CNNaffinity_variance>
0.5343875885

$$$$
[H]c1c([H])c(C(=O)N([H])[H])c([H])c(N([H])C(=O)c2c([H])c([H])c3nc(N([H])c4c(Cl)c([H])c([H])c([H])c4C([H])([H])[H])sc3c2[H])c1[H]


 34 37  0  0  0  0  0  0  0  0999 V2000
  -16.5894   13.5363  -22.8844 C   0  0  0  0  0  0  0  0  0  0  0  0
  -17.0900   12.8605  -21.8758 N   0  0  0  0  0  0  0  0  0  0  0  0
  -17.6987   13.4914  -20.9030 C   0  0  0  0  0  0  0  0  0  0  0  0
  -18.2793   12.8924  -19.7652 C   0  0  0  0  0  0  0  0  0  0  0  0
  -18.8824   13.6836  -18.8306 C   0  0  0  0  0  0  0  0  0  0  0  0
  -18.9798   15.0353  -18.8938 C   0  0  0  0  0  0  0  0  0  0  0  0
  -18.4125   15.6349  -20.0077 C   0  0  0  0  0  0  0  0  0  0  0  0
  -17.7844   14.8533  -20.9884 C   0  0  0  0  0  0  0  0  0  0  0  0
  -16.9770   15.1451  -22.4758 S   0  0  0  0  0  0  0  0  0  0  0  0
  -19.6305   15.8995  -17.9016 C   0  0  0  0  0  0  0  0  0  0  0  0
  -20.7996   15.5906  -17.5609 O   0  0  0  0  0  0  0  0  0  0  0  0
  -18.9755   17.0012  -17.3727 N   0  0  0  0  0  0  0  0  0  0  0  0
  -17.9792   17.1827  -17.7155 H   0  0  0  0  0  0  0  0  0  0  0  0
  -19.4862   17.9122  -16.4259 C   0  0  0  0  0  0  0  0  0  0  0  0
  -19.2805   17.8485  -15.0755 C   0  0  0  0  0  0  0  0  0  0  0  0
  -19.7992   18.8008  -14.1862 C   0  0  0  0  0  0  0  0  0  0  0  0
  -20.5379   19.8253  -14.7126 C   0  0  0  0  0  0  0  0  0  0  0  0
  -20.7772   19.9377  -16.0696 C   0  0  0  0  0  0  0  0  0  0  0  0
  -20.2613   19.0007  -16.9009 C   0  0  0  0  0  0  0  0  0  0  0  0
  -21.5729   21.0517  -16.5762 C   0  0  0  0  0  0  0  0  0  0  0  0
  -21.2964   21.5328  -17.8767 N   0  0  0  0  0  0  0  0  0  0  0  0
  -22.4795   21.5737  -15.8823 O   0  0  0  0  0  0  0  0  0  0  0  0
  -21.9253   21.2793  -18.6600 H   0  0  0  0  0  0  0  0  0  0  0  0
  -20.4793   22.1266  -18.0365 H   0  0  0  0  0  0  0  0  0  0  0  0
  -15.8917   13.1050  -24.0502 N   0  0  0  0  0  0  0  0  0  0  0  0
  -15.3707   12.1772  -24.0383 H   0  0  0  0  0  0  0  0  0  0  0  0
  -13.8145   14.9320  -24.4206 C   0  0  0  0  0  0  0  0  0  0  0  0
  -14.8396   14.7460  -25.4498 C   0  0  0  0  0  0  0  0  0  0  0  0
  -14.7674   15.4975  -26.6281 C   0  0  0  0  0  0  0  0  0  0  0  0
  -15.7246   15.3234  -27.5887 C   0  0  0  0  0  0  0  0  0  0  0  0
  -16.7430   14.4265  -27.4050 C   0  0  0  0  0  0  0  0  0  0  0  0
  -16.7955   13.6881  -26.2230 C   0  0  0  0  0  0  0  0  0  0  0  0
  -18.0836   12.5508  -25.9858 Cl  0  0  0  0  0  0  0  0  0  0  0  0
  -15.8470   13.8401  -25.2366 C   0  0  0  0  0  0  0  0  0  0  0  0
 27 28  1  0  0  0
 28 29  2  0  0  0
 29 30  1  0  0  0
 30 31  2  0  0  0
 31 32  1  0  0  0
 32 33  1  0  0  0
 32 34  2  0  0  0
 34 25  1  0  0  0
 25  1  1  0  0  0
  1  2  2  0  0  0
  2  3  1  0  0  0
  3  4  2  0  0  0
  4  5  1  0  0  0
  5  6  2  0  0  0
  6  7  1  0  0  0
  7  8  2  0  0  0
  8  9  1  0  0  0
  6 10  1  0  0  0
 10 11  2  0  0  0
 10 12  1  0  0  0
 12 14  1  0  0  0
 14 15  2  0  0  0
 15 16  1  0  0  0
 16 17  2  0  0  0
 17 18  1  0  0  0
 18 19  2  0  0  0
 18 20  1  0  0  0
 20 21  1  0  0  0
 20 22  2  0  0  0
 34 28  1  0  0  0
  9  1  1  0  0  0
 19 14  1  0  0  0
  8  3  1  0  0  0
 25 26  1  0  0  0
 12 13  1  0  0  0
 21 23  1  0  0  0
 21 24  1  0  0  0
M  END
> <minimizedAffinity>
-8.25519

> <CNNscore>
0.3606925905

> <CNNaffinity>
6.6162824631

> <CNN_VS>
2.3864440918

> <CNNaffinity_variance>
0.1945119500

$$$$
[H]c1c([H])c(C([H])([H])[H])c(C(F)(F)F)c([H])c1C(=O)N([H])c1nc2c([H])c([H])c(N3C([H])([H])C([H])([H])N(C([H])([H])[H])C([H])([H])C3([H])[H])c([H])c2s1


 31 34  0  0  0  0  0  0  0  0999 V2000
  -16.7239   13.5423  -22.5016 C   0  0  0  0  0  0  0  0  0  0  0  0
  -17.3829   14.2358  -21.5067 C   0  0  0  0  0  0  0  0  0  0  0  0
  -17.8043   13.7149  -20.3318 C   0  0  0  0  0  0  0  0  0  0  0  0
  -17.5685   12.3472  -20.0631 C   0  0  0  0  0  0  0  0  0  0  0  0
  -17.9207   11.7171  -18.9739 N   0  0  0  0  0  0  0  0  0  0  0  0
  -17.6508   10.4375  -18.8271 C   0  0  0  0  0  0  0  0  0  0  0  0
  -16.8454   10.0809  -20.3169 S   0  0  0  0  0  0  0  0  0  0  0  0
  -16.9184   11.6318  -21.0278 C   0  0  0  0  0  0  0  0  0  0  0  0
  -16.4932   12.2054  -22.2395 C   0  0  0  0  0  0  0  0  0  0  0  0
  -15.5237   15.5290  -27.2835 C   0  0  0  0  0  0  0  0  0  0  0  0
  -15.3710   15.7263  -25.8570 N   0  0  0  0  0  0  0  0  0  0  0  0
  -14.4740   14.8114  -25.2468 C   0  0  0  0  0  0  0  0  0  0  0  0
  -14.8714   14.2547  -23.9260 C   0  0  0  0  0  0  0  0  0  0  0  0
  -16.2974   14.1254  -23.7176 N   0  0  0  0  0  0  0  0  0  0  0  0
  -17.1824   14.5918  -24.7458 C   0  0  0  0  0  0  0  0  0  0  0  0
  -16.6138   15.9469  -25.1938 C   0  0  0  0  0  0  0  0  0  0  0  0
  -17.9362    9.5607  -17.7385 N   0  0  0  0  0  0  0  0  0  0  0  0
  -19.1142    9.7395  -16.9913 C   0  0  0  0  0  0  0  0  0  0  0  0
  -19.9033   10.6953  -17.3134 O   0  0  0  0  0  0  0  0  0  0  0  0
  -17.2728    8.8118  -17.5212 H   0  0  0  0  0  0  0  0  0  0  0  0
  -19.4845    8.8943  -15.8693 C   0  0  0  0  0  0  0  0  0  0  0  0
  -19.1227    9.2813  -14.5863 C   0  0  0  0  0  0  0  0  0  0  0  0
  -19.4561    8.5106  -13.5047 C   0  0  0  0  0  0  0  0  0  0  0  0
  -20.1696    7.3192  -13.6952 C   0  0  0  0  0  0  0  0  0  0  0  0
  -20.5532    6.4518  -12.5572 C   0  0  0  0  0  0  0  0  0  0  0  0
  -20.5429    6.9083  -14.9549 C   0  0  0  0  0  0  0  0  0  0  0  0
  -20.1907    7.7099  -16.0286 C   0  0  0  0  0  0  0  0  0  0  0  0
  -21.2843    5.6750  -15.1698 C   0  0  0  0  0  0  0  0  0  0  0  0
  -22.5160    5.6347  -14.5564 F   0  0  0  0  0  0  0  0  0  0  0  0
  -20.4903    4.5881  -14.8592 F   0  0  0  0  0  0  0  0  0  0  0  0
  -21.5578    5.5457  -16.5385 F   0  0  0  0  0  0  0  0  0  0  0  0
 10 11  1  0  0  0
 11 12  1  0  0  0
 12 13  1  0  0  0
 13 14  1  0  0  0
 14 15  1  0  0  0
 15 16  1  0  0  0
 14  1  1  0  0  0
  1  2  2  0  0  0
  2  3  1  0  0  0
  3  4  2  0  0  0
  4  5  1  0  0  0
  5  6  2  0  0  0
  6 17  1  0  0  0
 17 18  1  0  0  0
 18 19  2  0  0  0
 18 21  1  0  0  0
 21 22  2  0  0  0
 22 23  1  0  0  0
 23 24  2  0  0  0
 24 25  1  0  0  0
 24 26  1  0  0  0
 26 27  2  0  0  0
 26 28  1  0  0  0
 28 29  1  0  0  0
 28 30  1  0  0  0
 28 31  1  0  0  0
  6  7  1  0  0  0
  7  8  1  0  0  0
  8  9  2  0  0  0
 16 11  1  0  0  0
  9  1  1  0  0  0
  8  4  1  0  0  0
 27 21  1  0  0  0
 17 20  1  0  0  0
M  END
> <minimizedAffinity>
-8.82024

> <CNNscore>
0.6661279798

> <CNNaffinity>
6.7781686783

> <CNN_VS>
4.5151276588

> <CNNaffinity_variance>
0.1488196552

$$$$
[H]c1c([H])c(C([H])([H])[H])c(C(F)(F)F)c([H])c1C(=O)N([H])c1nc2c([H])c([H])c(N3C([H])([H])C([H])([H])N(C([H])([H])[H])C([H])([H])C3([H])[H])c([H])c2s1


 31 34  0  0  0  0  0  0  0  0999 V2000
  -16.7328   13.5844  -22.6061 C   0  0  0  0  0  0  0  0  0  0  0  0
  -17.3352   14.3104  -21.5986 C   0  0  0  0  0  0  0  0  0  0  0  0
  -17.7288   13.8181  -20.4019 C   0  0  0  0  0  0  0  0  0  0  0  0
  -17.5233   12.4478  -20.1218 C   0  0  0  0  0  0  0  0  0  0  0  0
  -17.8541   11.8432  -19.0117 N   0  0  0  0  0  0  0  0  0  0  0  0
  -17.6163   10.5583  -18.8560 C   0  0  0  0  0  0  0  0  0  0  0  0
  -16.8758   10.1580  -20.3681 S   0  0  0  0  0  0  0  0  0  0  0  0
  -16.9293   11.7006  -21.0985 C   0  0  0  0  0  0  0  0  0  0  0  0
  -16.5316   12.2449  -22.3329 C   0  0  0  0  0  0  0  0  0  0  0  0
  -15.6544   15.4799  -27.4535 C   0  0  0  0  0  0  0  0  0  0  0  0
  -15.4272   15.6778  -26.0371 N   0  0  0  0  0  0  0  0  0  0  0  0
  -14.5499   14.7227  -25.4605 C   0  0  0  0  0  0  0  0  0  0  0  0
  -14.9139   14.1946  -24.1186 C   0  0  0  0  0  0  0  0  0  0  0  0
  -16.3337   14.1382  -23.8449 N   0  0  0  0  0  0  0  0  0  0  0  0
  -17.2402   14.6421  -24.8358 C   0  0  0  0  0  0  0  0  0  0  0  0
  -16.6260   15.9643  -25.3202 C   0  0  0  0  0  0  0  0  0  0  0  0
  -17.8875    9.7051  -17.7452 N   0  0  0  0  0  0  0  0  0  0  0  0
  -19.0644    9.8892  -16.9974 C   0  0  0  0  0  0  0  0  0  0  0  0
  -19.8652   10.8283  -17.3391 O   0  0  0  0  0  0  0  0  0  0  0  0
  -17.2151    8.9690  -17.5127 H   0  0  0  0  0  0  0  0  0  0  0  0
  -19.4208    9.0675  -15.8537 C   0  0  0  0  0  0  0  0  0  0  0  0
  -19.9644    7.8090  -16.0718 C   0  0  0  0  0  0  0  0  0  0  0  0
  -20.3107    7.0061  -15.0181 C   0  0  0  0  0  0  0  0  0  0  0  0
  -20.1144    7.4597  -13.7064 C   0  0  0  0  0  0  0  0  0  0  0  0
  -20.4731    6.6282  -12.5340 C   0  0  0  0  0  0  0  0  0  0  0  0
  -19.5775    8.7025  -13.4573 C   0  0  0  0  0  0  0  0  0  0  0  0
  -19.2374    9.4909  -14.5445 C   0  0  0  0  0  0  0  0  0  0  0  0
  -19.3666    9.1881  -12.1020 C   0  0  0  0  0  0  0  0  0  0  0  0
  -18.3671    8.5398  -11.4122 F   0  0  0  0  0  0  0  0  0  0  0  0
  -20.5668    9.2123  -11.4185 F   0  0  0  0  0  0  0  0  0  0  0  0
  -18.9552   10.5267  -12.1614 F   0  0  0  0  0  0  0  0  0  0  0  0
 10 11  1  0  0  0
 11 12  1  0  0  0
 12 13  1  0  0  0
 13 14  1  0  0  0
 14 15  1  0  0  0
 15 16  1  0  0  0
 14  1  1  0  0  0
  1  2  2  0  0  0
  2  3  1  0  0  0
  3  4  2  0  0  0
  4  5  1  0  0  0
  5  6  2  0  0  0
  6 17  1  0  0  0
 17 18  1  0  0  0
 18 19  2  0  0  0
 18 21  1  0  0  0
 21 22  2  0  0  0
 22 23  1  0  0  0
 23 24  2  0  0  0
 24 25  1  0  0  0
 24 26  1  0  0  0
 26 27  2  0  0  0
 26 28  1  0  0  0
 28 29  1  0  0  0
 28 30  1  0  0  0
 28 31  1  0  0  0
  6  7  1  0  0  0
  7  8  1  0  0  0
  8  9  2  0  0  0
 16 11  1  0  0  0
  9  1  1  0  0  0
  8  4  1  0  0  0
 27 21  1  0  0  0
 17 20  1  0  0  0
M  END
> <minimizedAffinity>
-8.81461

> <CNNscore>
0.6297676563

> <CNNaffinity>
6.7025060654

> <CNN_VS>
4.2210216522

> <CNNaffinity_variance>
0.1680055261

$$$$
[H]c1c([H])c(C([H])([H])[H])c(C(F)(F)F)c([H])c1C(=O)N([H])c1nc2c([H])c([H])c(N3C([H])([H])C([H])([H])N(C([H])([H])[H])C([H])([H])C3([H])[H])c([H])c2s1


 31 34  0  0  0  0  0  0  0  0999 V2000
  -19.8251   10.5298  -15.2764 C   0  0  0  0  0  0  0  0  0  0  0  0
  -19.2576    9.6068  -16.1313 C   0  0  0  0  0  0  0  0  0  0  0  0
  -18.8779    9.8461  -17.4072 C   0  0  0  0  0  0  0  0  0  0  0  0
  -19.0620   11.1395  -17.9473 C   0  0  0  0  0  0  0  0  0  0  0  0
  -18.7423   11.5071  -19.1598 N   0  0  0  0  0  0  0  0  0  0  0  0
  -18.9588   12.7415  -19.5611 C   0  0  0  0  0  0  0  0  0  0  0  0
  -19.6606   13.4473  -18.1453 S   0  0  0  0  0  0  0  0  0  0  0  0
  -19.6217   12.0770  -17.1270 C   0  0  0  0  0  0  0  0  0  0  0  0
  -20.0052   11.7942  -15.8038 C   0  0  0  0  0  0  0  0  0  0  0  0
  -21.4112    8.9927  -10.4416 C   0  0  0  0  0  0  0  0  0  0  0  0
  -20.4979    9.8580  -11.1588 N   0  0  0  0  0  0  0  0  0  0  0  0
  -21.1281   10.9745  -11.7674 C   0  0  0  0  0  0  0  0  0  0  0  0
  -20.6754   11.3431  -13.1353 C   0  0  0  0  0  0  0  0  0  0  0  0
  -20.2073   10.2395  -13.9458 N   0  0  0  0  0  0  0  0  0  0  0  0
  -20.1595    8.9324  -13.3569 C   0  0  0  0  0  0  0  0  0  0  0  0
  -19.5627    9.1346  -11.9558 C   0  0  0  0  0  0  0  0  0  0  0  0
  -18.6924   13.3544  -20.8215 N   0  0  0  0  0  0  0  0  0  0  0  0
  -17.5715   12.9503  -21.5688 C   0  0  0  0  0  0  0  0  0  0  0  0
  -16.8148   12.0351  -21.0895 O   0  0  0  0  0  0  0  0  0  0  0  0
  -19.3279   14.0819  -21.1606 H   0  0  0  0  0  0  0  0  0  0  0  0
  -17.2255   13.5183  -22.8603 C   0  0  0  0  0  0  0  0  0  0  0  0
  -17.3838   12.7434  -24.0011 C   0  0  0  0  0  0  0  0  0  0  0  0
  -17.0695   13.2460  -25.2354 C   0  0  0  0  0  0  0  0  0  0  0  0
  -16.5831   14.5559  -25.3479 C   0  0  0  0  0  0  0  0  0  0  0  0
  -16.2294   15.1441  -26.6607 C   0  0  0  0  0  0  0  0  0  0  0  0
  -16.4152   15.3493  -24.2356 C   0  0  0  0  0  0  0  0  0  0  0  0
  -16.7420   14.8119  -23.0012 C   0  0  0  0  0  0  0  0  0  0  0  0
  -15.9122   16.7109  -24.3350 C   0  0  0  0  0  0  0  0  0  0  0  0
  -14.8323   16.8609  -25.1754 F   0  0  0  0  0  0  0  0  0  0  0  0
  -15.6892   17.2239  -23.0720 F   0  0  0  0  0  0  0  0  0  0  0  0
  -16.9138   17.5227  -24.8852 F   0  0  0  0  0  0  0  0  0  0  0  0
 10 11  1  0  0  0
 11 12  1  0  0  0
 12 13  1  0  0  0
 13 14  1  0  0  0
 14 15  1  0  0  0
 15 16  1  0  0  0
 14  1  1  0  0  0
  1  2  2  0  0  0
  2  3  1  0  0  0
  3  4  2  0  0  0
  4  5  1  0  0  0
  5  6  2  0  0  0
  6 17  1  0  0  0
 17 18  1  0  0  0
 18 19  2  0  0  0
 18 21  1  0  0  0
 21 22  2  0  0  0
 22 23  1  0  0  0
 23 24  2  0  0  0
 24 25  1  0  0  0
 24 26  1  0  0  0
 26 27  2  0  0  0
 26 28  1  0  0  0
 28 29  1  0  0  0
 28 30  1  0  0  0
 28 31  1  0  0  0
  6  7  1  0  0  0
  7  8  1  0  0  0
  8  9  2  0  0  0
 16 11  1  0  0  0
  9  1  1  0  0  0
  8  4  1  0  0  0
 27 21  1  0  0  0
 17 20  1  0  0  0
M  END
> <minimizedAffinity>
-8.47077

> <CNNscore>
0.4397489429

> <CNNaffinity>
6.3338022232

> <CNN_VS>
2.7852828503

> <CNNaffinity_variance>
0.2056559771

$$$$
[H]c1c([H])c(C([H])([H])[H])c(C(F)(F)F)c([H])c1C(=O)N([H])c1nc2c([H])c([H])c(N3C([H])([H])C([H])([H])N(C([H])([H])[H])C([H])([H])C3([H])[H])c([H])c2s1


 31 34  0  0  0  0  0  0  0  0999 V2000
  -20.5536    8.9790  -15.5793 C   0  0  0  0  0  0  0  0  0  0  0  0
  -19.4527    8.4243  -16.2001 C   0  0  0  0  0  0  0  0  0  0  0  0
  -18.6440    9.0574  -17.0800 C   0  0  0  0  0  0  0  0  0  0  0  0
  -18.9168   10.4026  -17.4185 C   0  0  0  0  0  0  0  0  0  0  0  0
  -18.2211   11.1307  -18.2511 N   0  0  0  0  0  0  0  0  0  0  0  0
  -18.5655   12.3771  -18.4950 C   0  0  0  0  0  0  0  0  0  0  0  0
  -19.9640   12.5524  -17.4906 S   0  0  0  0  0  0  0  0  0  0  0  0
  -20.0001   10.9817  -16.8216 C   0  0  0  0  0  0  0  0  0  0  0  0
  -20.8208   10.2938  -15.9098 C   0  0  0  0  0  0  0  0  0  0  0  0
  -23.5035    6.6992  -11.7906 C   0  0  0  0  0  0  0  0  0  0  0  0
  -23.3702    6.8915  -13.2197 N   0  0  0  0  0  0  0  0  0  0  0  0
  -22.3036    6.1554  -13.7980 C   0  0  0  0  0  0  0  0  0  0  0  0
  -21.4840    6.8490  -14.8272 C   0  0  0  0  0  0  0  0  0  0  0  0
  -21.3743    8.2823  -14.6619 N   0  0  0  0  0  0  0  0  0  0  0  0
  -22.0970    8.9028  -13.5893 C   0  0  0  0  0  0  0  0  0  0  0  0
  -23.4915    8.2586  -13.6067 C   0  0  0  0  0  0  0  0  0  0  0  0
  -17.9607   13.3428  -19.3535 N   0  0  0  0  0  0  0  0  0  0  0  0
  -17.9053   13.1049  -20.7385 C   0  0  0  0  0  0  0  0  0  0  0  0
  -18.4039   12.0161  -21.1922 O   0  0  0  0  0  0  0  0  0  0  0  0
  -17.5763   14.1975  -18.9413 H   0  0  0  0  0  0  0  0  0  0  0  0
  -17.3103   14.0323  -21.6852 C   0  0  0  0  0  0  0  0  0  0  0  0
  -16.9573   15.3030  -21.2520 C   0  0  0  0  0  0  0  0  0  0  0  0
  -16.3927   16.2030  -22.1157 C   0  0  0  0  0  0  0  0  0  0  0  0
  -16.1691   15.8376  -23.4503 C   0  0  0  0  0  0  0  0  0  0  0  0
  -15.5612   16.7758  -24.4223 C   0  0  0  0  0  0  0  0  0  0  0  0
  -16.5080   14.5852  -23.9103 C   0  0  0  0  0  0  0  0  0  0  0  0
  -17.0774   13.6974  -23.0120 C   0  0  0  0  0  0  0  0  0  0  0  0
  -16.2820   14.1898  -25.2921 C   0  0  0  0  0  0  0  0  0  0  0  0
  -14.9590   14.1725  -25.6722 F   0  0  0  0  0  0  0  0  0  0  0  0
  -17.0760   14.9444  -26.1337 F   0  0  0  0  0  0  0  0  0  0  0  0
  -16.7241   12.8704  -25.4618 F   0  0  0  0  0  0  0  0  0  0  0  0
 10 11  1  0  0  0
 11 12  1  0  0  0
 12 13  1  0  0  0
 13 14  1  0  0  0
 14 15  1  0  0  0
 15 16  1  0  0  0
 14  1  1  0  0  0
  1  2  2  0  0  0
  2  3  1  0  0  0
  3  4  2  0  0  0
  4  5  1  0  0  0
  5  6  2  0  0  0
  6 17  1  0  0  0
 17 18  1  0  0  0
 18 19  2  0  0  0
 18 21  1  0  0  0
 21 22  2  0  0  0
 22 23  1  0  0  0
 23 24  2  0  0  0
 24 25  1  0  0  0
 24 26  1  0  0  0
 26 27  2  0  0  0
 26 28  1  0  0  0
 28 29  1  0  0  0
 28 30  1  0  0  0
 28 31  1  0  0  0
  6  7  1  0  0  0
  7  8  1  0  0  0
  8  9  2  0  0  0
 16 11  1  0  0  0
  9  1  1  0  0  0
  8  4  1  0  0  0
 27 21  1  0  0  0
 17 20  1  0  0  0
M  END
> <minimizedAffinity>
-8.66801

> <CNNscore>
0.3846580684

> <CNNaffinity>
6.1403894424

> <CNN_VS>
2.3619503975

> <CNNaffinity_variance>
0.1208605319

$$$$
[H]c1c([H])c(C([H])([H])[H])c(C(F)(F)F)c([H])c1C(=O)N([H])c1nc2c([H])c([H])c(N3C([H])([H])C([H])([H])N(C([H])([H])[H])C([H])([H])C3([H])[H])c([H])c2s1


 31 34  0  0  0  0  0  0  0  0999 V2000
  -21.5761   19.7501  -23.1323 C   0  0  0  0  0  0  0  0  0  0  0  0
  -20.6754   20.7261  -22.7565 C   0  0  0  0  0  0  0  0  0  0  0  0
  -20.1828   20.9034  -21.5094 C   0  0  0  0  0  0  0  0  0  0  0  0
  -20.6024   20.0354  -20.4755 C   0  0  0  0  0  0  0  0  0  0  0  0
  -20.2087   20.0932  -19.2309 N   0  0  0  0  0  0  0  0  0  0  0  0
  -20.6651   19.2322  -18.3466 C   0  0  0  0  0  0  0  0  0  0  0  0
  -21.7233   18.2669  -19.3181 S   0  0  0  0  0  0  0  0  0  0  0  0
  -21.4942   19.0581  -20.8140 C   0  0  0  0  0  0  0  0  0  0  0  0
  -21.9867   18.9015  -22.1221 C   0  0  0  0  0  0  0  0  0  0  0  0
  -23.3106   18.6891  -28.0435 C   0  0  0  0  0  0  0  0  0  0  0  0
  -23.4513   19.5869  -26.9159 N   0  0  0  0  0  0  0  0  0  0  0  0
  -22.3538   20.4710  -26.7495 C   0  0  0  0  0  0  0  0  0  0  0  0
  -21.8815   20.7074  -25.3591 C   0  0  0  0  0  0  0  0  0  0  0  0
  -22.0665   19.5969  -24.4501 N   0  0  0  0  0  0  0  0  0  0  0  0
  -22.7292   18.4209  -24.9355 C   0  0  0  0  0  0  0  0  0  0  0  0
  -23.9316   18.9311  -25.7443 C   0  0  0  0  0  0  0  0  0  0  0  0
  -20.3767   19.1094  -16.9549 N   0  0  0  0  0  0  0  0  0  0  0  0
  -21.4316   19.0870  -16.0249 C   0  0  0  0  0  0  0  0  0  0  0  0
  -22.6324   19.1796  -16.4602 O   0  0  0  0  0  0  0  0  0  0  0  0
  -19.3995   19.0388  -16.6578 H   0  0  0  0  0  0  0  0  0  0  0  0
  -21.2304   18.9638  -14.5915 C   0  0  0  0  0  0  0  0  0  0  0  0
  -20.0107   18.4979  -14.1201 C   0  0  0  0  0  0  0  0  0  0  0  0
  -19.7846   18.3704  -12.7758 C   0  0  0  0  0  0  0  0  0  0  0  0
  -20.7948   18.7138  -11.8666 C   0  0  0  0  0  0  0  0  0  0  0  0
  -20.5981   18.5932  -10.4033 C   0  0  0  0  0  0  0  0  0  0  0  0
  -22.0149   19.1788  -12.3026 C   0  0  0  0  0  0  0  0  0  0  0  0
  -22.2126   19.2965  -13.6688 C   0  0  0  0  0  0  0  0  0  0  0  0
  -23.0736   19.5401  -11.3724 C   0  0  0  0  0  0  0  0  0  0  0  0
  -23.4323   18.5389  -10.4984 F   0  0  0  0  0  0  0  0  0  0  0  0
  -24.1486   20.0649  -12.0633 F   0  0  0  0  0  0  0  0  0  0  0  0
  -22.6201   20.5863  -10.5570 F   0  0  0  0  0  0  0  0  0  0  0  0
 10 11  1  0  0  0
 11 12  1  0  0  0
 12 13  1  0  0  0
 13 14  1  0  0  0
 14 15  1  0  0  0
 15 16  1  0  0  0
 14  1  1  0  0  0
  1  2  2  0  0  0
  2  3  1  0  0  0
  3  4  2  0  0  0
  4  5  1  0  0  0
  5  6  2  0  0  0
  6 17  1  0  0  0
 17 18  1  0  0  0
 18 19  2  0  0  0
 18 21  1  0  0  0
 21 22  2  0  0  0
 22 23  1  0  0  0
 23 24  2  0  0  0
 24 25  1  0  0  0
 24 26  1  0  0  0
 26 27  2  0  0  0
 26 28  1  0  0  0
 28 29  1  0  0  0
 28 30  1  0  0  0
 28 31  1  0  0  0
  6  7  1  0  0  0
  7  8  1  0  0  0
  8  9  2  0  0  0
 16 11  1  0  0  0
  9  1  1  0  0  0
  8  4  1  0  0  0
 27 21  1  0  0  0
 17 20  1  0  0  0
M  END
> <minimizedAffinity>
-4.22679

> <CNNscore>
0.3380687237

> <CNNaffinity>
5.5160994530

> <CNN_VS>
1.8648207188

> <CNNaffinity_variance>
1.0112588406

$$$$
[H]c1c([H])c(C([H])([H])[H])c(C(F)(F)F)c([H])c1C(=O)N([H])c1nc2c([H])c([H])c(N3C([H])([H])C([H])([H])N(C([H])([H])[H])C([H])([H])C3([H])[H])c([H])c2s1


 31 34  0  0  0  0  0  0  0  0999 V2000
  -16.3044   12.9816  -22.9863 C   0  0  0  0  0  0  0  0  0  0  0  0
  -15.6274   11.8493  -22.5807 C   0  0  0  0  0  0  0  0  0  0  0  0
  -15.9286   11.0990  -21.4964 C   0  0  0  0  0  0  0  0  0  0  0  0
  -17.0229   11.4745  -20.6840 C   0  0  0  0  0  0  0  0  0  0  0  0
  -17.4225   10.8436  -19.6118 N   0  0  0  0  0  0  0  0  0  0  0  0
  -18.4571   11.2820  -18.9270 C   0  0  0  0  0  0  0  0  0  0  0  0
  -18.9109   12.6789  -19.8424 S   0  0  0  0  0  0  0  0  0  0  0  0
  -17.7144   12.5914  -21.0577 C   0  0  0  0  0  0  0  0  0  0  0  0
  -17.3741   13.3491  -22.1926 C   0  0  0  0  0  0  0  0  0  0  0  0
  -15.3202   15.5399  -27.5404 C   0  0  0  0  0  0  0  0  0  0  0  0
  -15.3308   15.6699  -26.0982 N   0  0  0  0  0  0  0  0  0  0  0  0
  -14.2720   14.9779  -25.4547 C   0  0  0  0  0  0  0  0  0  0  0  0
  -14.6051   14.2466  -24.2031 C   0  0  0  0  0  0  0  0  0  0  0  0
  -15.9580   13.7387  -24.1298 N   0  0  0  0  0  0  0  0  0  0  0  0
  -16.8561   14.0308  -25.2095 C   0  0  0  0  0  0  0  0  0  0  0  0
  -16.6333   15.5147  -25.5392 C   0  0  0  0  0  0  0  0  0  0  0  0
  -19.0601   10.7597  -17.7443 N   0  0  0  0  0  0  0  0  0  0  0  0
  -19.9520   11.5588  -17.0067 C   0  0  0  0  0  0  0  0  0  0  0  0
  -20.1977   12.7446  -17.4228 O   0  0  0  0  0  0  0  0  0  0  0  0
  -18.8305    9.8053  -17.4536 H   0  0  0  0  0  0  0  0  0  0  0  0
  -20.6115   11.1084  -15.7932 C   0  0  0  0  0  0  0  0  0  0  0  0
  -20.1073   11.5099  -14.5637 C   0  0  0  0  0  0  0  0  0  0  0  0
  -20.7039   11.1064  -13.3993 C   0  0  0  0  0  0  0  0  0  0  0  0
  -21.8349   10.2798  -13.4492 C   0  0  0  0  0  0  0  0  0  0  0  0
  -22.5152    9.8170  -12.2173 C   0  0  0  0  0  0  0  0  0  0  0  0
  -22.3588    9.8647  -14.6526 C   0  0  0  0  0  0  0  0  0  0  0  0
  -21.7325   10.2899  -15.8129 C   0  0  0  0  0  0  0  0  0  0  0  0
  -23.5323    9.0073  -14.7221 C   0  0  0  0  0  0  0  0  0  0  0  0
  -24.6754    9.5596  -14.1900 F   0  0  0  0  0  0  0  0  0  0  0  0
  -23.2384    7.7636  -14.1975 F   0  0  0  0  0  0  0  0  0  0  0  0
  -23.8386    8.7702  -16.0692 F   0  0  0  0  0  0  0  0  0  0  0  0
 10 11  1  0  0  0
 11 12  1  0  0  0
 12 13  1  0  0  0
 13 14  1  0  0  0
 14 15  1  0  0  0
 15 16  1  0  0  0
 14  1  1  0  0  0
  1  2  2  0  0  0
  2  3  1  0  0  0
  3  4  2  0  0  0
  4  5  1  0  0  0
  5  6  2  0  0  0
  6 17  1  0  0  0
 17 18  1  0  0  0
 18 19  2  0  0  0
 18 21  1  0  0  0
 21 22  2  0  0  0
 22 23  1  0  0  0
 23 24  2  0  0  0
 24 25  1  0  0  0
 24 26  1  0  0  0
 26 27  2  0  0  0
 26 28  1  0  0  0
 28 29  1  0  0  0
 28 30  1  0  0  0
 28 31  1  0  0  0
  6  7  1  0  0  0
  7  8  1  0  0  0
  8  9  2  0  0  0
 16 11  1  0  0  0
  9  1  1  0  0  0
  8  4  1  0  0  0
 27 21  1  0  0  0
 17 20  1  0  0  0
M  END
> <minimizedAffinity>
-8.17029

> <CNNscore>
0.3195578754

> <CNNaffinity>
6.3894815445

> <CNN_VS>
2.0418090820

> <CNNaffinity_variance>
0.3017379344

$$$$
[H]c1c([H])c(C([H])([H])[H])c(C(F)(F)F)c([H])c1C(=O)N([H])c1nc2c([H])c([H])c(N3C([H])([H])C([H])([H])N(C([H])([H])[H])C([H])([H])C3([H])[H])c([H])c2s1


 31 34  0  0  0  0  0  0  0  0999 V2000
  -16.5164   13.2207  -22.8993 C   0  0  0  0  0  0  0  0  0  0  0  0
  -15.9726   12.0168  -22.4991 C   0  0  0  0  0  0  0  0  0  0  0  0
  -16.3223   11.3259  -21.3902 C   0  0  0  0  0  0  0  0  0  0  0  0
  -17.3263   11.8488  -20.5434 C   0  0  0  0  0  0  0  0  0  0  0  0
  -17.7589   11.2886  -19.4451 N   0  0  0  0  0  0  0  0  0  0  0  0
  -18.7009   11.8646  -18.7292 C   0  0  0  0  0  0  0  0  0  0  0  0
  -19.0106   13.2954  -19.6524 S   0  0  0  0  0  0  0  0  0  0  0  0
  -17.8851   13.0396  -20.9109 C   0  0  0  0  0  0  0  0  0  0  0  0
  -17.4978   13.7323  -22.0720 C   0  0  0  0  0  0  0  0  0  0  0  0
  -15.3999   15.5691  -27.5353 C   0  0  0  0  0  0  0  0  0  0  0  0
  -15.3388   15.7208  -26.0964 N   0  0  0  0  0  0  0  0  0  0  0  0
  -14.3495   14.9124  -25.4784 C   0  0  0  0  0  0  0  0  0  0  0  0
  -14.7220   14.2467  -24.2016 C   0  0  0  0  0  0  0  0  0  0  0  0
  -16.1235   13.9118  -24.0692 N   0  0  0  0  0  0  0  0  0  0  0  0
  -17.0194   14.2970  -25.1211 C   0  0  0  0  0  0  0  0  0  0  0  0
  -16.6281   15.7367  -25.4875 C   0  0  0  0  0  0  0  0  0  0  0  0
  -19.3168   11.4395  -17.5147 N   0  0  0  0  0  0  0  0  0  0  0  0
  -19.2262   10.0917  -17.1231 C   0  0  0  0  0  0  0  0  0  0  0  0
  -18.5875    9.2775  -17.8776 O   0  0  0  0  0  0  0  0  0  0  0  0
  -19.8162   12.1296  -16.9467 H   0  0  0  0  0  0  0  0  0  0  0  0
  -19.8210    9.5724  -15.9037 C   0  0  0  0  0  0  0  0  0  0  0  0
  -19.9416    8.1986  -15.7452 C   0  0  0  0  0  0  0  0  0  0  0  0
  -20.4955    7.6732  -14.6086 C   0  0  0  0  0  0  0  0  0  0  0  0
  -20.9451    8.5310  -13.5953 C   0  0  0  0  0  0  0  0  0  0  0  0
  -21.5512    8.0106  -12.3477 C   0  0  0  0  0  0  0  0  0  0  0  0
  -20.8394    9.8976  -13.7225 C   0  0  0  0  0  0  0  0  0  0  0  0
  -20.2745   10.3982  -14.8843 C   0  0  0  0  0  0  0  0  0  0  0  0
  -21.3004   10.8018  -12.6800 C   0  0  0  0  0  0  0  0  0  0  0  0
  -20.6296   10.6837  -11.4838 F   0  0  0  0  0  0  0  0  0  0  0  0
  -22.6713   10.7021  -12.5427 F   0  0  0  0  0  0  0  0  0  0  0  0
  -21.0718   12.1214  -13.0939 F   0  0  0  0  0  0  0  0  0  0  0  0
 10 11  1  0  0  0
 11 12  1  0  0  0
 12 13  1  0  0  0
 13 14  1  0  0  0
 14 15  1  0  0  0
 15 16  1  0  0  0
 14  1  1  0  0  0
  1  2  2  0  0  0
  2  3  1  0  0  0
  3  4  2  0  0  0
  4  5  1  0  0  0
  5  6  2  0  0  0
  6 17  1  0  0  0
 17 18  1  0  0  0
 18 19  2  0  0  0
 18 21  1  0  0  0
 21 22  2  0  0  0
 22 23  1  0  0  0
 23 24  2  0  0  0
 24 25  1  0  0  0
 24 26  1  0  0  0
 26 27  2  0  0  0
 26 28  1  0  0  0
 28 29  1  0  0  0
 28 30  1  0  0  0
 28 31  1  0  0  0
  6  7  1  0  0  0
  7  8  1  0  0  0
  8  9  2  0  0  0
 16 11  1  0  0  0
  9  1  1  0  0  0
  8  4  1  0  0  0
 27 21  1  0  0  0
 17 20  1  0  0  0
M  END
> <minimizedAffinity>
-8.34350

> <CNNscore>
0.2180539221

> <CNNaffinity>
6.2954721451

> <CNN_VS>
1.3727524281

> <CNNaffinity_variance>
0.4004493654

$$$$
[H]c1c([H])c(C([H])([H])[H])c(C(F)(F)F)c([H])c1C(=O)N([H])c1nc2c([H])c([H])c(N3C([H])([H])C([H])([H])N(C([H])([H])[H])C([H])([H])C3([H])[H])c([H])c2s1


 31 34  0  0  0  0  0  0  0  0999 V2000
  -17.0095   12.8615  -22.3643 C   0  0  0  0  0  0  0  0  0  0  0  0
  -16.3850   11.7085  -21.9334 C   0  0  0  0  0  0  0  0  0  0  0  0
  -16.6535   11.0523  -20.7816 C   0  0  0  0  0  0  0  0  0  0  0  0
  -17.6519   11.5596  -19.9189 C   0  0  0  0  0  0  0  0  0  0  0  0
  -18.0107   11.0288  -18.7800 N   0  0  0  0  0  0  0  0  0  0  0  0
  -18.9552   11.5863  -18.0528 C   0  0  0  0  0  0  0  0  0  0  0  0
  -19.3785   12.9538  -19.0254 S   0  0  0  0  0  0  0  0  0  0  0  0
  -18.2894   12.7002  -20.3159 C   0  0  0  0  0  0  0  0  0  0  0  0
  -17.9855   13.3578  -21.5215 C   0  0  0  0  0  0  0  0  0  0  0  0
  -15.8156   15.7486  -26.6647 C   0  0  0  0  0  0  0  0  0  0  0  0
  -15.7503   14.4238  -26.0836 N   0  0  0  0  0  0  0  0  0  0  0  0
  -17.0053   13.7638  -26.0242 C   0  0  0  0  0  0  0  0  0  0  0  0
  -17.3085   12.9990  -24.7851 C   0  0  0  0  0  0  0  0  0  0  0  0
  -16.7003   13.5174  -23.5788 N   0  0  0  0  0  0  0  0  0  0  0  0
  -15.8299   14.6525  -23.6868 C   0  0  0  0  0  0  0  0  0  0  0  0
  -14.9424   14.3748  -24.9097 C   0  0  0  0  0  0  0  0  0  0  0  0
  -19.4999   11.1858  -16.7966 N   0  0  0  0  0  0  0  0  0  0  0  0
  -19.4797    9.8281  -16.4304 C   0  0  0  0  0  0  0  0  0  0  0  0
  -18.9684    8.9827  -17.2452 O   0  0  0  0  0  0  0  0  0  0  0  0
  -19.8974   11.9006  -16.1808 H   0  0  0  0  0  0  0  0  0  0  0  0
  -20.0101    9.3320  -15.1722 C   0  0  0  0  0  0  0  0  0  0  0  0
  -19.1380    8.7772  -14.2456 C   0  0  0  0  0  0  0  0  0  0  0  0
  -19.6019    8.3010  -13.0486 C   0  0  0  0  0  0  0  0  0  0  0  0
  -20.9708    8.3746  -12.7561 C   0  0  0  0  0  0  0  0  0  0  0  0
  -21.5206    7.8731  -11.4752 C   0  0  0  0  0  0  0  0  0  0  0  0
  -21.8608    8.9192  -13.6541 C   0  0  0  0  0  0  0  0  0  0  0  0
  -21.3604    9.3921  -14.8563 C   0  0  0  0  0  0  0  0  0  0  0  0
  -23.2845    9.0038  -13.3658 C   0  0  0  0  0  0  0  0  0  0  0  0
  -23.6003    9.7725  -12.2684 F   0  0  0  0  0  0  0  0  0  0  0  0
  -23.8301    7.7358  -13.3123 F   0  0  0  0  0  0  0  0  0  0  0  0
  -23.9263    9.6304  -14.4429 F   0  0  0  0  0  0  0  0  0  0  0  0
 10 11  1  0  0  0
 11 12  1  0  0  0
 12 13  1  0  0  0
 13 14  1  0  0  0
 14 15  1  0  0  0
 15 16  1  0  0  0
 14  1  1  0  0  0
  1  2  2  0  0  0
  2  3  1  0  0  0
  3  4  2  0  0  0
  4  5  1  0  0  0
  5  6  2  0  0  0
  6 17  1  0  0  0
 17 18  1  0  0  0
 18 19  2  0  0  0
 18 21  1  0  0  0
 21 22  2  0  0  0
 22 23  1  0  0  0
 23 24  2  0  0  0
 24 25  1  0  0  0
 24 26  1  0  0  0
 26 27  2  0  0  0
 26 28  1  0  0  0
 28 29  1  0  0  0
 28 30  1  0  0  0
 28 31  1  0  0  0
  6  7  1  0  0  0
  7  8  1  0  0  0
  8  9  2  0  0  0
 16 11  1  0  0  0
  9  1  1  0  0  0
  8  4  1  0  0  0
 27 21  1  0  0  0
 17 20  1  0  0  0
M  END
> <minimizedAffinity>
-7.89326

> <CNNscore>
0.2094426304

> <CNNaffinity>
6.1398644447

> <CNN_VS>
1.2859493494

> <CNNaffinity_variance>
0.2438349426

$$$$
[H]c1c([H])c(C([H])([H])[H])c(C(F)(F)F)c([H])c1C(=O)N([H])c1nc2c([H])c([H])c(N3C([H])([H])C([H])([H])N(C([H])([H])[H])C([H])([H])C3([H])[H])c([H])c2s1


 31 34  0  0  0  0  0  0  0  0999 V2000
  -16.5356   13.1525  -22.7613 C   0  0  0  0  0  0  0  0  0  0  0  0
  -16.0208   11.9274  -22.3882 C   0  0  0  0  0  0  0  0  0  0  0  0
  -16.3729   11.2297  -21.2843 C   0  0  0  0  0  0  0  0  0  0  0  0
  -17.3476   11.7681  -20.4135 C   0  0  0  0  0  0  0  0  0  0  0  0
  -17.7789   11.2036  -19.3168 N   0  0  0  0  0  0  0  0  0  0  0  0
  -18.6923   11.7954  -18.5771 C   0  0  0  0  0  0  0  0  0  0  0  0
  -18.9748   13.2487  -19.4734 S   0  0  0  0  0  0  0  0  0  0  0  0
  -17.8774   12.9800  -20.7538 C   0  0  0  0  0  0  0  0  0  0  0  0
  -17.4885   13.6792  -21.9105 C   0  0  0  0  0  0  0  0  0  0  0  0
  -15.4245   15.5389  -27.3791 C   0  0  0  0  0  0  0  0  0  0  0  0
  -15.3372   15.6670  -25.9393 N   0  0  0  0  0  0  0  0  0  0  0  0
  -14.3617   14.8220  -25.3489 C   0  0  0  0  0  0  0  0  0  0  0  0
  -14.7332   14.1477  -24.0763 C   0  0  0  0  0  0  0  0  0  0  0  0
  -16.1413   13.8500  -23.9269 N   0  0  0  0  0  0  0  0  0  0  0  0
  -17.0421   14.2761  -24.9588 C   0  0  0  0  0  0  0  0  0  0  0  0
  -16.6160   15.7097  -25.3100 C   0  0  0  0  0  0  0  0  0  0  0  0
  -19.3009   11.3694  -17.3592 N   0  0  0  0  0  0  0  0  0  0  0  0
  -19.2714   10.0085  -17.0053 C   0  0  0  0  0  0  0  0  0  0  0  0
  -18.6937    9.1836  -17.7963 O   0  0  0  0  0  0  0  0  0  0  0  0
  -19.7504   12.0684  -16.7613 H   0  0  0  0  0  0  0  0  0  0  0  0
  -19.8638    9.4873  -15.7855 C   0  0  0  0  0  0  0  0  0  0  0  0
  -20.0135   10.3327  -14.6948 C   0  0  0  0  0  0  0  0  0  0  0  0
  -20.5692    9.8767  -13.5294 C   0  0  0  0  0  0  0  0  0  0  0  0
  -20.9908    8.5431  -13.4370 C   0  0  0  0  0  0  0  0  0  0  0  0
  -21.5975    8.0032  -12.1981 C   0  0  0  0  0  0  0  0  0  0  0  0
  -20.8559    7.6800  -14.5010 C   0  0  0  0  0  0  0  0  0  0  0  0
  -20.2900    8.1716  -15.6661 C   0  0  0  0  0  0  0  0  0  0  0  0
  -21.2889    6.2933  -14.4218 C   0  0  0  0  0  0  0  0  0  0  0  0
  -22.6256    6.1276  -14.1378 F   0  0  0  0  0  0  0  0  0  0  0  0
  -20.4635    5.5904  -13.5656 F   0  0  0  0  0  0  0  0  0  0  0  0
  -21.1085    5.6922  -15.6752 F   0  0  0  0  0  0  0  0  0  0  0  0
 10 11  1  0  0  0
 11 12  1  0  0  0
 12 13  1  0  0  0
 13 14  1  0  0  0
 14 15  1  0  0  0
 15 16  1  0  0  0
 14  1  1  0  0  0
  1  2  2  0  0  0
  2  3  1  0  0  0
  3  4  2  0  0  0
  4  5  1  0  0  0
  5  6  2  0  0  0
  6 17  1  0  0  0
 17 18  1  0  0  0
 18 19  2  0  0  0
 18 21  1  0  0  0
 21 22  2  0  0  0
 22 23  1  0  0  0
 23 24  2  0  0  0
 24 25  1  0  0  0
 24 26  1  0  0  0
 26 27  2  0  0  0
 26 28  1  0  0  0
 28 29  1  0  0  0
 28 30  1  0  0  0
 28 31  1  0  0  0
  6  7  1  0  0  0
  7  8  1  0  0  0
  8  9  2  0  0  0
 16 11  1  0  0  0
  9  1  1  0  0  0
  8  4  1  0  0  0
 27 21  1  0  0  0
 17 20  1  0  0  0
M  END
> <minimizedAffinity>
-8.29490

> <CNNscore>
0.1968193501

> <CNNaffinity>
6.2636671066

> <CNN_VS>
1.2328108549

> <CNNaffinity_variance>
0.2981168628

$$$$
[H]c1nc(N([H])C(=O)c2sc([H])c([H])c2[H])c2c(-c3c([H])c([H])c([H])c([H])c3[H])c(-c3c([H])c([H])c(OC([H])([H])C([H])([H])N(C([H])([H])[H])C([H])([H])[H])c([H])c3[H])oc2n1


 36 40  0  0  0  0  0  0  0  0999 V2000
  -18.4521   11.1640  -18.2949 C   0  0  0  0  0  0  0  0  0  0  0  0
  -17.5924   10.2541  -18.5884 O   0  0  0  0  0  0  0  0  0  0  0  0
  -16.9628   10.5352  -19.7136 C   0  0  0  0  0  0  0  0  0  0  0  0
  -16.0102    9.8557  -20.3762 N   0  0  0  0  0  0  0  0  0  0  0  0
  -15.5003   10.3117  -21.5256 C   0  0  0  0  0  0  0  0  0  0  0  0
  -15.9135   11.4549  -22.0589 N   0  0  0  0  0  0  0  0  0  0  0  0
  -16.8956   12.2069  -21.4196 C   0  0  0  0  0  0  0  0  0  0  0  0
  -17.4194   11.7282  -20.2311 C   0  0  0  0  0  0  0  0  0  0  0  0
  -18.3810   12.1280  -19.3125 C   0  0  0  0  0  0  0  0  0  0  0  0
  -21.0244   11.2064  -14.9142 C   0  0  0  0  0  0  0  0  0  0  0  0
  -20.7718   10.0440  -15.5907 C   0  0  0  0  0  0  0  0  0  0  0  0
  -19.9528   10.0409  -16.6828 C   0  0  0  0  0  0  0  0  0  0  0  0
  -19.3429   11.2226  -17.1506 C   0  0  0  0  0  0  0  0  0  0  0  0
  -19.5981   12.3825  -16.4730 C   0  0  0  0  0  0  0  0  0  0  0  0
  -20.4202   12.3956  -15.3745 C   0  0  0  0  0  0  0  0  0  0  0  0
  -21.8185   11.2444  -13.8270 O   0  0  0  0  0  0  0  0  0  0  0  0
  -21.6294   10.5900  -12.6072 C   0  0  0  0  0  0  0  0  0  0  0  0
  -20.3611   11.0639  -11.9623 C   0  0  0  0  0  0  0  0  0  0  0  0
  -20.9291   11.8382   -9.7807 C   0  0  0  0  0  0  0  0  0  0  0  0
  -20.2394   10.7753  -10.5529 N   0  0  0  0  0  0  0  0  0  0  0  0
  -18.9119   10.5798  -10.0755 C   0  0  0  0  0  0  0  0  0  0  0  0
  -19.2041   13.3077  -19.4005 C   0  0  0  0  0  0  0  0  0  0  0  0
  -20.4312   13.2790  -20.0217 C   0  0  0  0  0  0  0  0  0  0  0  0
  -21.2089   14.4359  -20.0366 C   0  0  0  0  0  0  0  0  0  0  0  0
  -20.8058   15.6148  -19.4553 C   0  0  0  0  0  0  0  0  0  0  0  0
  -19.5926   15.6395  -18.8418 C   0  0  0  0  0  0  0  0  0  0  0  0
  -18.8058   14.5166  -18.8134 C   0  0  0  0  0  0  0  0  0  0  0  0
  -17.1826   13.4855  -21.8796 N   0  0  0  0  0  0  0  0  0  0  0  0
  -17.4587   14.7156  -22.3197 C   0  0  0  0  0  0  0  0  0  0  0  0
  -17.9779   14.8943  -23.4984 O   0  0  0  0  0  0  0  0  0  0  0  0
  -16.7384   13.9862  -20.7253 H   0  0  0  0  0  0  0  0  0  0  0  0
  -17.2645   16.0353  -21.6523 C   0  0  0  0  0  0  0  0  0  0  0  0
  -16.3132   16.4190  -20.7437 C   0  0  0  0  0  0  0  0  0  0  0  0
  -16.3621   17.6819  -20.2869 C   0  0  0  0  0  0  0  0  0  0  0  0
  -17.3541   18.4929  -20.7597 C   0  0  0  0  0  0  0  0  0  0  0  0
  -18.1847   17.4582  -21.8264 S   0  0  0  0  0  0  0  0  0  0  0  0
 19 20  1  0  0  0
 20 21  1  0  0  0
 20 18  1  0  0  0
 18 17  1  0  0  0
 17 16  1  0  0  0
 16 10  1  0  0  0
 10 11  2  0  0  0
 11 12  1  0  0  0
 12 13  2  0  0  0
 13 14  1  0  0  0
 14 15  2  0  0  0
 13  1  1  0  0  0
  1  2  1  0  0  0
  2  3  1  0  0  0
  3  4  2  0  0  0
  4  5  1  0  0  0
  5  6  2  0  0  0
  6  7  1  0  0  0
  7 28  1  0  0  0
 28 29  1  0  0  0
 29 30  2  0  0  0
 29 32  1  0  0  0
 32 33  2  0  0  0
 33 34  1  0  0  0
 34 35  2  0  0  0
 35 36  1  0  0  0
  7  8  2  0  0  0
  8  9  1  0  0  0
  9 22  1  0  0  0
 22 23  2  0  0  0
 23 24  1  0  0  0
 24 25  2  0  0  0
 25 26  1  0  0  0
 26 27  2  0  0  0
 15 10  1  0  0  0
  9  1  2  0  0  0
 27 22  1  0  0  0
  8  3  1  0  0  0
 36 32  1  0  0  0
 28 31  1  0  0  0
M  END
> <minimizedAffinity>
-8.33133

> <CNNscore>
0.8683061600

> <CNNaffinity>
7.4149885178

> <CNN_VS>
6.4384803772

> <CNNaffinity_variance>
0.0776732787

$$$$
[H]c1nc(N([H])C(=O)c2sc([H])c([H])c2[H])c2c(-c3c([H])c([H])c([H])c([H])c3[H])c(-c3c([H])c([H])c(OC([H])([H])C([H])([H])N(C([H])([H])[H])C([H])([H])[H])c([H])c3[H])oc2n1


 36 40  0  0  0  0  0  0  0  0999 V2000
  -18.1956   11.1864  -18.5100 C   0  0  0  0  0  0  0  0  0  0  0  0
  -17.2998   10.3314  -18.8558 O   0  0  0  0  0  0  0  0  0  0  0  0
  -16.7213   10.6762  -19.9906 C   0  0  0  0  0  0  0  0  0  0  0  0
  -15.7562   10.0664  -20.7012 N   0  0  0  0  0  0  0  0  0  0  0  0
  -15.3069   10.5802  -21.8514 C   0  0  0  0  0  0  0  0  0  0  0  0
  -15.7951   11.7146  -22.3382 N   0  0  0  0  0  0  0  0  0  0  0  0
  -16.7939   12.3960  -21.6479 C   0  0  0  0  0  0  0  0  0  0  0  0
  -17.2548   11.8576  -20.4589 C   0  0  0  0  0  0  0  0  0  0  0  0
  -18.2063   12.1808  -19.5005 C   0  0  0  0  0  0  0  0  0  0  0  0
  -20.7399   11.2572  -15.1087 C   0  0  0  0  0  0  0  0  0  0  0  0
  -20.1428   12.4012  -15.5637 C   0  0  0  0  0  0  0  0  0  0  0  0
  -19.3177   12.3680  -16.6508 C   0  0  0  0  0  0  0  0  0  0  0  0
  -19.0519   11.1664  -17.3384 C   0  0  0  0  0  0  0  0  0  0  0  0
  -19.6493   10.0249  -16.8806 C   0  0  0  0  0  0  0  0  0  0  0  0
  -20.4798   10.0484  -15.7886 C   0  0  0  0  0  0  0  0  0  0  0  0
  -21.5676   11.2550  -14.0461 O   0  0  0  0  0  0  0  0  0  0  0  0
  -21.7636   10.2296  -13.1176 C   0  0  0  0  0  0  0  0  0  0  0  0
  -23.2225   10.1022  -12.7948 C   0  0  0  0  0  0  0  0  0  0  0  0
  -22.9291    7.9225  -13.7137 C   0  0  0  0  0  0  0  0  0  0  0  0
  -23.9050    9.0067  -13.4418 N   0  0  0  0  0  0  0  0  0  0  0  0
  -24.6334    9.3423  -14.6188 C   0  0  0  0  0  0  0  0  0  0  0  0
  -19.0915   13.3177  -19.5291 C   0  0  0  0  0  0  0  0  0  0  0  0
  -20.3390   13.2387  -20.1036 C   0  0  0  0  0  0  0  0  0  0  0  0
  -21.1748   14.3536  -20.0614 C   0  0  0  0  0  0  0  0  0  0  0  0
  -20.8100   15.5390  -19.4681 C   0  0  0  0  0  0  0  0  0  0  0  0
  -19.5765   15.6135  -18.9008 C   0  0  0  0  0  0  0  0  0  0  0  0
  -18.7328   14.5326  -18.9291 C   0  0  0  0  0  0  0  0  0  0  0  0
  -17.1608   13.6701  -22.0613 N   0  0  0  0  0  0  0  0  0  0  0  0
  -17.5135   14.8958  -22.4566 C   0  0  0  0  0  0  0  0  0  0  0  0
  -18.1416   15.0718  -23.5815 O   0  0  0  0  0  0  0  0  0  0  0  0
  -16.6307   14.1709  -20.9439 H   0  0  0  0  0  0  0  0  0  0  0  0
  -17.3015   16.2130  -21.7895 C   0  0  0  0  0  0  0  0  0  0  0  0
  -16.4484   16.5442  -20.7697 C   0  0  0  0  0  0  0  0  0  0  0  0
  -16.4539   17.8184  -20.3424 C   0  0  0  0  0  0  0  0  0  0  0  0
  -17.3073   18.6921  -20.9537 C   0  0  0  0  0  0  0  0  0  0  0  0
  -18.0733   17.6985  -22.1046 S   0  0  0  0  0  0  0  0  0  0  0  0
 19 20  1  0  0  0
 20 21  1  0  0  0
 20 18  1  0  0  0
 18 17  1  0  0  0
 17 16  1  0  0  0
 16 10  1  0  0  0
 10 11  2  0  0  0
 11 12  1  0  0  0
 12 13  2  0  0  0
 13 14  1  0  0  0
 14 15  2  0  0  0
 13  1  1  0  0  0
  1  2  1  0  0  0
  2  3  1  0  0  0
  3  4  2  0  0  0
  4  5  1  0  0  0
  5  6  2  0  0  0
  6  7  1  0  0  0
  7 28  1  0  0  0
 28 29  1  0  0  0
 29 30  2  0  0  0
 29 32  1  0  0  0
 32 33  2  0  0  0
 33 34  1  0  0  0
 34 35  2  0  0  0
 35 36  1  0  0  0
  7  8  2  0  0  0
  8  9  1  0  0  0
  9 22  1  0  0  0
 22 23  2  0  0  0
 23 24  1  0  0  0
 24 25  2  0  0  0
 25 26  1  0  0  0
 26 27  2  0  0  0
 15 10  1  0  0  0
  9  1  2  0  0  0
 27 22  1  0  0  0
  8  3  1  0  0  0
 36 32  1  0  0  0
 28 31  1  0  0  0
M  END
> <minimizedAffinity>
-7.76962

> <CNNscore>
0.8142928481

> <CNNaffinity>
7.3731603622

> <CNN_VS>
6.0039119720

> <CNNaffinity_variance>
0.1102365628

$$$$
[H]c1nc(N([H])C(=O)c2sc([H])c([H])c2[H])c2c(-c3c([H])c([H])c([H])c([H])c3[H])c(-c3c([H])c([H])c(OC([H])([H])C([H])([H])N(C([H])([H])[H])C([H])([H])[H])c([H])c3[H])oc2n1


 36 40  0  0  0  0  0  0  0  0999 V2000
  -18.4146   13.5208  -19.9869 C   0  0  0  0  0  0  0  0  0  0  0  0
  -18.1418   12.3247  -19.6021 O   0  0  0  0  0  0  0  0  0  0  0  0
  -17.2551   11.7564  -20.3972 C   0  0  0  0  0  0  0  0  0  0  0  0
  -16.7101   10.5276  -20.3629 N   0  0  0  0  0  0  0  0  0  0  0  0
  -15.8227   10.1324  -21.2824 C   0  0  0  0  0  0  0  0  0  0  0  0
  -15.4428   10.9383  -22.2663 N   0  0  0  0  0  0  0  0  0  0  0  0
  -15.9683   12.2246  -22.3554 C   0  0  0  0  0  0  0  0  0  0  0  0
  -16.8870   12.6261  -21.4010 C   0  0  0  0  0  0  0  0  0  0  0  0
  -17.6395   13.7617  -21.1319 C   0  0  0  0  0  0  0  0  0  0  0  0
  -21.2161   16.2063  -18.2585 C   0  0  0  0  0  0  0  0  0  0  0  0
  -21.5922   15.3386  -19.2474 C   0  0  0  0  0  0  0  0  0  0  0  0
  -20.6832   14.4865  -19.8054 C   0  0  0  0  0  0  0  0  0  0  0  0
  -19.3367   14.4686  -19.3887 C   0  0  0  0  0  0  0  0  0  0  0  0
  -18.9639   15.3376  -18.4011 C   0  0  0  0  0  0  0  0  0  0  0  0
  -19.8702   16.1979  -17.8345 C   0  0  0  0  0  0  0  0  0  0  0  0
  -22.0883   17.0531  -17.6785 O   0  0  0  0  0  0  0  0  0  0  0  0
  -21.8594   18.3701  -17.2726 C   0  0  0  0  0  0  0  0  0  0  0  0
  -22.2182   18.5302  -15.8253 C   0  0  0  0  0  0  0  0  0  0  0  0
  -22.5294   17.3573  -13.7738 C   0  0  0  0  0  0  0  0  0  0  0  0
  -21.6243   17.5647  -14.9311 N   0  0  0  0  0  0  0  0  0  0  0  0
  -20.3008   17.8594  -14.4954 C   0  0  0  0  0  0  0  0  0  0  0  0
  -17.6629   14.9724  -21.9133 C   0  0  0  0  0  0  0  0  0  0  0  0
  -16.8503   16.0387  -21.6049 C   0  0  0  0  0  0  0  0  0  0  0  0
  -16.8768   17.1679  -22.4220 C   0  0  0  0  0  0  0  0  0  0  0  0
  -17.6828   17.2687  -23.5313 C   0  0  0  0  0  0  0  0  0  0  0  0
  -18.4844   16.2129  -23.8334 C   0  0  0  0  0  0  0  0  0  0  0  0
  -18.4799   15.0900  -23.0462 C   0  0  0  0  0  0  0  0  0  0  0  0
  -15.4263   13.1209  -23.2674 N   0  0  0  0  0  0  0  0  0  0  0  0
  -14.9065   13.9817  -24.1460 C   0  0  0  0  0  0  0  0  0  0  0  0
  -13.7800   14.5810  -23.8959 O   0  0  0  0  0  0  0  0  0  0  0  0
  -16.4588   12.8957  -24.0821 H   0  0  0  0  0  0  0  0  0  0  0  0
  -15.4238   14.4206  -25.4743 C   0  0  0  0  0  0  0  0  0  0  0  0
  -16.5191   13.9803  -26.1701 C   0  0  0  0  0  0  0  0  0  0  0  0
  -16.7667   14.5453  -27.3639 C   0  0  0  0  0  0  0  0  0  0  0  0
  -15.9115   15.5173  -27.7989 C   0  0  0  0  0  0  0  0  0  0  0  0
  -14.7895   15.6050  -26.5215 S   0  0  0  0  0  0  0  0  0  0  0  0
 19 20  1  0  0  0
 20 21  1  0  0  0
 20 18  1  0  0  0
 18 17  1  0  0  0
 17 16  1  0  0  0
 16 10  1  0  0  0
 10 11  2  0  0  0
 11 12  1  0  0  0
 12 13  2  0  0  0
 13 14  1  0  0  0
 14 15  2  0  0  0
 13  1  1  0  0  0
  1  2  1  0  0  0
  2  3  1  0  0  0
  3  4  2  0  0  0
  4  5  1  0  0  0
  5  6  2  0  0  0
  6  7  1  0  0  0
  7 28  1  0  0  0
 28 29  1  0  0  0
 29 30  2  0  0  0
 29 32  1  0  0  0
 32 33  2  0  0  0
 33 34  1  0  0  0
 34 35  2  0  0  0
 35 36  1  0  0  0
  7  8  2  0  0  0
  8  9  1  0  0  0
  9 22  1  0  0  0
 22 23  2  0  0  0
 23 24  1  0  0  0
 24 25  2  0  0  0
 25 26  1  0  0  0
 26 27  2  0  0  0
 15 10  1  0  0  0
  9  1  2  0  0  0
 27 22  1  0  0  0
  8  3  1  0  0  0
 36 32  1  0  0  0
 28 31  1  0  0  0
M  END
> <minimizedAffinity>
-8.21037

> <CNNscore>
0.7728175521

> <CNNaffinity>
7.5236043930

> <CNN_VS>
5.8143734932

> <CNNaffinity_variance>
0.0923900008

$$$$
[H]c1nc(N([H])C(=O)c2sc([H])c([H])c2[H])c2c(-c3c([H])c([H])c([H])c([H])c3[H])c(-c3c([H])c([H])c(OC([H])([H])C([H])([H])N(C([H])([H])[H])C([H])([H])[H])c([H])c3[H])oc2n1


 36 40  0  0  0  0  0  0  0  0999 V2000
  -18.5338   13.6484  -20.1269 C   0  0  0  0  0  0  0  0  0  0  0  0
  -18.2746   12.4669  -19.6913 O   0  0  0  0  0  0  0  0  0  0  0  0
  -17.3593   11.8729  -20.4334 C   0  0  0  0  0  0  0  0  0  0  0  0
  -16.8155   10.6469  -20.3368 N   0  0  0  0  0  0  0  0  0  0  0  0
  -15.8950   10.2217  -21.2092 C   0  0  0  0  0  0  0  0  0  0  0  0
  -15.4799   10.9938  -22.2060 N   0  0  0  0  0  0  0  0  0  0  0  0
  -16.0022   12.2754  -22.3585 C   0  0  0  0  0  0  0  0  0  0  0  0
  -16.9552   12.7081  -21.4526 C   0  0  0  0  0  0  0  0  0  0  0  0
  -17.7176   13.8510  -21.2505 C   0  0  0  0  0  0  0  0  0  0  0  0
  -21.1906   16.5623  -18.5464 C   0  0  0  0  0  0  0  0  0  0  0  0
  -19.9063   16.4589  -18.0858 C   0  0  0  0  0  0  0  0  0  0  0  0
  -19.0622   15.5125  -18.5912 C   0  0  0  0  0  0  0  0  0  0  0  0
  -19.4774   14.6149  -19.5957 C   0  0  0  0  0  0  0  0  0  0  0  0
  -20.7616   14.7202  -20.0530 C   0  0  0  0  0  0  0  0  0  0  0  0
  -21.6174   15.6680  -19.5510 C   0  0  0  0  0  0  0  0  0  0  0  0
  -22.0470   17.4906  -18.0782 O   0  0  0  0  0  0  0  0  0  0  0  0
  -22.0961   18.0375  -16.7936 C   0  0  0  0  0  0  0  0  0  0  0  0
  -21.5883   19.4483  -16.8172 C   0  0  0  0  0  0  0  0  0  0  0  0
  -19.8239   20.2811  -18.1865 C   0  0  0  0  0  0  0  0  0  0  0  0
  -21.2734   19.9697  -18.1262 N   0  0  0  0  0  0  0  0  0  0  0  0
  -22.0513   21.0851  -18.5497 C   0  0  0  0  0  0  0  0  0  0  0  0
  -17.7130   15.0340  -22.0736 C   0  0  0  0  0  0  0  0  0  0  0  0
  -18.5209   15.1372  -23.1822 C   0  0  0  0  0  0  0  0  0  0  0  0
  -18.5138   16.3223  -23.9164 C   0  0  0  0  0  0  0  0  0  0  0  0
  -17.7317   17.4029  -23.5833 C   0  0  0  0  0  0  0  0  0  0  0  0
  -16.9346   17.2976  -22.4868 C   0  0  0  0  0  0  0  0  0  0  0  0
  -16.9204   16.1429  -21.7470 C   0  0  0  0  0  0  0  0  0  0  0  0
  -15.4278   13.1406  -23.2806 N   0  0  0  0  0  0  0  0  0  0  0  0
  -14.8768   13.9715  -24.1689 C   0  0  0  0  0  0  0  0  0  0  0  0
  -13.7307   14.5346  -23.9239 O   0  0  0  0  0  0  0  0  0  0  0  0
  -16.4659   12.9407  -24.0949 H   0  0  0  0  0  0  0  0  0  0  0  0
  -15.3759   14.4108  -25.5040 C   0  0  0  0  0  0  0  0  0  0  0  0
  -14.8864   15.3800  -26.3399 C   0  0  0  0  0  0  0  0  0  0  0  0
  -15.5318   15.5851  -27.5006 C   0  0  0  0  0  0  0  0  0  0  0  0
  -16.6277   14.8144  -27.7656 C   0  0  0  0  0  0  0  0  0  0  0  0
  -16.7171   13.8302  -26.3792 S   0  0  0  0  0  0  0  0  0  0  0  0
 19 20  1  0  0  0
 20 21  1  0  0  0
 20 18  1  0  0  0
 18 17  1  0  0  0
 17 16  1  0  0  0
 16 10  1  0  0  0
 10 11  2  0  0  0
 11 12  1  0  0  0
 12 13  2  0  0  0
 13 14  1  0  0  0
 14 15  2  0  0  0
 13  1  1  0  0  0
  1  2  1  0  0  0
  2  3  1  0  0  0
  3  4  2  0  0  0
  4  5  1  0  0  0
  5  6  2  0  0  0
  6  7  1  0  0  0
  7 28  1  0  0  0
 28 29  1  0  0  0
 29 30  2  0  0  0
 29 32  1  0  0  0
 32 33  2  0  0  0
 33 34  1  0  0  0
 34 35  2  0  0  0
 35 36  1  0  0  0
  7  8  2  0  0  0
  8  9  1  0  0  0
  9 22  1  0  0  0
 22 23  2  0  0  0
 23 24  1  0  0  0
 24 25  2  0  0  0
 25 26  1  0  0  0
 26 27  2  0  0  0
 15 10  1  0  0  0
  9  1  2  0  0  0
 27 22  1  0  0  0
  8  3  1  0  0  0
 36 32  1  0  0  0
 28 31  1  0  0  0
M  END
> <minimizedAffinity>
-7.92522

> <CNNscore>
0.6516342163

> <CNNaffinity>
7.4105772972

> <CNN_VS>
4.8289856911

> <CNNaffinity_variance>
0.0761670396

$$$$
[H]c1nc(N([H])C(=O)c2sc([H])c([H])c2[H])c2c(-c3c([H])c([H])c([H])c([H])c3[H])c(-c3c([H])c([H])c(OC([H])([H])C([H])([H])N(C([H])([H])[H])C([H])([H])[H])c([H])c3[H])oc2n1


 36 40  0  0  0  0  0  0  0  0999 V2000
  -18.0594   11.5598  -19.4204 C   0  0  0  0  0  0  0  0  0  0  0  0
  -17.2663   11.0629  -20.3020 O   0  0  0  0  0  0  0  0  0  0  0  0
  -17.0018   11.9365  -21.2549 C   0  0  0  0  0  0  0  0  0  0  0  0
  -16.2389   11.8251  -22.3566 N   0  0  0  0  0  0  0  0  0  0  0  0
  -16.1062   12.8395  -23.2184 C   0  0  0  0  0  0  0  0  0  0  0  0
  -16.7220   13.9986  -23.0204 N   0  0  0  0  0  0  0  0  0  0  0  0
  -17.5240   14.1782  -21.8966 C   0  0  0  0  0  0  0  0  0  0  0  0
  -17.6576   13.1238  -21.0098 C   0  0  0  0  0  0  0  0  0  0  0  0
  -18.3393   12.8739  -19.8261 C   0  0  0  0  0  0  0  0  0  0  0  0
  -19.4925    9.6258  -15.9199 C   0  0  0  0  0  0  0  0  0  0  0  0
  -18.6306    8.9898  -16.7715 C   0  0  0  0  0  0  0  0  0  0  0  0
  -18.1835    9.6142  -17.9001 C   0  0  0  0  0  0  0  0  0  0  0  0
  -18.5887   10.9240  -18.2279 C   0  0  0  0  0  0  0  0  0  0  0  0
  -19.4507   11.5563  -17.3755 C   0  0  0  0  0  0  0  0  0  0  0  0
  -19.9058   10.9367  -16.2389 C   0  0  0  0  0  0  0  0  0  0  0  0
  -19.9453    9.0441  -14.7926 O   0  0  0  0  0  0  0  0  0  0  0  0
  -19.2083    8.6818  -13.6624 C   0  0  0  0  0  0  0  0  0  0  0  0
  -19.3716    9.7173  -12.5902 C   0  0  0  0  0  0  0  0  0  0  0  0
  -18.6774   10.4222  -10.4216 C   0  0  0  0  0  0  0  0  0  0  0  0
  -19.1001    9.2637  -11.2466 N   0  0  0  0  0  0  0  0  0  0  0  0
  -18.1689    8.1920  -11.1335 C   0  0  0  0  0  0  0  0  0  0  0  0
  -19.2224   13.7856  -19.1435 C   0  0  0  0  0  0  0  0  0  0  0  0
  -18.7587   14.6308  -18.1622 C   0  0  0  0  0  0  0  0  0  0  0  0
  -19.6452   15.5273  -17.5673 C   0  0  0  0  0  0  0  0  0  0  0  0
  -20.9724   15.6087  -17.9168 C   0  0  0  0  0  0  0  0  0  0  0  0
  -21.4273   14.7721  -18.8873 C   0  0  0  0  0  0  0  0  0  0  0  0
  -20.5777   13.8790  -19.4885 C   0  0  0  0  0  0  0  0  0  0  0  0
  -18.0064   15.4461  -21.5987 N   0  0  0  0  0  0  0  0  0  0  0  0
  -18.4714   16.6650  -21.3143 C   0  0  0  0  0  0  0  0  0  0  0  0
  -17.8009   17.4628  -20.5367 O   0  0  0  0  0  0  0  0  0  0  0  0
  -19.0679   15.2094  -22.3718 H   0  0  0  0  0  0  0  0  0  0  0  0
  -19.7253   17.3379  -21.7615 C   0  0  0  0  0  0  0  0  0  0  0  0
  -20.8499   17.6481  -21.0429 C   0  0  0  0  0  0  0  0  0  0  0  0
  -21.8551   18.2591  -21.6927 C   0  0  0  0  0  0  0  0  0  0  0  0
  -21.6853   18.5280  -23.0209 C   0  0  0  0  0  0  0  0  0  0  0  0
  -20.1245   17.9145  -23.3139 S   0  0  0  0  0  0  0  0  0  0  0  0
 19 20  1  0  0  0
 20 21  1  0  0  0
 20 18  1  0  0  0
 18 17  1  0  0  0
 17 16  1  0  0  0
 16 10  1  0  0  0
 10 11  2  0  0  0
 11 12  1  0  0  0
 12 13  2  0  0  0
 13 14  1  0  0  0
 14 15  2  0  0  0
 13  1  1  0  0  0
  1  2  1  0  0  0
  2  3  1  0  0  0
  3  4  2  0  0  0
  4  5  1  0  0  0
  5  6  2  0  0  0
  6  7  1  0  0  0
  7 28  1  0  0  0
 28 29  1  0  0  0
 29 30  2  0  0  0
 29 32  1  0  0  0
 32 33  2  0  0  0
 33 34  1  0  0  0
 34 35  2  0  0  0
 35 36  1  0  0  0
  7  8  2  0  0  0
  8  9  1  0  0  0
  9 22  1  0  0  0
 22 23  2  0  0  0
 23 24  1  0  0  0
 24 25  2  0  0  0
 25 26  1  0  0  0
 26 27  2  0  0  0
 15 10  1  0  0  0
  9  1  2  0  0  0
 27 22  1  0  0  0
  8  3  1  0  0  0
 36 32  1  0  0  0
 28 31  1  0  0  0
M  END
> <minimizedAffinity>
-8.27616

> <CNNscore>
0.6483408213

> <CNNaffinity>
7.2500166893

> <CNN_VS>
4.7004818916

> <CNNaffinity_variance>
0.1384686828

$$$$
[H]c1nc(N([H])C(=O)c2sc([H])c([H])c2[H])c2c(-c3c([H])c([H])c([H])c([H])c3[H])c(-c3c([H])c([H])c(OC([H])([H])C([H])([H])N(C([H])([H])[H])C([H])([H])[H])c([H])c3[H])oc2n1


 36 40  0  0  0  0  0  0  0  0999 V2000
  -17.4070   14.0211  -21.7388 C   0  0  0  0  0  0  0  0  0  0  0  0
  -16.6654   13.0799  -22.2047 O   0  0  0  0  0  0  0  0  0  0  0  0
  -16.6668   12.0293  -21.4062 C   0  0  0  0  0  0  0  0  0  0  0  0
  -16.0264   10.8514  -21.5092 N   0  0  0  0  0  0  0  0  0  0  0  0
  -16.1522    9.9051  -20.5722 C   0  0  0  0  0  0  0  0  0  0  0  0
  -16.9157   10.0901  -19.5023 N   0  0  0  0  0  0  0  0  0  0  0  0
  -17.6075   11.2873  -19.3388 C   0  0  0  0  0  0  0  0  0  0  0  0
  -17.4716   12.2624  -20.3118 C   0  0  0  0  0  0  0  0  0  0  0  0
  -17.9449   13.5493  -20.5313 C   0  0  0  0  0  0  0  0  0  0  0  0
  -18.2870   17.8095  -23.4481 C   0  0  0  0  0  0  0  0  0  0  0  0
  -18.8859   16.6713  -23.9154 C   0  0  0  0  0  0  0  0  0  0  0  0
  -18.5892   15.4564  -23.3681 C   0  0  0  0  0  0  0  0  0  0  0  0
  -17.6641   15.3295  -22.3120 C   0  0  0  0  0  0  0  0  0  0  0  0
  -17.0668   16.4685  -21.8480 C   0  0  0  0  0  0  0  0  0  0  0  0
  -17.3583   17.6940  -22.3921 C   0  0  0  0  0  0  0  0  0  0  0  0
  -18.5636   19.0254  -23.9572 O   0  0  0  0  0  0  0  0  0  0  0  0
  -19.2448   20.0763  -23.3381 C   0  0  0  0  0  0  0  0  0  0  0  0
  -20.5408   19.5820  -22.7681 C   0  0  0  0  0  0  0  0  0  0  0  0
  -22.2175   18.4515  -24.0297 C   0  0  0  0  0  0  0  0  0  0  0  0
  -21.6991   19.7762  -23.6079 N   0  0  0  0  0  0  0  0  0  0  0  0
  -21.5102   20.6300  -24.7321 C   0  0  0  0  0  0  0  0  0  0  0  0
  -18.8069   14.3006  -19.6542 C   0  0  0  0  0  0  0  0  0  0  0  0
  -18.2948   15.0748  -18.6389 C   0  0  0  0  0  0  0  0  0  0  0  0
  -19.1696   15.8201  -17.8496 C   0  0  0  0  0  0  0  0  0  0  0  0
  -20.5314   15.8191  -18.0383 C   0  0  0  0  0  0  0  0  0  0  0  0
  -21.0341   15.0530  -19.0429 C   0  0  0  0  0  0  0  0  0  0  0  0
  -20.1969   14.3085  -19.8339 C   0  0  0  0  0  0  0  0  0  0  0  0
  -18.5477   11.3982  -18.3226 N   0  0  0  0  0  0  0  0  0  0  0  0
  -19.4524   11.5026  -17.3461 C   0  0  0  0  0  0  0  0  0  0  0  0
  -19.8534   12.6709  -16.9395 O   0  0  0  0  0  0  0  0  0  0  0  0
  -18.6067   10.0671  -18.2500 H   0  0  0  0  0  0  0  0  0  0  0  0
  -20.1470   10.4358  -16.5688 C   0  0  0  0  0  0  0  0  0  0  0  0
  -19.7225    9.1710  -16.2562 C   0  0  0  0  0  0  0  0  0  0  0  0
  -20.5522    8.3957  -15.5376 C   0  0  0  0  0  0  0  0  0  0  0  0
  -21.7576    8.9218  -15.1695 C   0  0  0  0  0  0  0  0  0  0  0  0
  -21.6876   10.4835  -15.8437 S   0  0  0  0  0  0  0  0  0  0  0  0
 19 20  1  0  0  0
 20 21  1  0  0  0
 20 18  1  0  0  0
 18 17  1  0  0  0
 17 16  1  0  0  0
 16 10  1  0  0  0
 10 11  2  0  0  0
 11 12  1  0  0  0
 12 13  2  0  0  0
 13 14  1  0  0  0
 14 15  2  0  0  0
 13  1  1  0  0  0
  1  2  1  0  0  0
  2  3  1  0  0  0
  3  4  2  0  0  0
  4  5  1  0  0  0
  5  6  2  0  0  0
  6  7  1  0  0  0
  7 28  1  0  0  0
 28 29  1  0  0  0
 29 30  2  0  0  0
 29 32  1  0  0  0
 32 33  2  0  0  0
 33 34  1  0  0  0
 34 35  2  0  0  0
 35 36  1  0  0  0
  7  8  2  0  0  0
  8  9  1  0  0  0
  9 22  1  0  0  0
 22 23  2  0  0  0
 23 24  1  0  0  0
 24 25  2  0  0  0
 25 26  1  0  0  0
 26 27  2  0  0  0
 15 10  1  0  0  0
  9  1  2  0  0  0
 27 22  1  0  0  0
  8  3  1  0  0  0
 36 32  1  0  0  0
 28 31  1  0  0  0
M  END
> <minimizedAffinity>
-8.34559

> <CNNscore>
0.5417768359

> <CNNaffinity>
7.0907258987

> <CNN_VS>
3.8415911198

> <CNNaffinity_variance>
0.1037996039

$$$$
[H]c1nc(N([H])C(=O)c2sc([H])c([H])c2[H])c2c(-c3c([H])c([H])c([H])c([H])c3[H])c(-c3c([H])c([H])c(OC([H])([H])C([H])([H])N(C([H])([H])[H])C([H])([H])[H])c([H])c3[H])oc2n1


 36 40  0  0  0  0  0  0  0  0999 V2000
  -19.2115   11.0308  -17.3149 C   0  0  0  0  0  0  0  0  0  0  0  0
  -18.4977   10.0676  -17.7795 O   0  0  0  0  0  0  0  0  0  0  0  0
  -17.8200   10.4453  -18.8468 C   0  0  0  0  0  0  0  0  0  0  0  0
  -16.9751    9.7576  -19.6351 N   0  0  0  0  0  0  0  0  0  0  0  0
  -16.3885   10.3279  -20.6933 C   0  0  0  0  0  0  0  0  0  0  0  0
  -16.6161   11.5972  -21.0081 N   0  0  0  0  0  0  0  0  0  0  0  0
  -17.4788   12.3641  -20.2294 C   0  0  0  0  0  0  0  0  0  0  0  0
  -18.0830   11.7668  -19.1366 C   0  0  0  0  0  0  0  0  0  0  0  0
  -18.9824   12.1384  -18.1460 C   0  0  0  0  0  0  0  0  0  0  0  0
  -21.7207   11.0947  -13.8875 C   0  0  0  0  0  0  0  0  0  0  0  0
  -20.3841   11.3697  -13.7853 C   0  0  0  0  0  0  0  0  0  0  0  0
  -19.5826   11.3361  -14.8898 C   0  0  0  0  0  0  0  0  0  0  0  0
  -20.0957   11.0198  -16.1641 C   0  0  0  0  0  0  0  0  0  0  0  0
  -21.4314   10.7446  -16.2626 C   0  0  0  0  0  0  0  0  0  0  0  0
  -22.2450   10.7755  -15.1581 C   0  0  0  0  0  0  0  0  0  0  0  0
  -22.5427   11.1288  -12.8210 O   0  0  0  0  0  0  0  0  0  0  0  0
  -22.5231   12.0321  -11.7554 C   0  0  0  0  0  0  0  0  0  0  0  0
  -23.1830   13.3166  -12.1599 C   0  0  0  0  0  0  0  0  0  0  0  0
  -24.7688   12.8277  -10.4488 C   0  0  0  0  0  0  0  0  0  0  0  0
  -24.5715   13.4426  -11.7847 N   0  0  0  0  0  0  0  0  0  0  0  0
  -25.5132   12.9325  -12.7235 C   0  0  0  0  0  0  0  0  0  0  0  0
  -19.6145   13.4264  -18.0095 C   0  0  0  0  0  0  0  0  0  0  0  0
  -20.6943   13.7790  -18.7854 C   0  0  0  0  0  0  0  0  0  0  0  0
  -21.2991   15.0181  -18.5797 C   0  0  0  0  0  0  0  0  0  0  0  0
  -20.8651   15.9130  -17.6304 C   0  0  0  0  0  0  0  0  0  0  0  0
  -19.7978   15.5611  -16.8650 C   0  0  0  0  0  0  0  0  0  0  0  0
  -19.1824   14.3490  -17.0469 C   0  0  0  0  0  0  0  0  0  0  0  0
  -17.5618   13.7327  -20.4501 N   0  0  0  0  0  0  0  0  0  0  0  0
  -17.6406   15.0483  -20.6644 C   0  0  0  0  0  0  0  0  0  0  0  0
  -17.7593   15.8740  -19.6669 O   0  0  0  0  0  0  0  0  0  0  0  0
  -17.4512   13.5145  -21.7619 H   0  0  0  0  0  0  0  0  0  0  0  0
  -17.6161   15.8109  -21.9461 C   0  0  0  0  0  0  0  0  0  0  0  0
  -18.5418   15.8451  -22.9558 C   0  0  0  0  0  0  0  0  0  0  0  0
  -18.2741   16.6211  -24.0198 C   0  0  0  0  0  0  0  0  0  0  0  0
  -17.1009   17.3203  -24.0199 C   0  0  0  0  0  0  0  0  0  0  0  0
  -16.4128   16.8655  -22.5306 S   0  0  0  0  0  0  0  0  0  0  0  0
 19 20  1  0  0  0
 20 21  1  0  0  0
 20 18  1  0  0  0
 18 17  1  0  0  0
 17 16  1  0  0  0
 16 10  1  0  0  0
 10 11  2  0  0  0
 11 12  1  0  0  0
 12 13  2  0  0  0
 13 14  1  0  0  0
 14 15  2  0  0  0
 13  1  1  0  0  0
  1  2  1  0  0  0
  2  3  1  0  0  0
  3  4  2  0  0  0
  4  5  1  0  0  0
  5  6  2  0  0  0
  6  7  1  0  0  0
  7 28  1  0  0  0
 28 29  1  0  0  0
 29 30  2  0  0  0
 29 32  1  0  0  0
 32 33  2  0  0  0
 33 34  1  0  0  0
 34 35  2  0  0  0
 35 36  1  0  0  0
  7  8  2  0  0  0
  8  9  1  0  0  0
  9 22  1  0  0  0
 22 23  2  0  0  0
 23 24  1  0  0  0
 24 25  2  0  0  0
 25 26  1  0  0  0
 26 27  2  0  0  0
 15 10  1  0  0  0
  9  1  2  0  0  0
 27 22  1  0  0  0
  8  3  1  0  0  0
 36 32  1  0  0  0
 28 31  1  0  0  0
M  END
> <minimizedAffinity>
-7.15963

> <CNNscore>
0.5376530290

> <CNNaffinity>
6.8185071945

> <CNN_VS>
3.6659910679

> <CNNaffinity_variance>
0.0985143334

$$$$
[H]c1nc(N([H])C(=O)c2sc([H])c([H])c2[H])c2c(-c3c([H])c([H])c([H])c([H])c3[H])c(-c3c([H])c([H])c(OC([H])([H])C([H])([H])N(C([H])([H])[H])C([H])([H])[H])c([H])c3[H])oc2n1


 36 40  0  0  0  0  0  0  0  0999 V2000
  -18.7034   14.1088  -18.9179 C   0  0  0  0  0  0  0  0  0  0  0  0
  -18.7355   13.0238  -18.2290 O   0  0  0  0  0  0  0  0  0  0  0  0
  -18.1328   12.0358  -18.8631 C   0  0  0  0  0  0  0  0  0  0  0  0
  -17.9519   10.7510  -18.5098 N   0  0  0  0  0  0  0  0  0  0  0  0
  -17.3135    9.8909  -19.3109 C   0  0  0  0  0  0  0  0  0  0  0  0
  -16.8313   10.2712  -20.4877 N   0  0  0  0  0  0  0  0  0  0  0  0
  -16.9834   11.5893  -20.9098 C   0  0  0  0  0  0  0  0  0  0  0  0
  -17.6462   12.4734  -20.0761 C   0  0  0  0  0  0  0  0  0  0  0  0
  -18.0188   13.8108  -20.1063 C   0  0  0  0  0  0  0  0  0  0  0  0
  -20.1898   17.9588  -17.9102 C   0  0  0  0  0  0  0  0  0  0  0  0
  -18.9670   17.5382  -17.4626 C   0  0  0  0  0  0  0  0  0  0  0  0
  -18.5015   16.2953  -17.7817 C   0  0  0  0  0  0  0  0  0  0  0  0
  -19.2549   15.4070  -18.5757 C   0  0  0  0  0  0  0  0  0  0  0  0
  -20.4767   15.8299  -19.0205 C   0  0  0  0  0  0  0  0  0  0  0  0
  -20.9532   17.0773  -18.7047 C   0  0  0  0  0  0  0  0  0  0  0  0
  -20.6757   19.1819  -17.6236 O   0  0  0  0  0  0  0  0  0  0  0  0
  -20.5201   19.9076  -16.4400 C   0  0  0  0  0  0  0  0  0  0  0  0
  -21.6219   19.5673  -15.4814 C   0  0  0  0  0  0  0  0  0  0  0  0
  -19.8048   18.9270  -14.0780 C   0  0  0  0  0  0  0  0  0  0  0  0
  -21.2416   18.7137  -14.3808 N   0  0  0  0  0  0  0  0  0  0  0  0
  -21.5261   17.3281  -14.5475 C   0  0  0  0  0  0  0  0  0  0  0  0
  -17.7869   14.7349  -21.1876 C   0  0  0  0  0  0  0  0  0  0  0  0
  -18.7194   14.9213  -22.1817 C   0  0  0  0  0  0  0  0  0  0  0  0
  -18.4667   15.8629  -23.1781 C   0  0  0  0  0  0  0  0  0  0  0  0
  -17.3205   16.6213  -23.2161 C   0  0  0  0  0  0  0  0  0  0  0  0
  -16.4012   16.4348  -22.2319 C   0  0  0  0  0  0  0  0  0  0  0  0
  -16.6230   15.5141  -21.2399 C   0  0  0  0  0  0  0  0  0  0  0  0
  -16.3137   12.0228  -22.0466 N   0  0  0  0  0  0  0  0  0  0  0  0
  -15.6718   12.4395  -23.1408 C   0  0  0  0  0  0  0  0  0  0  0  0
  -14.3895   12.2610  -23.2625 O   0  0  0  0  0  0  0  0  0  0  0  0
  -17.4706   12.4641  -22.5438 H   0  0  0  0  0  0  0  0  0  0  0  0
  -16.1987   13.1316  -24.3525 C   0  0  0  0  0  0  0  0  0  0  0  0
  -17.3761   12.9330  -25.0247 C   0  0  0  0  0  0  0  0  0  0  0  0
  -17.6129   13.6969  -26.1046 C   0  0  0  0  0  0  0  0  0  0  0  0
  -16.6657   14.6161  -26.4555 C   0  0  0  0  0  0  0  0  0  0  0  0
  -15.4757   14.3776  -25.2615 S   0  0  0  0  0  0  0  0  0  0  0  0
 19 20  1  0  0  0
 20 21  1  0  0  0
 20 18  1  0  0  0
 18 17  1  0  0  0
 17 16  1  0  0  0
 16 10  1  0  0  0
 10 11  2  0  0  0
 11 12  1  0  0  0
 12 13  2  0  0  0
 13 14  1  0  0  0
 14 15  2  0  0  0
 13  1  1  0  0  0
  1  2  1  0  0  0
  2  3  1  0  0  0
  3  4  2  0  0  0
  4  5  1  0  0  0
  5  6  2  0  0  0
  6  7  1  0  0  0
  7 28  1  0  0  0
 28 29  1  0  0  0
 29 30  2  0  0  0
 29 32  1  0  0  0
 32 33  2  0  0  0
 33 34  1  0  0  0
 34 35  2  0  0  0
 35 36  1  0  0  0
  7  8  2  0  0  0
  8  9  1  0  0  0
  9 22  1  0  0  0
 22 23  2  0  0  0
 23 24  1  0  0  0
 24 25  2  0  0  0
 25 26  1  0  0  0
 26 27  2  0  0  0
 15 10  1  0  0  0
  9  1  2  0  0  0
 27 22  1  0  0  0
  8  3  1  0  0  0
 36 32  1  0  0  0
 28 31  1  0  0  0
M  END
> <minimizedAffinity>
-8.06693

> <CNNscore>
0.5242264271

> <CNNaffinity>
7.3252944946

> <CNN_VS>
3.8401129246

> <CNNaffinity_variance>
0.1674530208

$$$$
[H]c1nc(N([H])C(=O)c2sc([H])c([H])c2[H])c2c(-c3c([H])c([H])c([H])c([H])c3[H])c(-c3c([H])c([H])c(OC([H])([H])C([H])([H])N(C([H])([H])[H])C([H])([H])[H])c([H])c3[H])oc2n1


 36 40  0  0  0  0  0  0  0  0999 V2000
  -19.2242   11.0202  -17.2621 C   0  0  0  0  0  0  0  0  0  0  0  0
  -18.5003   10.0598  -17.7166 O   0  0  0  0  0  0  0  0  0  0  0  0
  -17.8256   10.4339  -18.7872 C   0  0  0  0  0  0  0  0  0  0  0  0
  -16.9729    9.7471  -19.5680 N   0  0  0  0  0  0  0  0  0  0  0  0
  -16.3913   10.3130  -20.6313 C   0  0  0  0  0  0  0  0  0  0  0  0
  -16.6315   11.5767  -20.9587 N   0  0  0  0  0  0  0  0  0  0  0  0
  -17.5026   12.3424  -20.1882 C   0  0  0  0  0  0  0  0  0  0  0  0
  -18.1017   11.7498  -19.0901 C   0  0  0  0  0  0  0  0  0  0  0  0
  -19.0057   12.1219  -18.1038 C   0  0  0  0  0  0  0  0  0  0  0  0
  -21.8864   10.8927  -13.9539 C   0  0  0  0  0  0  0  0  0  0  0  0
  -22.3109   10.5583  -15.2110 C   0  0  0  0  0  0  0  0  0  0  0  0
  -21.4520   10.6126  -16.2707 C   0  0  0  0  0  0  0  0  0  0  0  0
  -20.1093   11.0115  -16.1119 C   0  0  0  0  0  0  0  0  0  0  0  0
  -19.6885   11.3459  -14.8547 C   0  0  0  0  0  0  0  0  0  0  0  0
  -20.5446   11.2947  -13.7836 C   0  0  0  0  0  0  0  0  0  0  0  0
  -22.7033   10.8404  -12.8843 O   0  0  0  0  0  0  0  0  0  0  0  0
  -24.0226   10.3832  -12.8381 C   0  0  0  0  0  0  0  0  0  0  0  0
  -24.4864   10.2988  -11.4145 C   0  0  0  0  0  0  0  0  0  0  0  0
  -23.5398    8.9211   -9.7153 C   0  0  0  0  0  0  0  0  0  0  0  0
  -24.4988    8.9715  -10.8464 N   0  0  0  0  0  0  0  0  0  0  0  0
  -24.2623    7.9063  -11.7617 C   0  0  0  0  0  0  0  0  0  0  0  0
  -19.6509   13.4046  -17.9805 C   0  0  0  0  0  0  0  0  0  0  0  0
  -20.7365   13.7369  -18.7574 C   0  0  0  0  0  0  0  0  0  0  0  0
  -21.3537   14.9719  -18.5644 C   0  0  0  0  0  0  0  0  0  0  0  0
  -20.9266   15.8822  -17.6267 C   0  0  0  0  0  0  0  0  0  0  0  0
  -19.8537   15.5504  -16.8602 C   0  0  0  0  0  0  0  0  0  0  0  0
  -19.2261   14.3428  -17.0297 C   0  0  0  0  0  0  0  0  0  0  0  0
  -17.5994   13.7079  -20.4224 N   0  0  0  0  0  0  0  0  0  0  0  0
  -17.6915   15.0205  -20.6497 C   0  0  0  0  0  0  0  0  0  0  0  0
  -17.7681   15.8586  -19.6585 O   0  0  0  0  0  0  0  0  0  0  0  0
  -17.5465   13.4731  -21.7349 H   0  0  0  0  0  0  0  0  0  0  0  0
  -17.7261   15.7666  -21.9408 C   0  0  0  0  0  0  0  0  0  0  0  0
  -18.2165   15.3750  -23.1589 C   0  0  0  0  0  0  0  0  0  0  0  0
  -18.1212   16.2462  -24.1777 C   0  0  0  0  0  0  0  0  0  0  0  0
  -17.5441   17.4586  -23.9279 C   0  0  0  0  0  0  0  0  0  0  0  0
  -17.1537   17.3357  -22.2753 S   0  0  0  0  0  0  0  0  0  0  0  0
 19 20  1  0  0  0
 20 21  1  0  0  0
 20 18  1  0  0  0
 18 17  1  0  0  0
 17 16  1  0  0  0
 16 10  1  0  0  0
 10 11  2  0  0  0
 11 12  1  0  0  0
 12 13  2  0  0  0
 13 14  1  0  0  0
 14 15  2  0  0  0
 13  1  1  0  0  0
  1  2  1  0  0  0
  2  3  1  0  0  0
  3  4  2  0  0  0
  4  5  1  0  0  0
  5  6  2  0  0  0
  6  7  1  0  0  0
  7 28  1  0  0  0
 28 29  1  0  0  0
 29 30  2  0  0  0
 29 32  1  0  0  0
 32 33  2  0  0  0
 33 34  1  0  0  0
 34 35  2  0  0  0
 35 36  1  0  0  0
  7  8  2  0  0  0
  8  9  1  0  0  0
  9 22  1  0  0  0
 22 23  2  0  0  0
 23 24  1  0  0  0
 24 25  2  0  0  0
 25 26  1  0  0  0
 26 27  2  0  0  0
 15 10  1  0  0  0
  9  1  2  0  0  0
 27 22  1  0  0  0
  8  3  1  0  0  0
 36 32  1  0  0  0
 28 31  1  0  0  0
M  END
> <minimizedAffinity>
-7.00318

> <CNNscore>
0.4974392653

> <CNNaffinity>
6.7498869896

> <CNN_VS>
3.3576588631

> <CNNaffinity_variance>
0.0951759070

$$$$
[H]c1nc(N([H])[H])c2c(-c3c([H])c([H])c(Oc4c([H])c([H])c([H])c([H])c4[H])c([H])c3[H])c(I)n(C3([H])C([H])([H])C([H])([H])C([H])([H])C3([H])[H])c2n1


 31 35  0  0  0  0  0  0  0  0999 V2000
  -17.0130   10.1530  -18.4362 N   0  0  0  0  0  0  0  0  0  0  0  0
  -16.5995   10.5857  -19.7270 C   0  0  0  0  0  0  0  0  0  0  0  0
  -15.6707    9.9236  -20.4311 N   0  0  0  0  0  0  0  0  0  0  0  0
  -15.2974   10.3555  -21.6506 C   0  0  0  0  0  0  0  0  0  0  0  0
  -15.8776   11.4523  -22.1276 N   0  0  0  0  0  0  0  0  0  0  0  0
  -16.8177   12.1683  -21.4764 C   0  0  0  0  0  0  0  0  0  0  0  0
  -17.5101   13.2974  -21.8032 N   0  0  0  0  0  0  0  0  0  0  0  0
  -18.3141   13.5689  -20.7884 C   0  0  0  0  0  0  0  0  0  0  0  0
  -19.6658   15.1523  -20.5922 I   0  0  0  0  0  0  0  0  0  0  0  0
  -18.1567   12.6146  -19.7781 C   0  0  0  0  0  0  0  0  0  0  0  0
  -17.2025   11.7291  -20.2272 C   0  0  0  0  0  0  0  0  0  0  0  0
  -17.9217    9.6141  -18.4056 H   0  0  0  0  0  0  0  0  0  0  0  0
  -16.4583   10.3523  -17.5700 H   0  0  0  0  0  0  0  0  0  0  0  0
  -18.8255   12.5200  -18.5042 C   0  0  0  0  0  0  0  0  0  0  0  0
  -19.7789   11.5663  -18.2103 C   0  0  0  0  0  0  0  0  0  0  0  0
  -20.4030   11.5008  -16.9818 C   0  0  0  0  0  0  0  0  0  0  0  0
  -20.0941   12.4003  -15.9822 C   0  0  0  0  0  0  0  0  0  0  0  0
  -19.1421   13.3571  -16.2675 C   0  0  0  0  0  0  0  0  0  0  0  0
  -18.5156   13.4261  -17.4947 C   0  0  0  0  0  0  0  0  0  0  0  0
  -20.6823   12.3890  -14.7316 O   0  0  0  0  0  0  0  0  0  0  0  0
  -20.6384   11.3676  -13.8369 C   0  0  0  0  0  0  0  0  0  0  0  0
  -21.7739   10.6583  -13.5439 C   0  0  0  0  0  0  0  0  0  0  0  0
  -21.6883    9.6293  -12.6309 C   0  0  0  0  0  0  0  0  0  0  0  0
  -20.4908    9.3050  -12.0137 C   0  0  0  0  0  0  0  0  0  0  0  0
  -19.3652   10.0115  -12.3073 C   0  0  0  0  0  0  0  0  0  0  0  0
  -19.4585   11.0420  -13.2236 C   0  0  0  0  0  0  0  0  0  0  0  0
  -17.3671   14.0293  -23.0307 C   0  0  0  0  0  0  0  0  0  0  0  0
  -15.9541   14.6046  -23.0545 C   0  0  0  0  0  0  0  0  0  0  0  0
  -15.4901   14.5873  -24.4737 C   0  0  0  0  0  0  0  0  0  0  0  0
  -16.6103   14.0376  -25.2893 C   0  0  0  0  0  0  0  0  0  0  0  0
  -17.4025   13.2037  -24.2711 C   0  0  0  0  0  0  0  0  0  0  0  0
  1  2  1  0  0  0
  2  3  2  0  0  0
  3  4  1  0  0  0
  4  5  2  0  0  0
  5  6  1  0  0  0
  6  7  1  0  0  0
  7 27  1  0  0  0
 27 28  1  0  0  0
 28 29  1  0  0  0
 29 30  1  0  0  0
 30 31  1  0  0  0
  7  8  1  0  0  0
  8  9  1  0  0  0
  8 10  2  0  0  0
 10 14  1  0  0  0
 14 15  2  0  0  0
 15 16  1  0  0  0
 16 17  2  0  0  0
 17 20  1  0  0  0
 20 21  1  0  0  0
 21 22  2  0  0  0
 22 23  1  0  0  0
 23 24  2  0  0  0
 24 25  1  0  0  0
 25 26  2  0  0  0
 17 18  1  0  0  0
 18 19  2  0  0  0
 10 11  1  0  0  0
 11  2  1  0  0  0
 11  6  2  0  0  0
 31 27  1  0  0  0
 19 14  1  0  0  0
 26 21  1  0  0  0
  1 12  1  0  0  0
  1 13  1  0  0  0
M  END
> <minimizedAffinity>
-8.27149

> <CNNscore>
0.8539224267

> <CNNaffinity>
7.4315614700

> <CNN_VS>
6.3459768295

> <CNNaffinity_variance>
0.1528237164

$$$$
[H]c1nc(N([H])[H])c2c(-c3c([H])c([H])c(Oc4c([H])c([H])c([H])c([H])c4[H])c([H])c3[H])c(I)n(C3([H])C([H])([H])C([H])([H])C([H])([H])C3([H])[H])c2n1


 31 35  0  0  0  0  0  0  0  0999 V2000
  -17.8954   11.3784  -18.7192 N   0  0  0  0  0  0  0  0  0  0  0  0
  -17.0970   11.2302  -19.8875 C   0  0  0  0  0  0  0  0  0  0  0  0
  -16.2892   10.1750  -20.0630 N   0  0  0  0  0  0  0  0  0  0  0  0
  -15.5439   10.0598  -21.1785 C   0  0  0  0  0  0  0  0  0  0  0  0
  -15.6367   11.0212  -22.0918 N   0  0  0  0  0  0  0  0  0  0  0  0
  -16.4267   12.1095  -21.9828 C   0  0  0  0  0  0  0  0  0  0  0  0
  -16.6462   13.1777  -22.8026 N   0  0  0  0  0  0  0  0  0  0  0  0
  -17.5274   13.9578  -22.1985 C   0  0  0  0  0  0  0  0  0  0  0  0
  -18.3303   15.7688  -22.8682 I   0  0  0  0  0  0  0  0  0  0  0  0
  -17.8980   13.4062  -20.9678 C   0  0  0  0  0  0  0  0  0  0  0  0
  -17.1915   12.2310  -20.8418 C   0  0  0  0  0  0  0  0  0  0  0  0
  -18.9100   11.1009  -18.8223 H   0  0  0  0  0  0  0  0  0  0  0  0
  -17.5093   11.7384  -17.8142 H   0  0  0  0  0  0  0  0  0  0  0  0
  -18.8241   13.9134  -19.9858 C   0  0  0  0  0  0  0  0  0  0  0  0
  -18.4458   14.6811  -18.9032 C   0  0  0  0  0  0  0  0  0  0  0  0
  -19.3550   15.1520  -17.9786 C   0  0  0  0  0  0  0  0  0  0  0  0
  -20.6999   14.8697  -18.1015 C   0  0  0  0  0  0  0  0  0  0  0  0
  -21.0868   14.1028  -19.1810 C   0  0  0  0  0  0  0  0  0  0  0  0
  -20.1809   13.6300  -20.1078 C   0  0  0  0  0  0  0  0  0  0  0  0
  -21.6606   15.3103  -17.2110 O   0  0  0  0  0  0  0  0  0  0  0  0
  -21.6613   16.5037  -16.5616 C   0  0  0  0  0  0  0  0  0  0  0  0
  -21.4168   16.5555  -15.2141 C   0  0  0  0  0  0  0  0  0  0  0  0
  -21.4260   17.7853  -14.5917 C   0  0  0  0  0  0  0  0  0  0  0  0
  -21.6749   18.9526  -15.2958 C   0  0  0  0  0  0  0  0  0  0  0  0
  -21.9172   18.8972  -16.6339 C   0  0  0  0  0  0  0  0  0  0  0  0
  -21.9063   17.6606  -17.2513 C   0  0  0  0  0  0  0  0  0  0  0  0
  -16.0193   13.3840  -24.0782 C   0  0  0  0  0  0  0  0  0  0  0  0
  -17.1073   13.2735  -25.1422 C   0  0  0  0  0  0  0  0  0  0  0  0
  -16.7693   14.2422  -26.2270 C   0  0  0  0  0  0  0  0  0  0  0  0
  -15.4911   14.9022  -25.8360 C   0  0  0  0  0  0  0  0  0  0  0  0
  -15.4792   14.7542  -24.3071 C   0  0  0  0  0  0  0  0  0  0  0  0
  1  2  1  0  0  0
  2  3  2  0  0  0
  3  4  1  0  0  0
  4  5  2  0  0  0
  5  6  1  0  0  0
  6  7  1  0  0  0
  7 27  1  0  0  0
 27 28  1  0  0  0
 28 29  1  0  0  0
 29 30  1  0  0  0
 30 31  1  0  0  0
  7  8  1  0  0  0
  8  9  1  0  0  0
  8 10  2  0  0  0
 10 14  1  0  0  0
 14 15  2  0  0  0
 15 16  1  0  0  0
 16 17  2  0  0  0
 17 20  1  0  0  0
 20 21  1  0  0  0
 21 22  2  0  0  0
 22 23  1  0  0  0
 23 24  2  0  0  0
 24 25  1  0  0  0
 25 26  2  0  0  0
 17 18  1  0  0  0
 18 19  2  0  0  0
 10 11  1  0  0  0
 11  2  1  0  0  0
 11  6  2  0  0  0
 31 27  1  0  0  0
 19 14  1  0  0  0
 26 21  1  0  0  0
  1 12  1  0  0  0
  1 13  1  0  0  0
M  END
> <minimizedAffinity>
-8.40241

> <CNNscore>
0.6446523666

> <CNNaffinity>
7.3372879028

> <CNN_VS>
4.7300000191

> <CNNaffinity_variance>
0.3853388429

$$$$
[H]c1nc(N([H])[H])c2c(-c3c([H])c([H])c(Oc4c([H])c([H])c([H])c([H])c4[H])c([H])c3[H])c(I)n(C3([H])C([H])([H])C([H])([H])C([H])([H])C3([H])[H])c2n1


 31 35  0  0  0  0  0  0  0  0999 V2000
  -18.6682   11.7999  -18.1109 N   0  0  0  0  0  0  0  0  0  0  0  0
  -17.8411   11.4234  -19.2056 C   0  0  0  0  0  0  0  0  0  0  0  0
  -17.2018   10.2456  -19.2369 N   0  0  0  0  0  0  0  0  0  0  0  0
  -16.4247    9.9146  -20.2854 C   0  0  0  0  0  0  0  0  0  0  0  0
  -16.3149   10.7896  -21.2802 N   0  0  0  0  0  0  0  0  0  0  0  0
  -16.9278   11.9911  -21.3166 C   0  0  0  0  0  0  0  0  0  0  0  0
  -16.9310   12.9991  -22.2358 N   0  0  0  0  0  0  0  0  0  0  0  0
  -17.7094   13.9573  -21.7605 C   0  0  0  0  0  0  0  0  0  0  0  0
  -18.1786   15.7992  -22.6325 I   0  0  0  0  0  0  0  0  0  0  0  0
  -18.2286   13.5859  -20.5161 C   0  0  0  0  0  0  0  0  0  0  0  0
  -17.7245   12.3335  -20.2445 C   0  0  0  0  0  0  0  0  0  0  0  0
  -19.7068   11.6720  -18.2592 H   0  0  0  0  0  0  0  0  0  0  0  0
  -18.2798   12.1796  -17.2149 H   0  0  0  0  0  0  0  0  0  0  0  0
  -19.1149   14.3176  -19.6453 C   0  0  0  0  0  0  0  0  0  0  0  0
  -20.4910   14.2372  -19.7127 C   0  0  0  0  0  0  0  0  0  0  0  0
  -21.3142   14.9504  -18.8661 C   0  0  0  0  0  0  0  0  0  0  0  0
  -20.7862   15.7855  -17.9030 C   0  0  0  0  0  0  0  0  0  0  0  0
  -19.4113   15.8718  -17.8287 C   0  0  0  0  0  0  0  0  0  0  0  0
  -18.5846   15.1603  -18.6734 C   0  0  0  0  0  0  0  0  0  0  0  0
  -21.5548   16.5265  -17.0253 O   0  0  0  0  0  0  0  0  0  0  0  0
  -21.1029   17.5016  -16.1942 C   0  0  0  0  0  0  0  0  0  0  0  0
  -20.9606   18.7858  -16.6511 C   0  0  0  0  0  0  0  0  0  0  0  0
  -20.4993   19.7466  -15.7770 C   0  0  0  0  0  0  0  0  0  0  0  0
  -20.1817   19.4398  -14.4636 C   0  0  0  0  0  0  0  0  0  0  0  0
  -20.3244   18.1633  -14.0134 C   0  0  0  0  0  0  0  0  0  0  0  0
  -20.7874   17.2051  -14.8954 C   0  0  0  0  0  0  0  0  0  0  0  0
  -16.2112   12.9876  -23.4786 C   0  0  0  0  0  0  0  0  0  0  0  0
  -17.2423   13.0516  -24.6015 C   0  0  0  0  0  0  0  0  0  0  0  0
  -16.6460   13.8570  -25.7083 C   0  0  0  0  0  0  0  0  0  0  0  0
  -15.2752   14.2468  -25.2709 C   0  0  0  0  0  0  0  0  0  0  0  0
  -15.3725   14.1919  -23.7389 C   0  0  0  0  0  0  0  0  0  0  0  0
  1  2  1  0  0  0
  2  3  2  0  0  0
  3  4  1  0  0  0
  4  5  2  0  0  0
  5  6  1  0  0  0
  6  7  1  0  0  0
  7 27  1  0  0  0
 27 28  1  0  0  0
 28 29  1  0  0  0
 29 30  1  0  0  0
 30 31  1  0  0  0
  7  8  1  0  0  0
  8  9  1  0  0  0
  8 10  2  0  0  0
 10 14  1  0  0  0
 14 15  2  0  0  0
 15 16  1  0  0  0
 16 17  2  0  0  0
 17 20  1  0  0  0
 20 21  1  0  0  0
 21 22  2  0  0  0
 22 23  1  0  0  0
 23 24  2  0  0  0
 24 25  1  0  0  0
 25 26  2  0  0  0
 17 18  1  0  0  0
 18 19  2  0  0  0
 10 11  1  0  0  0
 11  2  1  0  0  0
 11  6  2  0  0  0
 31 27  1  0  0  0
 19 14  1  0  0  0
 26 21  1  0  0  0
  1 12  1  0  0  0
  1 13  1  0  0  0
M  END
> <minimizedAffinity>
-8.76745

> <CNNscore>
0.5592215657

> <CNNaffinity>
7.2878227234

> <CNN_VS>
4.0755076408

> <CNNaffinity_variance>
0.3817137182

$$$$
[H]c1nc(N([H])[H])c2c(-c3c([H])c([H])c(Oc4c([H])c([H])c([H])c([H])c4[H])c([H])c3[H])c(I)n(C3([H])C([H])([H])C([H])([H])C([H])([H])C3([H])[H])c2n1


 31 35  0  0  0  0  0  0  0  0999 V2000
  -18.5520   11.7537  -18.3313 N   0  0  0  0  0  0  0  0  0  0  0  0
  -17.7095   11.4313  -19.4315 C   0  0  0  0  0  0  0  0  0  0  0  0
  -17.0241   10.2805  -19.4841 N   0  0  0  0  0  0  0  0  0  0  0  0
  -16.2334   10.0006  -20.5373 C   0  0  0  0  0  0  0  0  0  0  0  0
  -16.1571   10.8981  -21.5150 N   0  0  0  0  0  0  0  0  0  0  0  0
  -16.8170   12.0749  -21.5296 C   0  0  0  0  0  0  0  0  0  0  0  0
  -16.8591   13.0994  -22.4294 N   0  0  0  0  0  0  0  0  0  0  0  0
  -17.6752   14.0169  -21.9373 C   0  0  0  0  0  0  0  0  0  0  0  0
  -18.2160   15.8552  -22.7748 I   0  0  0  0  0  0  0  0  0  0  0  0
  -18.1807   13.6015  -20.7012 C   0  0  0  0  0  0  0  0  0  0  0  0
  -17.6278   12.3651  -20.4526 C   0  0  0  0  0  0  0  0  0  0  0  0
  -19.5846   11.5877  -18.4840 H   0  0  0  0  0  0  0  0  0  0  0  0
  -18.1799   12.1312  -17.4276 H   0  0  0  0  0  0  0  0  0  0  0  0
  -19.0962   14.2808  -19.8182 C   0  0  0  0  0  0  0  0  0  0  0  0
  -18.6953   15.1417  -18.8168 C   0  0  0  0  0  0  0  0  0  0  0  0
  -19.5948   15.7773  -17.9861 C   0  0  0  0  0  0  0  0  0  0  0  0
  -20.9524   15.5744  -18.1256 C   0  0  0  0  0  0  0  0  0  0  0  0
  -21.3618   14.7151  -19.1243 C   0  0  0  0  0  0  0  0  0  0  0  0
  -20.4656   14.0776  -19.9571 C   0  0  0  0  0  0  0  0  0  0  0  0
  -21.9044   16.1795  -17.3271 O   0  0  0  0  0  0  0  0  0  0  0  0
  -22.6365   15.5728  -16.3567 C   0  0  0  0  0  0  0  0  0  0  0  0
  -23.9753   15.8391  -16.2347 C   0  0  0  0  0  0  0  0  0  0  0  0
  -24.6833   15.2034  -15.2375 C   0  0  0  0  0  0  0  0  0  0  0  0
  -24.0726   14.3128  -14.3692 C   0  0  0  0  0  0  0  0  0  0  0  0
  -22.7428   14.0507  -14.4934 C   0  0  0  0  0  0  0  0  0  0  0  0
  -22.0393   14.6918  -15.4956 C   0  0  0  0  0  0  0  0  0  0  0  0
  -16.1379   13.1403  -23.6708 C   0  0  0  0  0  0  0  0  0  0  0  0
  -17.1672   13.2670  -24.7901 C   0  0  0  0  0  0  0  0  0  0  0  0
  -16.5622   14.1185  -25.8571 C   0  0  0  0  0  0  0  0  0  0  0  0
  -15.1884   14.4743  -25.4007 C   0  0  0  0  0  0  0  0  0  0  0  0
  -15.2879   14.3477  -23.8731 C   0  0  0  0  0  0  0  0  0  0  0  0
  1  2  1  0  0  0
  2  3  2  0  0  0
  3  4  1  0  0  0
  4  5  2  0  0  0
  5  6  1  0  0  0
  6  7  1  0  0  0
  7 27  1  0  0  0
 27 28  1  0  0  0
 28 29  1  0  0  0
 29 30  1  0  0  0
 30 31  1  0  0  0
  7  8  1  0  0  0
  8  9  1  0  0  0
  8 10  2  0  0  0
 10 14  1  0  0  0
 14 15  2  0  0  0
 15 16  1  0  0  0
 16 17  2  0  0  0
 17 20  1  0  0  0
 20 21  1  0  0  0
 21 22  2  0  0  0
 22 23  1  0  0  0
 23 24  2  0  0  0
 24 25  1  0  0  0
 25 26  2  0  0  0
 17 18  1  0  0  0
 18 19  2  0  0  0
 10 11  1  0  0  0
 11  2  1  0  0  0
 11  6  2  0  0  0
 31 27  1  0  0  0
 19 14  1  0  0  0
 26 21  1  0  0  0
  1 12  1  0  0  0
  1 13  1  0  0  0
M  END
> <minimizedAffinity>
-8.50323

> <CNNscore>
0.5312069654

> <CNNaffinity>
7.1452245712

> <CNN_VS>
3.7955930233

> <CNNaffinity_variance>
0.2771750093

$$$$
[H]c1nc(N([H])[H])c2c(-c3c([H])c([H])c(Oc4c([H])c([H])c([H])c([H])c4[H])c([H])c3[H])c(I)n(C3([H])C([H])([H])C([H])([H])C([H])([H])C3([H])[H])c2n1


 31 35  0  0  0  0  0  0  0  0999 V2000
  -19.3957   13.4582  -22.0770 N   0  0  0  0  0  0  0  0  0  0  0  0
  -18.7686   14.1427  -23.1551 C   0  0  0  0  0  0  0  0  0  0  0  0
  -19.4476   14.9801  -23.9518 N   0  0  0  0  0  0  0  0  0  0  0  0
  -18.8293   15.6149  -24.9656 C   0  0  0  0  0  0  0  0  0  0  0  0
  -17.5328   15.3839  -25.1469 N   0  0  0  0  0  0  0  0  0  0  0  0
  -16.7870   14.5560  -24.3861 C   0  0  0  0  0  0  0  0  0  0  0  0
  -15.4699   14.2026  -24.4232 N   0  0  0  0  0  0  0  0  0  0  0  0
  -15.2675   13.3484  -23.4335 C   0  0  0  0  0  0  0  0  0  0  0  0
  -13.4894   12.3924  -22.8885 I   0  0  0  0  0  0  0  0  0  0  0  0
  -16.4577   13.1307  -22.7318 C   0  0  0  0  0  0  0  0  0  0  0  0
  -17.4168   13.9040  -23.3469 C   0  0  0  0  0  0  0  0  0  0  0  0
  -19.2470   13.8817  -21.1201 H   0  0  0  0  0  0  0  0  0  0  0  0
  -19.9678   12.5915  -22.2157 H   0  0  0  0  0  0  0  0  0  0  0  0
  -16.6984   12.2834  -21.5902 C   0  0  0  0  0  0  0  0  0  0  0  0
  -16.5008   12.6853  -20.2848 C   0  0  0  0  0  0  0  0  0  0  0  0
  -16.7390   11.8516  -19.2118 C   0  0  0  0  0  0  0  0  0  0  0  0
  -17.1914   10.5624  -19.4041 C   0  0  0  0  0  0  0  0  0  0  0  0
  -17.3916   10.1524  -20.7061 C   0  0  0  0  0  0  0  0  0  0  0  0
  -17.1547   10.9829  -21.7818 C   0  0  0  0  0  0  0  0  0  0  0  0
  -17.4488    9.6781  -18.3736 O   0  0  0  0  0  0  0  0  0  0  0  0
  -18.5306    9.7010  -17.5521 C   0  0  0  0  0  0  0  0  0  0  0  0
  -19.0252   10.8951  -17.0965 C   0  0  0  0  0  0  0  0  0  0  0  0
  -20.1242   10.8764  -16.2648 C   0  0  0  0  0  0  0  0  0  0  0  0
  -20.7280    9.6876  -15.8875 C   0  0  0  0  0  0  0  0  0  0  0  0
  -20.2340    8.5037  -16.3420 C   0  0  0  0  0  0  0  0  0  0  0  0
  -19.1318    8.5302  -17.1756 C   0  0  0  0  0  0  0  0  0  0  0  0
  -14.5097   14.6882  -25.3745 C   0  0  0  0  0  0  0  0  0  0  0  0
  -13.3894   15.3606  -24.5864 C   0  0  0  0  0  0  0  0  0  0  0  0
  -12.1135   15.1025  -25.3178 C   0  0  0  0  0  0  0  0  0  0  0  0
  -12.4627   14.3141  -26.5338 C   0  0  0  0  0  0  0  0  0  0  0  0
  -13.7825   13.6348  -26.1382 C   0  0  0  0  0  0  0  0  0  0  0  0
  1  2  1  0  0  0
  2  3  2  0  0  0
  3  4  1  0  0  0
  4  5  2  0  0  0
  5  6  1  0  0  0
  6  7  1  0  0  0
  7 27  1  0  0  0
 27 28  1  0  0  0
 28 29  1  0  0  0
 29 30  1  0  0  0
 30 31  1  0  0  0
  7  8  1  0  0  0
  8  9  1  0  0  0
  8 10  2  0  0  0
 10 14  1  0  0  0
 14 15  2  0  0  0
 15 16  1  0  0  0
 16 17  2  0  0  0
 17 20  1  0  0  0
 20 21  1  0  0  0
 21 22  2  0  0  0
 22 23  1  0  0  0
 23 24  2  0  0  0
 24 25  1  0  0  0
 25 26  2  0  0  0
 17 18  1  0  0  0
 18 19  2  0  0  0
 10 11  1  0  0  0
 11  2  1  0  0  0
 11  6  2  0  0  0
 31 27  1  0  0  0
 19 14  1  0  0  0
 26 21  1  0  0  0
  1 12  1  0  0  0
  1 13  1  0  0  0
M  END
> <minimizedAffinity>
9.32448

> <CNNscore>
0.4446313381

> <CNNaffinity>
6.9324860573

> <CNN_VS>
3.0824005604

> <CNNaffinity_variance>
2.6628079414

$$$$
[H]c1nc(N([H])[H])c2c(-c3c([H])c([H])c(Oc4c([H])c([H])c([H])c([H])c4[H])c([H])c3[H])c(I)n(C3([H])C([H])([H])C([H])([H])C([H])([H])C3([H])[H])c2n1


 31 35  0  0  0  0  0  0  0  0999 V2000
  -17.5171   13.2503  -21.3659 N   0  0  0  0  0  0  0  0  0  0  0  0
  -17.5048   12.1053  -20.5214 C   0  0  0  0  0  0  0  0  0  0  0  0
  -16.7804   11.0167  -20.8163 N   0  0  0  0  0  0  0  0  0  0  0  0
  -16.7872    9.9463  -19.9995 C   0  0  0  0  0  0  0  0  0  0  0  0
  -17.5314   10.0067  -18.8996 N   0  0  0  0  0  0  0  0  0  0  0  0
  -18.2842   11.0670  -18.5397 C   0  0  0  0  0  0  0  0  0  0  0  0
  -19.0958   11.3030  -17.4689 N   0  0  0  0  0  0  0  0  0  0  0  0
  -19.5944   12.5192  -17.6183 C   0  0  0  0  0  0  0  0  0  0  0  0
  -20.9143   13.5434  -16.3607 I   0  0  0  0  0  0  0  0  0  0  0  0
  -19.1119   13.0981  -18.7966 C   0  0  0  0  0  0  0  0  0  0  0  0
  -18.2797   12.1651  -19.3738 C   0  0  0  0  0  0  0  0  0  0  0  0
  -16.8954   14.0486  -21.0605 H   0  0  0  0  0  0  0  0  0  0  0  0
  -18.1015   13.3048  -22.2338 H   0  0  0  0  0  0  0  0  0  0  0  0
  -19.3898   14.4003  -19.3501 C   0  0  0  0  0  0  0  0  0  0  0  0
  -18.5733   15.4981  -19.1684 C   0  0  0  0  0  0  0  0  0  0  0  0
  -18.8655   16.7327  -19.7100 C   0  0  0  0  0  0  0  0  0  0  0  0
  -20.0035   16.9222  -20.4668 C   0  0  0  0  0  0  0  0  0  0  0  0
  -20.8254   15.8299  -20.6534 C   0  0  0  0  0  0  0  0  0  0  0  0
  -20.5368   14.5936  -20.1136 C   0  0  0  0  0  0  0  0  0  0  0  0
  -20.3533   18.1319  -21.0363 O   0  0  0  0  0  0  0  0  0  0  0  0
  -21.3839   18.3423  -21.8962 C   0  0  0  0  0  0  0  0  0  0  0  0
  -22.6013   18.7589  -21.4246 C   0  0  0  0  0  0  0  0  0  0  0  0
  -23.6218   18.9612  -22.3289 C   0  0  0  0  0  0  0  0  0  0  0  0
  -23.4394   18.7533  -23.6867 C   0  0  0  0  0  0  0  0  0  0  0  0
  -22.2289   18.3396  -24.1513 C   0  0  0  0  0  0  0  0  0  0  0  0
  -21.2104   18.1387  -23.2388 C   0  0  0  0  0  0  0  0  0  0  0  0
  -19.3402   10.3791  -16.3967 C   0  0  0  0  0  0  0  0  0  0  0  0
  -20.8484   10.3354  -16.1696 C   0  0  0  0  0  0  0  0  0  0  0  0
  -21.1996    8.9376  -15.7793 C   0  0  0  0  0  0  0  0  0  0  0  0
  -19.9259    8.1637  -15.7467 C   0  0  0  0  0  0  0  0  0  0  0  0
  -19.0156    8.9559  -16.6972 C   0  0  0  0  0  0  0  0  0  0  0  0
  1  2  1  0  0  0
  2  3  2  0  0  0
  3  4  1  0  0  0
  4  5  2  0  0  0
  5  6  1  0  0  0
  6  7  1  0  0  0
  7 27  1  0  0  0
 27 28  1  0  0  0
 28 29  1  0  0  0
 29 30  1  0  0  0
 30 31  1  0  0  0
  7  8  1  0  0  0
  8  9  1  0  0  0
  8 10  2  0  0  0
 10 14  1  0  0  0
 14 15  2  0  0  0
 15 16  1  0  0  0
 16 17  2  0  0  0
 17 20  1  0  0  0
 20 21  1  0  0  0
 21 22  2  0  0  0
 22 23  1  0  0  0
 23 24  2  0  0  0
 24 25  1  0  0  0
 25 26  2  0  0  0
 17 18  1  0  0  0
 18 19  2  0  0  0
 10 11  1  0  0  0
 11  2  1  0  0  0
 11  6  2  0  0  0
 31 27  1  0  0  0
 19 14  1  0  0  0
 26 21  1  0  0  0
  1 12  1  0  0  0
  1 13  1  0  0  0
M  END
> <minimizedAffinity>
-7.91182

> <CNNscore>
0.4134631157

> <CNNaffinity>
6.8539633751

> <CNN_VS>
2.8338611126

> <CNNaffinity_variance>
0.2895604074

$$$$
[H]c1nc(N([H])[H])c2c(-c3c([H])c([H])c(Oc4c([H])c([H])c([H])c([H])c4[H])c([H])c3[H])c(I)n(C3([H])C([H])([H])C([H])([H])C([H])([H])C3([H])[H])c2n1


 31 35  0  0  0  0  0  0  0  0999 V2000
  -18.2784   11.6230  -18.3358 N   0  0  0  0  0  0  0  0  0  0  0  0
  -17.6309   11.6787  -19.6015 C   0  0  0  0  0  0  0  0  0  0  0  0
  -16.8647   10.6739  -20.0489 N   0  0  0  0  0  0  0  0  0  0  0  0
  -16.2630   10.7529  -21.2509 C   0  0  0  0  0  0  0  0  0  0  0  0
  -16.4541   11.8530  -21.9721 N   0  0  0  0  0  0  0  0  0  0  0  0
  -17.2104   12.9018  -21.5864 C   0  0  0  0  0  0  0  0  0  0  0  0
  -17.5143   14.0905  -22.1827 N   0  0  0  0  0  0  0  0  0  0  0  0
  -18.3047   14.7517  -21.3531 C   0  0  0  0  0  0  0  0  0  0  0  0
  -19.1594   16.6433  -21.6068 I   0  0  0  0  0  0  0  0  0  0  0  0
  -18.5292   13.9989  -20.1960 C   0  0  0  0  0  0  0  0  0  0  0  0
  -17.8282   12.8245  -20.3560 C   0  0  0  0  0  0  0  0  0  0  0  0
  -19.3015   11.3590  -18.3585 H   0  0  0  0  0  0  0  0  0  0  0  0
  -17.7798   11.8291  -17.4377 H   0  0  0  0  0  0  0  0  0  0  0  0
  -19.3214   14.3273  -19.0368 C   0  0  0  0  0  0  0  0  0  0  0  0
  -20.6744   14.0728  -18.9386 C   0  0  0  0  0  0  0  0  0  0  0  0
  -21.4071   14.3992  -17.8163 C   0  0  0  0  0  0  0  0  0  0  0  0
  -20.8071   15.0026  -16.7301 C   0  0  0  0  0  0  0  0  0  0  0  0
  -19.4548   15.2606  -16.8199 C   0  0  0  0  0  0  0  0  0  0  0  0
  -18.7184   14.9358  -17.9404 C   0  0  0  0  0  0  0  0  0  0  0  0
  -21.4837   15.3547  -15.5776 O   0  0  0  0  0  0  0  0  0  0  0  0
  -22.4172   14.6032  -14.9375 C   0  0  0  0  0  0  0  0  0  0  0  0
  -22.0803   13.3805  -14.4181 C   0  0  0  0  0  0  0  0  0  0  0  0
  -23.0556   12.6484  -13.7759 C   0  0  0  0  0  0  0  0  0  0  0  0
  -24.3519   13.1213  -13.6488 C   0  0  0  0  0  0  0  0  0  0  0  0
  -24.6827   14.3361  -14.1659 C   0  0  0  0  0  0  0  0  0  0  0  0
  -23.6996   15.0646  -14.8085 C   0  0  0  0  0  0  0  0  0  0  0  0
  -17.0455   14.5125  -23.4730 C   0  0  0  0  0  0  0  0  0  0  0  0
  -15.5221   14.5683  -23.4068 C   0  0  0  0  0  0  0  0  0  0  0  0
  -15.0028   14.1558  -24.7446 C   0  0  0  0  0  0  0  0  0  0  0  0
  -16.1893   13.8833  -25.6049 C   0  0  0  0  0  0  0  0  0  0  0  0
  -17.2871   13.5486  -24.5839 C   0  0  0  0  0  0  0  0  0  0  0  0
  1  2  1  0  0  0
  2  3  2  0  0  0
  3  4  1  0  0  0
  4  5  2  0  0  0
  5  6  1  0  0  0
  6  7  1  0  0  0
  7 27  1  0  0  0
 27 28  1  0  0  0
 28 29  1  0  0  0
 29 30  1  0  0  0
 30 31  1  0  0  0
  7  8  1  0  0  0
  8  9  1  0  0  0
  8 10  2  0  0  0
 10 14  1  0  0  0
 14 15  2  0  0  0
 15 16  1  0  0  0
 16 17  2  0  0  0
 17 20  1  0  0  0
 20 21  1  0  0  0
 21 22  2  0  0  0
 22 23  1  0  0  0
 23 24  2  0  0  0
 24 25  1  0  0  0
 25 26  2  0  0  0
 17 18  1  0  0  0
 18 19  2  0  0  0
 10 11  1  0  0  0
 11  2  1  0  0  0
 11  6  2  0  0  0
 31 27  1  0  0  0
 19 14  1  0  0  0
 26 21  1  0  0  0
  1 12  1  0  0  0
  1 13  1  0  0  0
M  END
> <minimizedAffinity>
-7.73086

> <CNNscore>
0.4008806944

> <CNNaffinity>
6.9770798683

> <CNN_VS>
2.7969765663

> <CNNaffinity_variance>
0.5615200996

$$$$
[H]c1nc(N([H])[H])c2c(-c3c([H])c([H])c(Oc4c([H])c([H])c([H])c([H])c4[H])c([H])c3[H])c(I)n(C3([H])C([H])([H])C([H])([H])C([H])([H])C3([H])[H])c2n1


 31 35  0  0  0  0  0  0  0  0999 V2000
  -17.7710   11.8049  -19.7582 N   0  0  0  0  0  0  0  0  0  0  0  0
  -17.0989   12.0641  -20.9851 C   0  0  0  0  0  0  0  0  0  0  0  0
  -16.2483   11.1805  -21.5260 N   0  0  0  0  0  0  0  0  0  0  0  0
  -15.6251   11.4515  -22.6884 C   0  0  0  0  0  0  0  0  0  0  0  0
  -15.8810   12.6163  -23.2757 N   0  0  0  0  0  0  0  0  0  0  0  0
  -16.7235   13.5518  -22.7903 C   0  0  0  0  0  0  0  0  0  0  0  0
  -17.1017   14.7806  -23.2465 N   0  0  0  0  0  0  0  0  0  0  0  0
  -17.9597   15.2748  -22.3693 C   0  0  0  0  0  0  0  0  0  0  0  0
  -18.9483   17.1168  -22.4182 I   0  0  0  0  0  0  0  0  0  0  0  0
  -18.1550   14.3697  -21.3211 C   0  0  0  0  0  0  0  0  0  0  0  0
  -17.3636   13.2778  -21.6000 C   0  0  0  0  0  0  0  0  0  0  0  0
  -18.7704   11.4730  -19.8473 H   0  0  0  0  0  0  0  0  0  0  0  0
  -17.3114   11.9329  -18.8253 H   0  0  0  0  0  0  0  0  0  0  0  0
  -18.9978   14.4934  -20.1577 C   0  0  0  0  0  0  0  0  0  0  0  0
  -18.5880   15.0755  -18.9754 C   0  0  0  0  0  0  0  0  0  0  0  0
  -19.4170   15.1791  -17.8776 C   0  0  0  0  0  0  0  0  0  0  0  0
  -20.7093   14.6974  -17.9187 C   0  0  0  0  0  0  0  0  0  0  0  0
  -21.1272   14.1139  -19.0970 C   0  0  0  0  0  0  0  0  0  0  0  0
  -20.3013   14.0083  -20.1970 C   0  0  0  0  0  0  0  0  0  0  0  0
  -21.5891   14.7699  -16.8553 O   0  0  0  0  0  0  0  0  0  0  0  0
  -21.6576   13.9002  -15.8138 C   0  0  0  0  0  0  0  0  0  0  0  0
  -20.9790   12.7106  -15.8631 C   0  0  0  0  0  0  0  0  0  0  0  0
  -21.0737   11.8552  -14.7865 C   0  0  0  0  0  0  0  0  0  0  0  0
  -21.8327   12.1738  -13.6717 C   0  0  0  0  0  0  0  0  0  0  0  0
  -22.5051   13.3562  -13.6263 C   0  0  0  0  0  0  0  0  0  0  0  0
  -22.4055   14.2089  -14.7095 C   0  0  0  0  0  0  0  0  0  0  0  0
  -16.6347   15.3925  -24.4591 C   0  0  0  0  0  0  0  0  0  0  0  0
  -15.1172   15.5118  -24.3523 C   0  0  0  0  0  0  0  0  0  0  0  0
  -14.5570   15.3064  -25.7211 C   0  0  0  0  0  0  0  0  0  0  0  0
  -15.7148   15.0943  -26.6359 C   0  0  0  0  0  0  0  0  0  0  0  0
  -16.8101   14.5746  -25.6926 C   0  0  0  0  0  0  0  0  0  0  0  0
  1  2  1  0  0  0
  2  3  2  0  0  0
  3  4  1  0  0  0
  4  5  2  0  0  0
  5  6  1  0  0  0
  6  7  1  0  0  0
  7 27  1  0  0  0
 27 28  1  0  0  0
 28 29  1  0  0  0
 29 30  1  0  0  0
 30 31  1  0  0  0
  7  8  1  0  0  0
  8  9  1  0  0  0
  8 10  2  0  0  0
 10 14  1  0  0  0
 14 15  2  0  0  0
 15 16  1  0  0  0
 16 17  2  0  0  0
 17 20  1  0  0  0
 20 21  1  0  0  0
 21 22  2  0  0  0
 22 23  1  0  0  0
 23 24  2  0  0  0
 24 25  1  0  0  0
 25 26  2  0  0  0
 17 18  1  0  0  0
 18 19  2  0  0  0
 10 11  1  0  0  0
 11  2  1  0  0  0
 11  6  2  0  0  0
 31 27  1  0  0  0
 19 14  1  0  0  0
 26 21  1  0  0  0
  1 12  1  0  0  0
  1 13  1  0  0  0
M  END
> <minimizedAffinity>
-8.27463

> <CNNscore>
0.3535941541

> <CNNaffinity>
6.9545373917

> <CNN_VS>
2.4590837955

> <CNNaffinity_variance>
0.4352632165

$$$$
[H]c1nc(N([H])[H])c2c(-c3c([H])c([H])c(Oc4c([H])c([H])c([H])c([H])c4[H])c([H])c3[H])c(I)n(C3([H])C([H])([H])C([H])([H])C([H])([H])C3([H])[H])c2n1


 31 35  0  0  0  0  0  0  0  0999 V2000
  -16.7844   11.8897  -21.3846 N   0  0  0  0  0  0  0  0  0  0  0  0
  -17.3426   11.4921  -20.1378 C   0  0  0  0  0  0  0  0  0  0  0  0
  -17.2266   10.2381  -19.6786 N   0  0  0  0  0  0  0  0  0  0  0  0
  -17.7651    9.8885  -18.4951 C   0  0  0  0  0  0  0  0  0  0  0  0
  -18.4105   10.8229  -17.8040 N   0  0  0  0  0  0  0  0  0  0  0  0
  -18.5664   12.1023  -18.2032 C   0  0  0  0  0  0  0  0  0  0  0  0
  -19.1857   13.1779  -17.6369 N   0  0  0  0  0  0  0  0  0  0  0  0
  -19.0333   14.1968  -18.4668 C   0  0  0  0  0  0  0  0  0  0  0  0
  -19.7218   16.1594  -18.2510 I   0  0  0  0  0  0  0  0  0  0  0  0
  -18.3075   13.7980  -19.5939 C   0  0  0  0  0  0  0  0  0  0  0  0
  -18.0162   12.4641  -19.4148 C   0  0  0  0  0  0  0  0  0  0  0  0
  -15.8613   12.4015  -21.3282 H   0  0  0  0  0  0  0  0  0  0  0  0
  -17.2522   11.6917  -22.3010 H   0  0  0  0  0  0  0  0  0  0  0  0
  -17.9121   14.5746  -20.7426 C   0  0  0  0  0  0  0  0  0  0  0  0
  -16.8037   15.3968  -20.7646 C   0  0  0  0  0  0  0  0  0  0  0  0
  -16.4503   16.1293  -21.8789 C   0  0  0  0  0  0  0  0  0  0  0  0
  -17.2025   16.0681  -23.0339 C   0  0  0  0  0  0  0  0  0  0  0  0
  -18.3122   15.2485  -23.0206 C   0  0  0  0  0  0  0  0  0  0  0  0
  -18.6691   14.5144  -21.9084 C   0  0  0  0  0  0  0  0  0  0  0  0
  -16.9030   16.7757  -24.1827 O   0  0  0  0  0  0  0  0  0  0  0  0
  -16.2112   16.3059  -25.2534 C   0  0  0  0  0  0  0  0  0  0  0  0
  -14.8681   16.0540  -25.1499 C   0  0  0  0  0  0  0  0  0  0  0  0
  -14.2018   15.5780  -26.2587 C   0  0  0  0  0  0  0  0  0  0  0  0
  -14.8580   15.3535  -27.4583 C   0  0  0  0  0  0  0  0  0  0  0  0
  -16.1920   15.6048  -27.5572 C   0  0  0  0  0  0  0  0  0  0  0  0
  -16.8535   16.0819  -26.4414 C   0  0  0  0  0  0  0  0  0  0  0  0
  -19.8669   13.1691  -16.3725 C   0  0  0  0  0  0  0  0  0  0  0  0
  -20.8303   14.3524  -16.3674 C   0  0  0  0  0  0  0  0  0  0  0  0
  -22.0438   13.9353  -15.6040 C   0  0  0  0  0  0  0  0  0  0  0  0
  -21.8040   12.5399  -15.1374 C   0  0  0  0  0  0  0  0  0  0  0  0
  -20.7758   12.0094  -16.1478 C   0  0  0  0  0  0  0  0  0  0  0  0
  1  2  1  0  0  0
  2  3  2  0  0  0
  3  4  1  0  0  0
  4  5  2  0  0  0
  5  6  1  0  0  0
  6  7  1  0  0  0
  7 27  1  0  0  0
 27 28  1  0  0  0
 28 29  1  0  0  0
 29 30  1  0  0  0
 30 31  1  0  0  0
  7  8  1  0  0  0
  8  9  1  0  0  0
  8 10  2  0  0  0
 10 14  1  0  0  0
 14 15  2  0  0  0
 15 16  1  0  0  0
 16 17  2  0  0  0
 17 20  1  0  0  0
 20 21  1  0  0  0
 21 22  2  0  0  0
 22 23  1  0  0  0
 23 24  2  0  0  0
 24 25  1  0  0  0
 25 26  2  0  0  0
 17 18  1  0  0  0
 18 19  2  0  0  0
 10 11  1  0  0  0
 11  2  1  0  0  0
 11  6  2  0  0  0
 31 27  1  0  0  0
 19 14  1  0  0  0
 26 21  1  0  0  0
  1 12  1  0  0  0
  1 13  1  0  0  0
M  END
> <minimizedAffinity>
-8.02336

> <CNNscore>
0.3427437544

> <CNNaffinity>
6.9598951340

> <CNN_VS>
2.3854606152

> <CNNaffinity_variance>
0.4042221904

$$$$
[H]/C(C(=O)N1C([H])([H])C([H])([H])C([H])([H])[C@@]([H])(n2nc(-c3c([H])c([H])c(Oc4c([H])c([H])c([H])c([H])c4[H])c([H])c3[H])c3c(N([H])[H])nc([H])nc32)C1([H])[H])=C(/[H])C([H])([H])N(C([H])([H])[H])C([H])([H])[H]


 39 43  0  0  0  0  0  0  0  0999 V2000
  -17.5089   13.8347  -21.4362 N   0  0  0  0  0  0  0  0  0  0  0  0
  -18.2161   13.7470  -20.3367 N   0  0  0  0  0  0  0  0  0  0  0  0
  -18.0041   12.5630  -19.6939 C   0  0  0  0  0  0  0  0  0  0  0  0
  -17.1055   11.8569  -20.4305 C   0  0  0  0  0  0  0  0  0  0  0  0
  -16.4895   10.6221  -20.2980 C   0  0  0  0  0  0  0  0  0  0  0  0
  -16.7308    9.7779  -19.1789 N   0  0  0  0  0  0  0  0  0  0  0  0
  -15.6125   10.2611  -21.2613 N   0  0  0  0  0  0  0  0  0  0  0  0
  -15.3112   11.0234  -22.3207 C   0  0  0  0  0  0  0  0  0  0  0  0
  -15.9223   12.2115  -22.4167 N   0  0  0  0  0  0  0  0  0  0  0  0
  -16.8062   12.6772  -21.5285 C   0  0  0  0  0  0  0  0  0  0  0  0
  -17.3282    8.9401  -19.3245 H   0  0  0  0  0  0  0  0  0  0  0  0
  -16.3529    9.9349  -18.2204 H   0  0  0  0  0  0  0  0  0  0  0  0
  -18.8920   18.3079  -23.0649 C   0  0  0  0  0  0  0  0  0  0  0  0
  -18.7693   19.0826  -24.0593 O   0  0  0  0  0  0  0  0  0  0  0  0
  -18.1829   17.0877  -23.0263 N   0  0  0  0  0  0  0  0  0  0  0  0
  -17.3091   16.7541  -24.1506 C   0  0  0  0  0  0  0  0  0  0  0  0
  -15.9233   16.3769  -23.6493 C   0  0  0  0  0  0  0  0  0  0  0  0
  -15.9946   15.3827  -22.5355 C   0  0  0  0  0  0  0  0  0  0  0  0
  -17.4366   14.9266  -22.3923 C   0  0  0  0  0  0  0  0  0  0  0  0
  -18.2491   16.1195  -21.9506 C   0  0  0  0  0  0  0  0  0  0  0  0
  -21.0710   18.9429  -22.2260 C   0  0  0  0  0  0  0  0  0  0  0  0
  -19.7819   18.7318  -21.9892 C   0  0  0  0  0  0  0  0  0  0  0  0
  -22.0523   19.3714  -21.2163 C   0  0  0  0  0  0  0  0  0  0  0  0
  -23.5234   19.0427  -23.1020 C   0  0  0  0  0  0  0  0  0  0  0  0
  -23.4273   19.0968  -21.6607 N   0  0  0  0  0  0  0  0  0  0  0  0
  -23.8736   17.8337  -21.0792 C   0  0  0  0  0  0  0  0  0  0  0  0
  -18.6068   12.1742  -18.4353 C   0  0  0  0  0  0  0  0  0  0  0  0
  -18.8756   13.1414  -17.4645 C   0  0  0  0  0  0  0  0  0  0  0  0
  -19.5027   12.8005  -16.2860 C   0  0  0  0  0  0  0  0  0  0  0  0
  -19.8773   11.4855  -16.0461 C   0  0  0  0  0  0  0  0  0  0  0  0
  -19.6157   10.5390  -16.9948 C   0  0  0  0  0  0  0  0  0  0  0  0
  -18.9895   10.8941  -18.1672 C   0  0  0  0  0  0  0  0  0  0  0  0
  -20.5133   11.1748  -14.8330 O   0  0  0  0  0  0  0  0  0  0  0  0
  -21.4230   10.1220  -14.8242 C   0  0  0  0  0  0  0  0  0  0  0  0
  -21.1712    8.9566  -14.1301 C   0  0  0  0  0  0  0  0  0  0  0  0
  -22.0637    7.9066  -14.1134 C   0  0  0  0  0  0  0  0  0  0  0  0
  -23.2597    7.9774  -14.7968 C   0  0  0  0  0  0  0  0  0  0  0  0
  -23.5262    9.1399  -15.4972 C   0  0  0  0  0  0  0  0  0  0  0  0
  -22.6321   10.1897  -15.5134 C   0  0  0  0  0  0  0  0  0  0  0  0
 24 25  1  0  0  0
 25 26  1  0  0  0
 25 23  1  0  0  0
 23 21  1  0  0  0
 21 22  2  0  0  0
 22 13  1  0  0  0
 13 14  2  0  0  0
 13 15  1  0  0  0
 15 16  1  0  0  0
 16 17  1  0  0  0
 17 18  1  0  0  0
 18 19  1  0  0  0
 19 20  1  0  0  0
 19  1  1  0  0  0
  1  2  1  0  0  0
  2  3  2  0  0  0
  3 27  1  0  0  0
 27 28  2  0  0  0
 28 29  1  0  0  0
 29 30  2  0  0  0
 30 33  1  0  0  0
 33 34  1  0  0  0
 34 35  2  0  0  0
 35 36  1  0  0  0
 36 37  2  0  0  0
 37 38  1  0  0  0
 38 39  2  0  0  0
 30 31  1  0  0  0
 31 32  2  0  0  0
  3  4  1  0  0  0
  4  5  2  0  0  0
  5  6  1  0  0  0
  5  7  1  0  0  0
  7  8  2  0  0  0
  8  9  1  0  0  0
  9 10  2  0  0  0
 20 15  1  0  0  0
 10  1  1  0  0  0
 32 27  1  0  0  0
 10  4  1  0  0  0
 39 34  1  0  0  0
  6 11  1  0  0  0
  6 12  1  0  0  0
M  END
> <minimizedAffinity>
-8.46142

> <CNNscore>
0.7425258160

> <CNNaffinity>
7.5217652321

> <CNN_VS>
5.5851049423

> <CNNaffinity_variance>
0.0576646030

$$$$
[H]/C(C(=O)N1C([H])([H])C([H])([H])C([H])([H])[C@@]([H])(n2nc(-c3c([H])c([H])c(Oc4c([H])c([H])c([H])c([H])c4[H])c([H])c3[H])c3c(N([H])[H])nc([H])nc32)C1([H])[H])=C(/[H])C([H])([H])N(C([H])([H])[H])C([H])([H])[H]


 39 43  0  0  0  0  0  0  0  0999 V2000
  -17.7804   13.6051  -20.9961 N   0  0  0  0  0  0  0  0  0  0  0  0
  -18.5087   13.6014  -19.9070 N   0  0  0  0  0  0  0  0  0  0  0  0
  -18.3686   12.4372  -19.2107 C   0  0  0  0  0  0  0  0  0  0  0  0
  -17.4961   11.6548  -19.9000 C   0  0  0  0  0  0  0  0  0  0  0  0
  -16.9469   10.3971  -19.7039 C   0  0  0  0  0  0  0  0  0  0  0  0
  -17.2495    9.6157  -18.5545 N   0  0  0  0  0  0  0  0  0  0  0  0
  -16.0744    9.9504  -20.6347 N   0  0  0  0  0  0  0  0  0  0  0  0
  -15.7171   10.6496  -21.7199 C   0  0  0  0  0  0  0  0  0  0  0  0
  -16.2643   11.8620  -21.8775 N   0  0  0  0  0  0  0  0  0  0  0  0
  -17.1371   12.4103  -21.0262 C   0  0  0  0  0  0  0  0  0  0  0  0
  -17.8870    8.8040  -18.6752 H   0  0  0  0  0  0  0  0  0  0  0  0
  -16.8795    9.7947  -17.5967 H   0  0  0  0  0  0  0  0  0  0  0  0
  -19.1580   17.9023  -23.0483 C   0  0  0  0  0  0  0  0  0  0  0  0
  -18.9429   18.6312  -24.0614 O   0  0  0  0  0  0  0  0  0  0  0  0
  -18.3996   16.7286  -22.8467 N   0  0  0  0  0  0  0  0  0  0  0  0
  -17.3677   16.3894  -23.8260 C   0  0  0  0  0  0  0  0  0  0  0  0
  -16.0440   16.1189  -23.1270 C   0  0  0  0  0  0  0  0  0  0  0  0
  -16.2131   15.1801  -21.9763 C   0  0  0  0  0  0  0  0  0  0  0  0
  -17.6364   14.6493  -21.9964 C   0  0  0  0  0  0  0  0  0  0  0  0
  -18.5599   15.8142  -21.7345 C   0  0  0  0  0  0  0  0  0  0  0  0
  -21.4565   17.9218  -22.2923 C   0  0  0  0  0  0  0  0  0  0  0  0
  -20.2038   18.3282  -22.1244 C   0  0  0  0  0  0  0  0  0  0  0  0
  -22.5842   18.2914  -21.4219 C   0  0  0  0  0  0  0  0  0  0  0  0
  -23.7562   19.5252  -23.1343 C   0  0  0  0  0  0  0  0  0  0  0  0
  -23.8287   18.4300  -22.1937 N   0  0  0  0  0  0  0  0  0  0  0  0
  -24.0953   17.1788  -22.8981 C   0  0  0  0  0  0  0  0  0  0  0  0
  -19.0108   12.1346  -17.9479 C   0  0  0  0  0  0  0  0  0  0  0  0
  -19.0954   13.1158  -16.9578 C   0  0  0  0  0  0  0  0  0  0  0  0
  -19.7545   12.8660  -15.7739 C   0  0  0  0  0  0  0  0  0  0  0  0
  -20.3458   11.6305  -15.5478 C   0  0  0  0  0  0  0  0  0  0  0  0
  -20.2644   10.6706  -16.5154 C   0  0  0  0  0  0  0  0  0  0  0  0
  -19.6036   10.9344  -17.6929 C   0  0  0  0  0  0  0  0  0  0  0  0
  -21.0080   11.4115  -14.3287 O   0  0  0  0  0  0  0  0  0  0  0  0
  -20.6434   10.2973  -13.5792 C   0  0  0  0  0  0  0  0  0  0  0  0
  -21.4795    9.2072  -13.4535 C   0  0  0  0  0  0  0  0  0  0  0  0
  -21.1304    8.0977  -12.7142 C   0  0  0  0  0  0  0  0  0  0  0  0
  -19.9170    8.0293  -12.0619 C   0  0  0  0  0  0  0  0  0  0  0  0
  -19.0680    9.1148  -12.1789 C   0  0  0  0  0  0  0  0  0  0  0  0
  -19.4187   10.2246  -12.9188 C   0  0  0  0  0  0  0  0  0  0  0  0
 24 25  1  0  0  0
 25 26  1  0  0  0
 25 23  1  0  0  0
 23 21  1  0  0  0
 21 22  2  0  0  0
 22 13  1  0  0  0
 13 14  2  0  0  0
 13 15  1  0  0  0
 15 16  1  0  0  0
 16 17  1  0  0  0
 17 18  1  0  0  0
 18 19  1  0  0  0
 19 20  1  0  0  0
 19  1  1  0  0  0
  1  2  1  0  0  0
  2  3  2  0  0  0
  3 27  1  0  0  0
 27 28  2  0  0  0
 28 29  1  0  0  0
 29 30  2  0  0  0
 30 33  1  0  0  0
 33 34  1  0  0  0
 34 35  2  0  0  0
 35 36  1  0  0  0
 36 37  2  0  0  0
 37 38  1  0  0  0
 38 39  2  0  0  0
 30 31  1  0  0  0
 31 32  2  0  0  0
  3  4  1  0  0  0
  4  5  2  0  0  0
  5  6  1  0  0  0
  5  7  1  0  0  0
  7  8  2  0  0  0
  8  9  1  0  0  0
  9 10  2  0  0  0
 20 15  1  0  0  0
 10  1  1  0  0  0
 32 27  1  0  0  0
 10  4  1  0  0  0
 39 34  1  0  0  0
  6 11  1  0  0  0
  6 12  1  0  0  0
M  END
> <minimizedAffinity>
-8.27163

> <CNNscore>
0.7314032316

> <CNNaffinity>
7.5119376183

> <CNN_VS>
5.4942555428

> <CNNaffinity_variance>
0.0683943480

$$$$
[H]/C(C(=O)N1C([H])([H])C([H])([H])C([H])([H])[C@@]([H])(n2nc(-c3c([H])c([H])c(Oc4c([H])c([H])c([H])c([H])c4[H])c([H])c3[H])c3c(N([H])[H])nc([H])nc32)C1([H])[H])=C(/[H])C([H])([H])N(C([H])([H])[H])C([H])([H])[H]


 39 43  0  0  0  0  0  0  0  0999 V2000
  -18.1744   13.4591  -20.4901 N   0  0  0  0  0  0  0  0  0  0  0  0
  -18.9289   13.4322  -19.4193 N   0  0  0  0  0  0  0  0  0  0  0  0
  -18.7622   12.2769  -18.7139 C   0  0  0  0  0  0  0  0  0  0  0  0
  -17.8439   11.5255  -19.3776 C   0  0  0  0  0  0  0  0  0  0  0  0
  -17.2526   10.2903  -19.1618 C   0  0  0  0  0  0  0  0  0  0  0  0
  -17.5540    9.5025  -18.0164 N   0  0  0  0  0  0  0  0  0  0  0  0
  -16.3410    9.8732  -20.0686 N   0  0  0  0  0  0  0  0  0  0  0  0
  -15.9835   10.5812  -21.1481 C   0  0  0  0  0  0  0  0  0  0  0  0
  -16.5720   11.7713  -21.3251 N   0  0  0  0  0  0  0  0  0  0  0  0
  -17.4858   12.2895  -20.4984 C   0  0  0  0  0  0  0  0  0  0  0  0
  -18.1571    8.6667  -18.1488 H   0  0  0  0  0  0  0  0  0  0  0  0
  -17.2149    9.6992  -17.0507 H   0  0  0  0  0  0  0  0  0  0  0  0
  -19.8174   17.5386  -22.7778 C   0  0  0  0  0  0  0  0  0  0  0  0
  -19.5789   18.2791  -23.7771 O   0  0  0  0  0  0  0  0  0  0  0  0
  -18.9515   16.4676  -22.4674 N   0  0  0  0  0  0  0  0  0  0  0  0
  -17.7832   16.2474  -23.3191 C   0  0  0  0  0  0  0  0  0  0  0  0
  -16.5234   16.1459  -22.4726 C   0  0  0  0  0  0  0  0  0  0  0  0
  -16.7069   15.2040  -21.3267 C   0  0  0  0  0  0  0  0  0  0  0  0
  -18.0451   14.5041  -21.4916 C   0  0  0  0  0  0  0  0  0  0  0  0
  -19.1249   15.5505  -21.3593 C   0  0  0  0  0  0  0  0  0  0  0  0
  -20.9567   18.7635  -21.0293 C   0  0  0  0  0  0  0  0  0  0  0  0
  -21.0037   17.8427  -21.9845 C   0  0  0  0  0  0  0  0  0  0  0  0
  -22.0912   19.1455  -20.1732 C   0  0  0  0  0  0  0  0  0  0  0  0
  -22.6556   17.4002  -18.6037 C   0  0  0  0  0  0  0  0  0  0  0  0
  -22.9557   17.9901  -19.8888 N   0  0  0  0  0  0  0  0  0  0  0  0
  -24.3519   18.4163  -19.9328 C   0  0  0  0  0  0  0  0  0  0  0  0
  -19.4237   11.9553  -17.4660 C   0  0  0  0  0  0  0  0  0  0  0  0
  -20.1031   10.7427  -17.3310 C   0  0  0  0  0  0  0  0  0  0  0  0
  -20.6873   10.3927  -16.1333 C   0  0  0  0  0  0  0  0  0  0  0  0
  -20.6087   11.2441  -15.0397 C   0  0  0  0  0  0  0  0  0  0  0  0
  -19.9440   12.4296  -15.1700 C   0  0  0  0  0  0  0  0  0  0  0  0
  -19.3650   12.7656  -16.3719 C   0  0  0  0  0  0  0  0  0  0  0  0
  -21.2173   10.8547  -13.8353 O   0  0  0  0  0  0  0  0  0  0  0  0
  -20.4006   10.3685  -12.8189 C   0  0  0  0  0  0  0  0  0  0  0  0
  -20.3426   10.9816  -11.5844 C   0  0  0  0  0  0  0  0  0  0  0  0
  -19.5380   10.5102  -10.5697 C   0  0  0  0  0  0  0  0  0  0  0  0
  -18.7485    9.3931  -10.7470 C   0  0  0  0  0  0  0  0  0  0  0  0
  -18.7964    8.7676  -11.9796 C   0  0  0  0  0  0  0  0  0  0  0  0
  -19.6017    9.2405  -12.9944 C   0  0  0  0  0  0  0  0  0  0  0  0
 24 25  1  0  0  0
 25 26  1  0  0  0
 25 23  1  0  0  0
 23 21  1  0  0  0
 21 22  2  0  0  0
 22 13  1  0  0  0
 13 14  2  0  0  0
 13 15  1  0  0  0
 15 16  1  0  0  0
 16 17  1  0  0  0
 17 18  1  0  0  0
 18 19  1  0  0  0
 19 20  1  0  0  0
 19  1  1  0  0  0
  1  2  1  0  0  0
  2  3  2  0  0  0
  3 27  1  0  0  0
 27 28  2  0  0  0
 28 29  1  0  0  0
 29 30  2  0  0  0
 30 33  1  0  0  0
 33 34  1  0  0  0
 34 35  2  0  0  0
 35 36  1  0  0  0
 36 37  2  0  0  0
 37 38  1  0  0  0
 38 39  2  0  0  0
 30 31  1  0  0  0
 31 32  2  0  0  0
  3  4  1  0  0  0
  4  5  2  0  0  0
  5  6  1  0  0  0
  5  7  1  0  0  0
  7  8  2  0  0  0
  8  9  1  0  0  0
  9 10  2  0  0  0
 20 15  1  0  0  0
 10  1  1  0  0  0
 32 27  1  0  0  0
 10  4  1  0  0  0
 39 34  1  0  0  0
  6 11  1  0  0  0
  6 12  1  0  0  0
M  END
> <minimizedAffinity>
-7.94637

> <CNNscore>
0.6568853259

> <CNNaffinity>
7.4539008141

> <CNN_VS>
4.8963580132

> <CNNaffinity_variance>
0.1075552255

$$$$
[H]/C(C(=O)N1C([H])([H])C([H])([H])C([H])([H])[C@@]([H])(n2nc(-c3c([H])c([H])c(Oc4c([H])c([H])c([H])c([H])c4[H])c([H])c3[H])c3c(N([H])[H])nc([H])nc32)C1([H])[H])=C(/[H])C([H])([H])N(C([H])([H])[H])C([H])([H])[H]


 39 43  0  0  0  0  0  0  0  0999 V2000
  -18.0390   13.5339  -20.5508 N   0  0  0  0  0  0  0  0  0  0  0  0
  -18.8092   13.4887  -19.4918 N   0  0  0  0  0  0  0  0  0  0  0  0
  -18.6688   12.3125  -18.8160 C   0  0  0  0  0  0  0  0  0  0  0  0
  -17.7515   11.5663  -19.4870 C   0  0  0  0  0  0  0  0  0  0  0  0
  -17.1807   10.3173  -19.2968 C   0  0  0  0  0  0  0  0  0  0  0  0
  -17.5095    9.5032  -18.1777 N   0  0  0  0  0  0  0  0  0  0  0  0
  -16.2620    9.9120  -20.2017 N   0  0  0  0  0  0  0  0  0  0  0  0
  -15.8791   10.6439  -21.2563 C   0  0  0  0  0  0  0  0  0  0  0  0
  -16.4484   11.8467  -21.4090 N   0  0  0  0  0  0  0  0  0  0  0  0
  -17.3667   12.3552  -20.5814 C   0  0  0  0  0  0  0  0  0  0  0  0
  -18.1222    8.6800  -18.3413 H   0  0  0  0  0  0  0  0  0  0  0  0
  -17.1816    9.6688  -17.2023 H   0  0  0  0  0  0  0  0  0  0  0  0
  -19.7186   17.5341  -22.9492 C   0  0  0  0  0  0  0  0  0  0  0  0
  -19.4310   18.3076  -23.9100 O   0  0  0  0  0  0  0  0  0  0  0  0
  -18.8167   16.5189  -22.5632 N   0  0  0  0  0  0  0  0  0  0  0  0
  -17.5548   16.3944  -23.2919 C   0  0  0  0  0  0  0  0  0  0  0  0
  -16.3844   16.3631  -22.3208 C   0  0  0  0  0  0  0  0  0  0  0  0
  -16.6184   15.3897  -21.2109 C   0  0  0  0  0  0  0  0  0  0  0  0
  -17.8808   14.6037  -21.5214 C   0  0  0  0  0  0  0  0  0  0  0  0
  -19.0385   15.5717  -21.4897 C   0  0  0  0  0  0  0  0  0  0  0  0
  -21.9530   18.4588  -22.8602 C   0  0  0  0  0  0  0  0  0  0  0  0
  -20.9982   17.7421  -22.2796 C   0  0  0  0  0  0  0  0  0  0  0  0
  -23.2754   18.7295  -22.2740 C   0  0  0  0  0  0  0  0  0  0  0  0
  -23.1307   20.6322  -20.7951 C   0  0  0  0  0  0  0  0  0  0  0  0
  -23.1561   19.1895  -20.8819 N   0  0  0  0  0  0  0  0  0  0  0  0
  -24.2739   18.6586  -20.1063 C   0  0  0  0  0  0  0  0  0  0  0  0
  -19.3527   11.9666  -17.5868 C   0  0  0  0  0  0  0  0  0  0  0  0
  -19.5691   12.9434  -16.6125 C   0  0  0  0  0  0  0  0  0  0  0  0
  -20.2697   12.6484  -15.4634 C   0  0  0  0  0  0  0  0  0  0  0  0
  -20.7720   11.3708  -15.2571 C   0  0  0  0  0  0  0  0  0  0  0  0
  -20.5617   10.4150  -16.2092 C   0  0  0  0  0  0  0  0  0  0  0  0
  -19.8609   10.7241  -17.3520 C   0  0  0  0  0  0  0  0  0  0  0  0
  -21.4800   11.1063  -14.0733 O   0  0  0  0  0  0  0  0  0  0  0  0
  -22.8702   11.0937  -14.1335 C   0  0  0  0  0  0  0  0  0  0  0  0
  -23.6093   12.2491  -13.9855 C   0  0  0  0  0  0  0  0  0  0  0  0
  -24.9863   12.2501  -14.0430 C   0  0  0  0  0  0  0  0  0  0  0  0
  -25.6913   11.0835  -14.2538 C   0  0  0  0  0  0  0  0  0  0  0  0
  -24.9637    9.9170  -14.4043 C   0  0  0  0  0  0  0  0  0  0  0  0
  -23.5858    9.9173  -14.3462 C   0  0  0  0  0  0  0  0  0  0  0  0
 24 25  1  0  0  0
 25 26  1  0  0  0
 25 23  1  0  0  0
 23 21  1  0  0  0
 21 22  2  0  0  0
 22 13  1  0  0  0
 13 14  2  0  0  0
 13 15  1  0  0  0
 15 16  1  0  0  0
 16 17  1  0  0  0
 17 18  1  0  0  0
 18 19  1  0  0  0
 19 20  1  0  0  0
 19  1  1  0  0  0
  1  2  1  0  0  0
  2  3  2  0  0  0
  3 27  1  0  0  0
 27 28  2  0  0  0
 28 29  1  0  0  0
 29 30  2  0  0  0
 30 33  1  0  0  0
 33 34  1  0  0  0
 34 35  2  0  0  0
 35 36  1  0  0  0
 36 37  2  0  0  0
 37 38  1  0  0  0
 38 39  2  0  0  0
 30 31  1  0  0  0
 31 32  2  0  0  0
  3  4  1  0  0  0
  4  5  2  0  0  0
  5  6  1  0  0  0
  5  7  1  0  0  0
  7  8  2  0  0  0
  8  9  1  0  0  0
  9 10  2  0  0  0
 20 15  1  0  0  0
 10  1  1  0  0  0
 32 27  1  0  0  0
 10  4  1  0  0  0
 39 34  1  0  0  0
  6 11  1  0  0  0
  6 12  1  0  0  0
M  END
> <minimizedAffinity>
-7.72149

> <CNNscore>
0.5548529625

> <CNNaffinity>
7.3588523865

> <CNN_VS>
4.0830812454

> <CNNaffinity_variance>
0.2330802977

$$$$
[H]/C(C(=O)N1C([H])([H])C([H])([H])C([H])([H])[C@@]([H])(n2nc(-c3c([H])c([H])c(Oc4c([H])c([H])c([H])c([H])c4[H])c([H])c3[H])c3c(N([H])[H])nc([H])nc32)C1([H])[H])=C(/[H])C([H])([H])N(C([H])([H])[H])C([H])([H])[H]


 39 43  0  0  0  0  0  0  0  0999 V2000
  -18.2271   11.7430  -18.5170 N   0  0  0  0  0  0  0  0  0  0  0  0
  -18.5287   12.9793  -18.8288 N   0  0  0  0  0  0  0  0  0  0  0  0
  -17.9522   13.3576  -20.0055 C   0  0  0  0  0  0  0  0  0  0  0  0
  -17.2426   12.2947  -20.4695 C   0  0  0  0  0  0  0  0  0  0  0  0
  -16.4723   12.0515  -21.5961 C   0  0  0  0  0  0  0  0  0  0  0  0
  -16.2941   13.0322  -22.6109 N   0  0  0  0  0  0  0  0  0  0  0  0
  -15.9214   10.8230  -21.7162 N   0  0  0  0  0  0  0  0  0  0  0  0
  -16.0797    9.8424  -20.8175 C   0  0  0  0  0  0  0  0  0  0  0  0
  -16.8321   10.1100  -19.7421 N   0  0  0  0  0  0  0  0  0  0  0  0
  -17.4278   11.2847  -19.5137 C   0  0  0  0  0  0  0  0  0  0  0  0
  -15.3754   13.5152  -22.6614 H   0  0  0  0  0  0  0  0  0  0  0  0
  -17.0166   13.3047  -23.3110 H   0  0  0  0  0  0  0  0  0  0  0  0
  -21.2813   10.8731  -14.7104 C   0  0  0  0  0  0  0  0  0  0  0  0
  -21.4058   10.1371  -13.6873 O   0  0  0  0  0  0  0  0  0  0  0  0
  -20.2071   10.6683  -15.6034 N   0  0  0  0  0  0  0  0  0  0  0  0
  -19.2604    9.5907  -15.3185 C   0  0  0  0  0  0  0  0  0  0  0  0
  -19.0851    8.7037  -16.5418 C   0  0  0  0  0  0  0  0  0  0  0  0
  -18.8328    9.5117  -17.7736 C   0  0  0  0  0  0  0  0  0  0  0  0
  -18.6448   10.9626  -17.3645 C   0  0  0  0  0  0  0  0  0  0  0  0
  -19.9565   11.4490  -16.7978 C   0  0  0  0  0  0  0  0  0  0  0  0
  -22.0913   13.1344  -14.4182 C   0  0  0  0  0  0  0  0  0  0  0  0
  -22.2805   11.9169  -14.9124 C   0  0  0  0  0  0  0  0  0  0  0  0
  -23.0326   14.2564  -14.5630 C   0  0  0  0  0  0  0  0  0  0  0  0
  -23.3193   15.7441  -16.4425 C   0  0  0  0  0  0  0  0  0  0  0  0
  -22.4462   15.3428  -15.3627 N   0  0  0  0  0  0  0  0  0  0  0  0
  -22.1688   16.4811  -14.4908 C   0  0  0  0  0  0  0  0  0  0  0  0
  -18.1186   14.6480  -20.6423 C   0  0  0  0  0  0  0  0  0  0  0  0
  -17.3968   15.7503  -20.1797 C   0  0  0  0  0  0  0  0  0  0  0  0
  -17.4963   16.9716  -20.8097 C   0  0  0  0  0  0  0  0  0  0  0  0
  -18.3190   17.1240  -21.9175 C   0  0  0  0  0  0  0  0  0  0  0  0
  -19.0247   16.0468  -22.3713 C   0  0  0  0  0  0  0  0  0  0  0  0
  -18.9149   14.8333  -21.7325 C   0  0  0  0  0  0  0  0  0  0  0  0
  -18.3964   18.3840  -22.5332 O   0  0  0  0  0  0  0  0  0  0  0  0
  -19.1319   19.3780  -21.8950 C   0  0  0  0  0  0  0  0  0  0  0  0
  -18.5384   20.5406  -21.4487 C   0  0  0  0  0  0  0  0  0  0  0  0
  -19.2554   21.5326  -20.8152 C   0  0  0  0  0  0  0  0  0  0  0  0
  -20.6115   21.4038  -20.5988 C   0  0  0  0  0  0  0  0  0  0  0  0
  -21.2206   20.2435  -21.0411 C   0  0  0  0  0  0  0  0  0  0  0  0
  -20.5018   19.2515  -21.6746 C   0  0  0  0  0  0  0  0  0  0  0  0
 24 25  1  0  0  0
 25 26  1  0  0  0
 25 23  1  0  0  0
 23 21  1  0  0  0
 21 22  2  0  0  0
 22 13  1  0  0  0
 13 14  2  0  0  0
 13 15  1  0  0  0
 15 16  1  0  0  0
 16 17  1  0  0  0
 17 18  1  0  0  0
 18 19  1  0  0  0
 19 20  1  0  0  0
 19  1  1  0  0  0
  1  2  1  0  0  0
  2  3  2  0  0  0
  3 27  1  0  0  0
 27 28  2  0  0  0
 28 29  1  0  0  0
 29 30  2  0  0  0
 30 33  1  0  0  0
 33 34  1  0  0  0
 34 35  2  0  0  0
 35 36  1  0  0  0
 36 37  2  0  0  0
 37 38  1  0  0  0
 38 39  2  0  0  0
 30 31  1  0  0  0
 31 32  2  0  0  0
  3  4  1  0  0  0
  4  5  2  0  0  0
  5  6  1  0  0  0
  5  7  1  0  0  0
  7  8  2  0  0  0
  8  9  1  0  0  0
  9 10  2  0  0  0
 20 15  1  0  0  0
 10  1  1  0  0  0
 32 27  1  0  0  0
 10  4  1  0  0  0
 39 34  1  0  0  0
  6 11  1  0  0  0
  6 12  1  0  0  0
M  END
> <minimizedAffinity>
-7.28130

> <CNNscore>
0.4623847008

> <CNNaffinity>
7.3756608963

> <CNN_VS>
3.4103927612

> <CNNaffinity_variance>
0.3343761265

$$$$
[H]/C(C(=O)N1C([H])([H])C([H])([H])C([H])([H])[C@@]([H])(n2nc(-c3c([H])c([H])c(Oc4c([H])c([H])c([H])c([H])c4[H])c([H])c3[H])c3c(N([H])[H])nc([H])nc32)C1([H])[H])=C(/[H])C([H])([H])N(C([H])([H])[H])C([H])([H])[H]


 39 43  0  0  0  0  0  0  0  0999 V2000
  -19.2361   13.3262  -19.0978 N   0  0  0  0  0  0  0  0  0  0  0  0
  -19.8848   13.1074  -17.9806 N   0  0  0  0  0  0  0  0  0  0  0  0
  -19.5863   11.8846  -17.4555 C   0  0  0  0  0  0  0  0  0  0  0  0
  -18.6916   11.2921  -18.2903 C   0  0  0  0  0  0  0  0  0  0  0  0
  -18.0120   10.0838  -18.2951 C   0  0  0  0  0  0  0  0  0  0  0  0
  -18.1592    9.1346  -17.2461 N   0  0  0  0  0  0  0  0  0  0  0  0
  -17.1662    9.8532  -19.3240 N   0  0  0  0  0  0  0  0  0  0  0  0
  -16.9525   10.7189  -20.3235 C   0  0  0  0  0  0  0  0  0  0  0  0
  -17.6231   11.8778  -20.2868 N   0  0  0  0  0  0  0  0  0  0  0  0
  -18.4845   12.2187  -19.3231 C   0  0  0  0  0  0  0  0  0  0  0  0
  -18.7224    8.2830  -17.4393 H   0  0  0  0  0  0  0  0  0  0  0  0
  -17.7436    9.2272  -16.2947 H   0  0  0  0  0  0  0  0  0  0  0  0
  -20.6044   17.9900  -20.0734 C   0  0  0  0  0  0  0  0  0  0  0  0
  -20.6059   18.8488  -21.0043 O   0  0  0  0  0  0  0  0  0  0  0  0
  -19.9736   16.7413  -20.2630 N   0  0  0  0  0  0  0  0  0  0  0  0
  -19.3246   16.4767  -21.5466 C   0  0  0  0  0  0  0  0  0  0  0  0
  -17.8990   15.9928  -21.3286 C   0  0  0  0  0  0  0  0  0  0  0  0
  -17.8400   14.9022  -20.3082 C   0  0  0  0  0  0  0  0  0  0  0  0
  -19.2616   14.4991  -19.9553 C   0  0  0  0  0  0  0  0  0  0  0  0
  -19.9144   15.6800  -19.2787 C   0  0  0  0  0  0  0  0  0  0  0  0
  -20.5882   18.9031  -17.8326 C   0  0  0  0  0  0  0  0  0  0  0  0
  -21.2720   18.3497  -18.8269 C   0  0  0  0  0  0  0  0  0  0  0  0
  -21.1619   19.3024  -16.5375 C   0  0  0  0  0  0  0  0  0  0  0  0
  -21.3278   17.2793  -15.2307 C   0  0  0  0  0  0  0  0  0  0  0  0
  -20.5949   18.5080  -15.4370 N   0  0  0  0  0  0  0  0  0  0  0  0
  -19.1949   18.2151  -15.7318 C   0  0  0  0  0  0  0  0  0  0  0  0
  -20.1089   11.3578  -16.2114 C   0  0  0  0  0  0  0  0  0  0  0  0
  -19.4454   11.6211  -15.0111 C   0  0  0  0  0  0  0  0  0  0  0  0
  -19.9590   11.1795  -13.8113 C   0  0  0  0  0  0  0  0  0  0  0  0
  -21.1478   10.4633  -13.7788 C   0  0  0  0  0  0  0  0  0  0  0  0
  -21.7979   10.2059  -14.9515 C   0  0  0  0  0  0  0  0  0  0  0  0
  -21.2736   10.6537  -16.1420 C   0  0  0  0  0  0  0  0  0  0  0  0
  -21.6405   10.0281  -12.5376 O   0  0  0  0  0  0  0  0  0  0  0  0
  -21.3848   10.8179  -11.4209 C   0  0  0  0  0  0  0  0  0  0  0  0
  -22.0898   11.9794  -11.1819 C   0  0  0  0  0  0  0  0  0  0  0  0
  -21.8463   12.7704  -10.0799 C   0  0  0  0  0  0  0  0  0  0  0  0
  -20.8774   12.4302   -9.1590 C   0  0  0  0  0  0  0  0  0  0  0  0
  -20.1625   11.2681   -9.3852 C   0  0  0  0  0  0  0  0  0  0  0  0
  -20.4069   10.4776  -10.4885 C   0  0  0  0  0  0  0  0  0  0  0  0
 24 25  1  0  0  0
 25 26  1  0  0  0
 25 23  1  0  0  0
 23 21  1  0  0  0
 21 22  2  0  0  0
 22 13  1  0  0  0
 13 14  2  0  0  0
 13 15  1  0  0  0
 15 16  1  0  0  0
 16 17  1  0  0  0
 17 18  1  0  0  0
 18 19  1  0  0  0
 19 20  1  0  0  0
 19  1  1  0  0  0
  1  2  1  0  0  0
  2  3  2  0  0  0
  3 27  1  0  0  0
 27 28  2  0  0  0
 28 29  1  0  0  0
 29 30  2  0  0  0
 30 33  1  0  0  0
 33 34  1  0  0  0
 34 35  2  0  0  0
 35 36  1  0  0  0
 36 37  2  0  0  0
 37 38  1  0  0  0
 38 39  2  0  0  0
 30 31  1  0  0  0
 31 32  2  0  0  0
  3  4  1  0  0  0
  4  5  2  0  0  0
  5  6  1  0  0  0
  5  7  1  0  0  0
  7  8  2  0  0  0
  8  9  1  0  0  0
  9 10  2  0  0  0
 20 15  1  0  0  0
 10  1  1  0  0  0
 32 27  1  0  0  0
 10  4  1  0  0  0
 39 34  1  0  0  0
  6 11  1  0  0  0
  6 12  1  0  0  0
M  END
> <minimizedAffinity>
-7.40788

> <CNNscore>
0.4595229626

> <CNNaffinity>
7.1494002342

> <CNN_VS>
3.2853136063

> <CNNaffinity_variance>
0.3049703240

$$$$
[H]/C(C(=O)N1C([H])([H])C([H])([H])C([H])([H])[C@@]([H])(n2nc(-c3c([H])c([H])c(Oc4c([H])c([H])c([H])c([H])c4[H])c([H])c3[H])c3c(N([H])[H])nc([H])nc32)C1([H])[H])=C(/[H])C([H])([H])N(C([H])([H])[H])C([H])([H])[H]


 39 43  0  0  0  0  0  0  0  0999 V2000
  -19.0036   11.2486  -17.4134 N   0  0  0  0  0  0  0  0  0  0  0  0
  -19.6074   12.4004  -17.5730 N   0  0  0  0  0  0  0  0  0  0  0  0
  -19.2657   12.9895  -18.7545 C   0  0  0  0  0  0  0  0  0  0  0  0
  -18.3925   12.1590  -19.3841 C   0  0  0  0  0  0  0  0  0  0  0  0
  -17.7182   12.1869  -20.5951 C   0  0  0  0  0  0  0  0  0  0  0  0
  -17.8790   13.2552  -21.5204 N   0  0  0  0  0  0  0  0  0  0  0  0
  -16.9231   11.1331  -20.8856 N   0  0  0  0  0  0  0  0  0  0  0  0
  -16.7562   10.0782  -20.0771 C   0  0  0  0  0  0  0  0  0  0  0  0
  -17.4243   10.0819  -18.9161 N   0  0  0  0  0  0  0  0  0  0  0  0
  -18.2385   11.0651  -18.5194 C   0  0  0  0  0  0  0  0  0  0  0  0
  -17.1034   13.9413  -21.6071 H   0  0  0  0  0  0  0  0  0  0  0  0
  -18.7178   13.4034  -22.1211 H   0  0  0  0  0  0  0  0  0  0  0  0
  -20.2135   10.1168  -12.7412 C   0  0  0  0  0  0  0  0  0  0  0  0
  -20.1084    9.1877  -11.8870 O   0  0  0  0  0  0  0  0  0  0  0  0
  -19.7561    9.9193  -14.0621 N   0  0  0  0  0  0  0  0  0  0  0  0
  -19.1722    8.6246  -14.4106 C   0  0  0  0  0  0  0  0  0  0  0  0
  -19.8319    8.0668  -15.6627 C   0  0  0  0  0  0  0  0  0  0  0  0
  -19.8967    9.0896  -16.7507 C   0  0  0  0  0  0  0  0  0  0  0  0
  -19.1042   10.3085  -16.3099 C   0  0  0  0  0  0  0  0  0  0  0  0
  -19.8147   10.9071  -15.1203 C   0  0  0  0  0  0  0  0  0  0  0  0
  -22.1368   11.4991  -12.2457 C   0  0  0  0  0  0  0  0  0  0  0  0
  -20.8166   11.3699  -12.2995 C   0  0  0  0  0  0  0  0  0  0  0  0
  -22.8459   12.7154  -11.8169 C   0  0  0  0  0  0  0  0  0  0  0  0
  -22.7807   14.0831  -13.8052 C   0  0  0  0  0  0  0  0  0  0  0  0
  -23.6175   13.2997  -12.9245 N   0  0  0  0  0  0  0  0  0  0  0  0
  -24.2677   12.2264  -13.6716 C   0  0  0  0  0  0  0  0  0  0  0  0
  -19.7870   14.2495  -19.2433 C   0  0  0  0  0  0  0  0  0  0  0  0
  -21.0443   14.2940  -19.8495 C   0  0  0  0  0  0  0  0  0  0  0  0
  -21.5826   15.4917  -20.2666 C   0  0  0  0  0  0  0  0  0  0  0  0
  -20.8798   16.6757  -20.0897 C   0  0  0  0  0  0  0  0  0  0  0  0
  -19.6508   16.6338  -19.4964 C   0  0  0  0  0  0  0  0  0  0  0  0
  -19.1260   15.4306  -19.0843 C   0  0  0  0  0  0  0  0  0  0  0  0
  -21.4595   17.8774  -20.5285 O   0  0  0  0  0  0  0  0  0  0  0  0
  -21.9821   17.9171  -21.8175 C   0  0  0  0  0  0  0  0  0  0  0  0
  -23.3356   17.7887  -22.0516 C   0  0  0  0  0  0  0  0  0  0  0  0
  -23.8658   17.8262  -23.3231 C   0  0  0  0  0  0  0  0  0  0  0  0
  -23.0571   17.9962  -24.4274 C   0  0  0  0  0  0  0  0  0  0  0  0
  -21.6977   18.1268  -24.2084 C   0  0  0  0  0  0  0  0  0  0  0  0
  -21.1684   18.0887  -22.9355 C   0  0  0  0  0  0  0  0  0  0  0  0
 24 25  1  0  0  0
 25 26  1  0  0  0
 25 23  1  0  0  0
 23 21  1  0  0  0
 21 22  2  0  0  0
 22 13  1  0  0  0
 13 14  2  0  0  0
 13 15  1  0  0  0
 15 16  1  0  0  0
 16 17  1  0  0  0
 17 18  1  0  0  0
 18 19  1  0  0  0
 19 20  1  0  0  0
 19  1  1  0  0  0
  1  2  1  0  0  0
  2  3  2  0  0  0
  3 27  1  0  0  0
 27 28  2  0  0  0
 28 29  1  0  0  0
 29 30  2  0  0  0
 30 33  1  0  0  0
 33 34  1  0  0  0
 34 35  2  0  0  0
 35 36  1  0  0  0
 36 37  2  0  0  0
 37 38  1  0  0  0
 38 39  2  0  0  0
 30 31  1  0  0  0
 31 32  2  0  0  0
  3  4  1  0  0  0
  4  5  2  0  0  0
  5  6  1  0  0  0
  5  7  1  0  0  0
  7  8  2  0  0  0
  8  9  1  0  0  0
  9 10  2  0  0  0
 20 15  1  0  0  0
 10  1  1  0  0  0
 32 27  1  0  0  0
 10  4  1  0  0  0
 39 34  1  0  0  0
  6 11  1  0  0  0
  6 12  1  0  0  0
M  END
> <minimizedAffinity>
-7.50308

> <CNNscore>
0.4364968240

> <CNNaffinity>
7.1149458885

> <CNN_VS>
3.1056513786

> <CNNaffinity_variance>
0.1981338859

$$$$
[H]/C(C(=O)N1C([H])([H])C([H])([H])C([H])([H])[C@@]([H])(n2nc(-c3c([H])c([H])c(Oc4c([H])c([H])c([H])c([H])c4[H])c([H])c3[H])c3c(N([H])[H])nc([H])nc32)C1([H])[H])=C(/[H])C([H])([H])N(C([H])([H])[H])C([H])([H])[H]


 39 43  0  0  0  0  0  0  0  0999 V2000
  -19.3433   13.6099  -19.1114 N   0  0  0  0  0  0  0  0  0  0  0  0
  -19.9493   13.2797  -17.9977 N   0  0  0  0  0  0  0  0  0  0  0  0
  -19.5536   12.0526  -17.5530 C   0  0  0  0  0  0  0  0  0  0  0  0
  -18.6388   11.5759  -18.4386 C   0  0  0  0  0  0  0  0  0  0  0  0
  -17.8761   10.4218  -18.5291 C   0  0  0  0  0  0  0  0  0  0  0  0
  -17.9321    9.4042  -17.5367 N   0  0  0  0  0  0  0  0  0  0  0  0
  -17.0398   10.3133  -19.5855 N   0  0  0  0  0  0  0  0  0  0  0  0
  -16.9105   11.2495  -20.5347 C   0  0  0  0  0  0  0  0  0  0  0  0
  -17.6599   12.3533  -20.4156 N   0  0  0  0  0  0  0  0  0  0  0  0
  -18.5209   12.5742  -19.4172 C   0  0  0  0  0  0  0  0  0  0  0  0
  -18.4383    8.5273  -17.7706 H   0  0  0  0  0  0  0  0  0  0  0  0
  -17.5025    9.4701  -16.5894 H   0  0  0  0  0  0  0  0  0  0  0  0
  -18.7424   16.1794  -23.3080 C   0  0  0  0  0  0  0  0  0  0  0  0
  -18.8354   17.3535  -23.7737 O   0  0  0  0  0  0  0  0  0  0  0  0
  -19.1378   15.9113  -21.9795 N   0  0  0  0  0  0  0  0  0  0  0  0
  -19.6577   17.0139  -21.1716 C   0  0  0  0  0  0  0  0  0  0  0  0
  -20.9891   16.6284  -20.5450 C   0  0  0  0  0  0  0  0  0  0  0  0
  -20.9180   15.2883  -19.8869 C   0  0  0  0  0  0  0  0  0  0  0  0
  -19.4708   14.8264  -19.8959 C   0  0  0  0  0  0  0  0  0  0  0  0
  -19.0698   14.6152  -21.3357 C   0  0  0  0  0  0  0  0  0  0  0  0
  -16.9396   15.1492  -24.5506 C   0  0  0  0  0  0  0  0  0  0  0  0
  -18.2184   15.1452  -24.1938 C   0  0  0  0  0  0  0  0  0  0  0  0
  -16.3108   14.1567  -25.4369 C   0  0  0  0  0  0  0  0  0  0  0  0
  -14.0516   14.8496  -24.9431 C   0  0  0  0  0  0  0  0  0  0  0  0
  -14.9911   13.7512  -24.9297 N   0  0  0  0  0  0  0  0  0  0  0  0
  -15.1399   13.2333  -23.5723 C   0  0  0  0  0  0  0  0  0  0  0  0
  -20.0093   11.4173  -16.3335 C   0  0  0  0  0  0  0  0  0  0  0  0
  -19.5035   11.8348  -15.1006 C   0  0  0  0  0  0  0  0  0  0  0  0
  -19.9683   11.2842  -13.9262 C   0  0  0  0  0  0  0  0  0  0  0  0
  -20.9496   10.3026  -13.9523 C   0  0  0  0  0  0  0  0  0  0  0  0
  -21.4455    9.8940  -15.1570 C   0  0  0  0  0  0  0  0  0  0  0  0
  -20.9724   10.4532  -16.3216 C   0  0  0  0  0  0  0  0  0  0  0  0
  -21.3981    9.7634  -12.7355 O   0  0  0  0  0  0  0  0  0  0  0  0
  -20.5737    9.8912  -11.6218 C   0  0  0  0  0  0  0  0  0  0  0  0
  -20.8170   10.8386  -10.6490 C   0  0  0  0  0  0  0  0  0  0  0  0
  -20.0083   10.9755   -9.5414 C   0  0  0  0  0  0  0  0  0  0  0  0
  -18.9098   10.1621   -9.3565 C   0  0  0  0  0  0  0  0  0  0  0  0
  -18.6534    9.2072  -10.3236 C   0  0  0  0  0  0  0  0  0  0  0  0
  -19.4633    9.0714  -11.4316 C   0  0  0  0  0  0  0  0  0  0  0  0
 24 25  1  0  0  0
 25 26  1  0  0  0
 25 23  1  0  0  0
 23 21  1  0  0  0
 21 22  2  0  0  0
 22 13  1  0  0  0
 13 14  2  0  0  0
 13 15  1  0  0  0
 15 16  1  0  0  0
 16 17  1  0  0  0
 17 18  1  0  0  0
 18 19  1  0  0  0
 19 20  1  0  0  0
 19  1  1  0  0  0
  1  2  1  0  0  0
  2  3  2  0  0  0
  3 27  1  0  0  0
 27 28  2  0  0  0
 28 29  1  0  0  0
 29 30  2  0  0  0
 30 33  1  0  0  0
 33 34  1  0  0  0
 34 35  2  0  0  0
 35 36  1  0  0  0
 36 37  2  0  0  0
 37 38  1  0  0  0
 38 39  2  0  0  0
 30 31  1  0  0  0
 31 32  2  0  0  0
  3  4  1  0  0  0
  4  5  2  0  0  0
  5  6  1  0  0  0
  5  7  1  0  0  0
  7  8  2  0  0  0
  8  9  1  0  0  0
  9 10  2  0  0  0
 20 15  1  0  0  0
 10  1  1  0  0  0
 32 27  1  0  0  0
 10  4  1  0  0  0
 39 34  1  0  0  0
  6 11  1  0  0  0
  6 12  1  0  0  0
M  END
> <minimizedAffinity>
-8.65877

> <CNNscore>
0.3854650855

> <CNNaffinity>
7.2574143410

> <CNN_VS>
2.7974798679

> <CNNaffinity_variance>
0.0735211670

$$$$
[H]/C(C(=O)N1C([H])([H])C([H])([H])C([H])([H])[C@@]([H])(n2nc(-c3c([H])c([H])c(Oc4c([H])c([H])c([H])c([H])c4[H])c([H])c3[H])c3c(N([H])[H])nc([H])nc32)C1([H])[H])=C(/[H])C([H])([H])N(C([H])([H])[H])C([H])([H])[H]


 39 43  0  0  0  0  0  0  0  0999 V2000
  -19.6237   12.7938  -17.4149 N   0  0  0  0  0  0  0  0  0  0  0  0
  -19.3694   13.7874  -18.2301 N   0  0  0  0  0  0  0  0  0  0  0  0
  -18.5088   13.4185  -19.2216 C   0  0  0  0  0  0  0  0  0  0  0  0
  -18.1995   12.1094  -19.0239 C   0  0  0  0  0  0  0  0  0  0  0  0
  -17.4109   11.1812  -19.6862 C   0  0  0  0  0  0  0  0  0  0  0  0
  -16.7056   11.5079  -20.8774 N   0  0  0  0  0  0  0  0  0  0  0  0
  -17.3657    9.9305  -19.1756 N   0  0  0  0  0  0  0  0  0  0  0  0
  -18.0341    9.5463  -18.0802 C   0  0  0  0  0  0  0  0  0  0  0  0
  -18.7887   10.4671  -17.4662 N   0  0  0  0  0  0  0  0  0  0  0  0
  -18.9130   11.7334  -17.8760 C   0  0  0  0  0  0  0  0  0  0  0  0
  -15.6767   11.6372  -20.8107 H   0  0  0  0  0  0  0  0  0  0  0  0
  -17.1426   11.6275  -21.8161 H   0  0  0  0  0  0  0  0  0  0  0  0
  -23.0737   14.8285  -14.4937 C   0  0  0  0  0  0  0  0  0  0  0  0
  -23.6541   14.6618  -13.3805 O   0  0  0  0  0  0  0  0  0  0  0  0
  -22.1618   13.8609  -14.9686 N   0  0  0  0  0  0  0  0  0  0  0  0
  -21.9173   12.6736  -14.1506 C   0  0  0  0  0  0  0  0  0  0  0  0
  -22.0860   11.4128  -14.9848 C   0  0  0  0  0  0  0  0  0  0  0  0
  -21.3383   11.5051  -16.2757 C   0  0  0  0  0  0  0  0  0  0  0  0
  -20.4915   12.7662  -16.2496 C   0  0  0  0  0  0  0  0  0  0  0  0
  -21.4331   13.9455  -16.2179 C   0  0  0  0  0  0  0  0  0  0  0  0
  -24.4132   16.0660  -16.0841 C   0  0  0  0  0  0  0  0  0  0  0  0
  -23.3886   16.0419  -15.2402 C   0  0  0  0  0  0  0  0  0  0  0  0
  -24.8161   17.2335  -16.8845 C   0  0  0  0  0  0  0  0  0  0  0  0
  -23.9981   19.4906  -17.1383 C   0  0  0  0  0  0  0  0  0  0  0  0
  -24.4658   18.4904  -16.2054 N   0  0  0  0  0  0  0  0  0  0  0  0
  -25.6349   18.9842  -15.4828 C   0  0  0  0  0  0  0  0  0  0  0  0
  -18.0580   14.2742  -20.3001 C   0  0  0  0  0  0  0  0  0  0  0  0
  -18.6375   14.1621  -21.5657 C   0  0  0  0  0  0  0  0  0  0  0  0
  -18.2644   15.0071  -22.5880 C   0  0  0  0  0  0  0  0  0  0  0  0
  -17.3031   15.9854  -22.3734 C   0  0  0  0  0  0  0  0  0  0  0  0
  -16.7363   16.0965  -21.1363 C   0  0  0  0  0  0  0  0  0  0  0  0
  -17.1191   15.2462  -20.1248 C   0  0  0  0  0  0  0  0  0  0  0  0
  -16.9470   16.8279  -23.4393 O   0  0  0  0  0  0  0  0  0  0  0  0
  -16.1941   16.2855  -24.4762 C   0  0  0  0  0  0  0  0  0  0  0  0
  -16.6291   16.3315  -25.7845 C   0  0  0  0  0  0  0  0  0  0  0  0
  -15.8930   15.7981  -26.8204 C   0  0  0  0  0  0  0  0  0  0  0  0
  -14.6768   15.1895  -26.5905 C   0  0  0  0  0  0  0  0  0  0  0  0
  -14.2274   15.1360  -25.2835 C   0  0  0  0  0  0  0  0  0  0  0  0
  -14.9651   15.6698  -24.2478 C   0  0  0  0  0  0  0  0  0  0  0  0
 24 25  1  0  0  0
 25 26  1  0  0  0
 25 23  1  0  0  0
 23 21  1  0  0  0
 21 22  2  0  0  0
 22 13  1  0  0  0
 13 14  2  0  0  0
 13 15  1  0  0  0
 15 16  1  0  0  0
 16 17  1  0  0  0
 17 18  1  0  0  0
 18 19  1  0  0  0
 19 20  1  0  0  0
 19  1  1  0  0  0
  1  2  1  0  0  0
  2  3  2  0  0  0
  3 27  1  0  0  0
 27 28  2  0  0  0
 28 29  1  0  0  0
 29 30  2  0  0  0
 30 33  1  0  0  0
 33 34  1  0  0  0
 34 35  2  0  0  0
 35 36  1  0  0  0
 36 37  2  0  0  0
 37 38  1  0  0  0
 38 39  2  0  0  0
 30 31  1  0  0  0
 31 32  2  0  0  0
  3  4  1  0  0  0
  4  5  2  0  0  0
  5  6  1  0  0  0
  5  7  1  0  0  0
  7  8  2  0  0  0
  8  9  1  0  0  0
  9 10  2  0  0  0
 20 15  1  0  0  0
 10  1  1  0  0  0
 32 27  1  0  0  0
 10  4  1  0  0  0
 39 34  1  0  0  0
  6 11  1  0  0  0
  6 12  1  0  0  0
M  END
> <minimizedAffinity>
-7.86331

> <CNNscore>
0.3141801059

> <CNNaffinity>
7.1323332787

> <CNN_VS>
2.2408373356

> <CNNaffinity_variance>
0.3940828741

$$$$
[H]c1c([H])c(Cl)c(N([H])c2nc3c([H])c([H])c([N+](=O)[O-])c([H])c3n3c([H])nc([H])c23)c(Cl)c1[H]


 26 29  0  0  0  0  0  0  0  0999 V2000
  -19.8076   13.5516  -19.0020 C   0  0  0  0  0  0  0  0  0  0  0  0
  -20.0127   14.5440  -19.9341 C   0  0  0  0  0  0  0  0  0  0  0  0
  -19.2592   14.5592  -21.1108 C   0  0  0  0  0  0  0  0  0  0  0  0
  -18.3016   13.5978  -21.3738 C   0  0  0  0  0  0  0  0  0  0  0  0
  -17.5584   13.5885  -22.5039 N   0  0  0  0  0  0  0  0  0  0  0  0
  -16.6333   12.6482  -22.7437 C   0  0  0  0  0  0  0  0  0  0  0  0
  -16.4673   11.6651  -21.7633 C   0  0  0  0  0  0  0  0  0  0  0  0
  -15.6061   10.5729  -21.7140 C   0  0  0  0  0  0  0  0  0  0  0  0
  -15.8495    9.9473  -20.5539 N   0  0  0  0  0  0  0  0  0  0  0  0
  -16.8066   10.5808  -19.8796 C   0  0  0  0  0  0  0  0  0  0  0  0
  -17.1840   11.6439  -20.6357 N   0  0  0  0  0  0  0  0  0  0  0  0
  -18.1178   12.6172  -20.4243 C   0  0  0  0  0  0  0  0  0  0  0  0
  -18.8573   12.5933  -19.2580 C   0  0  0  0  0  0  0  0  0  0  0  0
  -20.3891   12.4763  -16.8854 O   0  0  0  0  0  0  0  0  0  0  0  0
  -20.5536   13.5025  -17.7944 N   0  0  0  0  0  0  0  0  0  0  0  0
  -21.3853   14.3821  -17.5068 O   0  0  0  0  0  0  0  0  0  0  0  0
  -15.8418   12.5950  -23.8929 N   0  0  0  0  0  0  0  0  0  0  0  0
  -15.2027   11.7804  -24.0396 H   0  0  0  0  0  0  0  0  0  0  0  0
  -15.8463   13.6004  -24.9039 C   0  0  0  0  0  0  0  0  0  0  0  0
  -16.7592   13.5483  -25.9225 C   0  0  0  0  0  0  0  0  0  0  0  0
  -17.9425   12.2333  -25.9946 Cl  0  0  0  0  0  0  0  0  0  0  0  0
  -16.7671   14.5197  -26.9034 C   0  0  0  0  0  0  0  0  0  0  0  0
  -15.8713   15.5508  -26.8846 C   0  0  0  0  0  0  0  0  0  0  0  0
  -14.9556   15.5904  -25.8503 C   0  0  0  0  0  0  0  0  0  0  0  0
  -14.9453   14.6261  -24.8735 C   0  0  0  0  0  0  0  0  0  0  0  0
  -13.7477   14.7640  -23.6070 Cl  0  0  0  0  0  0  0  0  0  0  0  0
 14 15  1  0  0  0
 15 16  2  0  0  0
 15  1  1  0  0  0
  1  2  2  0  0  0
  2  3  1  0  0  0
  3  4  2  0  0  0
  4  5  1  0  0  0
  5  6  2  0  0  0
  6 17  1  0  0  0
 17 19  1  0  0  0
 19 20  2  0  0  0
 20 21  1  0  0  0
 20 22  1  0  0  0
 22 23  2  0  0  0
 23 24  1  0  0  0
 24 25  2  0  0  0
 25 26  1  0  0  0
  6  7  1  0  0  0
  7  8  2  0  0  0
  8  9  1  0  0  0
  9 10  2  0  0  0
 10 11  1  0  0  0
 11 12  1  0  0  0
 12 13  2  0  0  0
 13  1  1  0  0  0
 12  4  1  0  0  0
 25 19  1  0  0  0
 11  7  1  0  0  0
 17 18  1  0  0  0
M  CHG 1  14  -1
M  CHG 1  15   1
M  END
> <minimizedAffinity>
-8.98219

> <CNNscore>
0.9497622848

> <CNNaffinity>
7.6375823021

> <CNN_VS>
7.2538876534

> <CNNaffinity_variance>
0.0654840842

$$$$
[H]c1c([H])c(Cl)c(N([H])c2nc3c([H])c([H])c([N+](=O)[O-])c([H])c3n3c([H])nc([H])c23)c(Cl)c1[H]


 26 29  0  0  0  0  0  0  0  0999 V2000
  -19.8841   13.5155  -18.9851 C   0  0  0  0  0  0  0  0  0  0  0  0
  -20.0856   14.5021  -19.9240 C   0  0  0  0  0  0  0  0  0  0  0  0
  -19.3139   14.5217  -21.0888 C   0  0  0  0  0  0  0  0  0  0  0  0
  -18.3415   13.5701  -21.3331 C   0  0  0  0  0  0  0  0  0  0  0  0
  -17.5806   13.5651  -22.4513 N   0  0  0  0  0  0  0  0  0  0  0  0
  -16.6413   12.6345  -22.6731 C   0  0  0  0  0  0  0  0  0  0  0  0
  -16.4797   11.6568  -21.6865 C   0  0  0  0  0  0  0  0  0  0  0  0
  -15.6072   10.5746  -21.6195 C   0  0  0  0  0  0  0  0  0  0  0  0
  -15.8618    9.9505  -20.4610 N   0  0  0  0  0  0  0  0  0  0  0  0
  -16.8364   10.5755  -19.8042 C   0  0  0  0  0  0  0  0  0  0  0  0
  -17.2138   11.6316  -20.5702 N   0  0  0  0  0  0  0  0  0  0  0  0
  -18.1617   12.5951  -20.3771 C   0  0  0  0  0  0  0  0  0  0  0  0
  -18.9191   12.5671  -19.2225 C   0  0  0  0  0  0  0  0  0  0  0  0
  -21.5756   14.4380  -17.4811 O   0  0  0  0  0  0  0  0  0  0  0  0
  -20.6484   13.4624  -17.7892 N   0  0  0  0  0  0  0  0  0  0  0  0
  -20.5133   12.5348  -16.9709 O   0  0  0  0  0  0  0  0  0  0  0  0
  -15.8313   12.5860  -23.8095 N   0  0  0  0  0  0  0  0  0  0  0  0
  -15.1558   11.7963  -23.9260 H   0  0  0  0  0  0  0  0  0  0  0  0
  -15.8637   13.5641  -24.8464 C   0  0  0  0  0  0  0  0  0  0  0  0
  -14.9538   14.5866  -24.8571 C   0  0  0  0  0  0  0  0  0  0  0  0
  -13.7285   14.7046  -23.5845 Cl  0  0  0  0  0  0  0  0  0  0  0  0
  -14.9817   15.5357  -25.8592 C   0  0  0  0  0  0  0  0  0  0  0  0
  -15.9106   15.4809  -26.8592 C   0  0  0  0  0  0  0  0  0  0  0  0
  -16.8228   14.4431  -26.8355 C   0  0  0  0  0  0  0  0  0  0  0  0
  -16.7976   13.4979  -25.8405 C   0  0  0  0  0  0  0  0  0  0  0  0
  -17.9939   12.2240  -25.8983 Cl  0  0  0  0  0  0  0  0  0  0  0  0
 14 15  1  0  0  0
 15 16  2  0  0  0
 15  1  1  0  0  0
  1  2  2  0  0  0
  2  3  1  0  0  0
  3  4  2  0  0  0
  4  5  1  0  0  0
  5  6  2  0  0  0
  6 17  1  0  0  0
 17 19  1  0  0  0
 19 20  2  0  0  0
 20 21  1  0  0  0
 20 22  1  0  0  0
 22 23  2  0  0  0
 23 24  1  0  0  0
 24 25  2  0  0  0
 25 26  1  0  0  0
  6  7  1  0  0  0
  7  8  2  0  0  0
  8  9  1  0  0  0
  9 10  2  0  0  0
 10 11  1  0  0  0
 11 12  1  0  0  0
 12 13  2  0  0  0
 13  1  1  0  0  0
 12  4  1  0  0  0
 25 19  1  0  0  0
 11  7  1  0  0  0
 17 18  1  0  0  0
M  CHG 1  14  -1
M  CHG 1  15   1
M  END
> <minimizedAffinity>
-9.03583

> <CNNscore>
0.9497221112

> <CNNaffinity>
7.6363549232

> <CNN_VS>
7.2524151802

> <CNNaffinity_variance>
0.0747385472

$$$$
[H]c1c([H])c(Cl)c(N([H])c2nc3c([H])c([H])c([N+](=O)[O-])c([H])c3n3c([H])nc([H])c23)c(Cl)c1[H]


 26 29  0  0  0  0  0  0  0  0999 V2000
  -19.3966   12.0842  -17.8790 C   0  0  0  0  0  0  0  0  0  0  0  0
  -20.0913   13.1107  -18.4784 C   0  0  0  0  0  0  0  0  0  0  0  0
  -19.7378   13.5325  -19.7629 C   0  0  0  0  0  0  0  0  0  0  0  0
  -18.6996   12.9452  -20.4613 C   0  0  0  0  0  0  0  0  0  0  0  0
  -18.3364   13.3333  -21.7050 N   0  0  0  0  0  0  0  0  0  0  0  0
  -17.3266   12.7529  -22.3690 C   0  0  0  0  0  0  0  0  0  0  0  0
  -16.6563   11.7160  -21.7125 C   0  0  0  0  0  0  0  0  0  0  0  0
  -15.5860   10.9273  -22.1240 C   0  0  0  0  0  0  0  0  0  0  0  0
  -15.3274   10.0803  -21.1180 N   0  0  0  0  0  0  0  0  0  0  0  0
  -16.1684   10.2922  -20.1081 C   0  0  0  0  0  0  0  0  0  0  0  0
  -16.9885   11.3072  -20.4845 N   0  0  0  0  0  0  0  0  0  0  0  0
  -18.0224   11.9209  -19.8376 C   0  0  0  0  0  0  0  0  0  0  0  0
  -18.3639   11.4967  -18.5682 C   0  0  0  0  0  0  0  0  0  0  0  0
  -20.1610   12.4971  -15.5943 O   0  0  0  0  0  0  0  0  0  0  0  0
  -19.7262   11.6278  -16.5750 N   0  0  0  0  0  0  0  0  0  0  0  0
  -19.6365   10.4265  -16.2637 O   0  0  0  0  0  0  0  0  0  0  0  0
  -16.9137   13.1166  -23.6524 N   0  0  0  0  0  0  0  0  0  0  0  0
  -16.8768   12.3918  -24.4053 H   0  0  0  0  0  0  0  0  0  0  0  0
  -16.5299   14.4412  -24.0143 C   0  0  0  0  0  0  0  0  0  0  0  0
  -17.4731   15.3419  -24.4300 C   0  0  0  0  0  0  0  0  0  0  0  0
  -19.1774   14.8715  -24.5223 Cl  0  0  0  0  0  0  0  0  0  0  0  0
  -17.1058   16.6255  -24.7813 C   0  0  0  0  0  0  0  0  0  0  0  0
  -15.8018   17.0284  -24.7244 C   0  0  0  0  0  0  0  0  0  0  0  0
  -14.8607   16.1085  -24.3029 C   0  0  0  0  0  0  0  0  0  0  0  0
  -15.2228   14.8316  -23.9528 C   0  0  0  0  0  0  0  0  0  0  0  0
  -13.9586   13.7414  -23.4325 Cl  0  0  0  0  0  0  0  0  0  0  0  0
 14 15  1  0  0  0
 15 16  2  0  0  0
 15  1  1  0  0  0
  1  2  2  0  0  0
  2  3  1  0  0  0
  3  4  2  0  0  0
  4  5  1  0  0  0
  5  6  2  0  0  0
  6 17  1  0  0  0
 17 19  1  0  0  0
 19 20  2  0  0  0
 20 21  1  0  0  0
 20 22  1  0  0  0
 22 23  2  0  0  0
 23 24  1  0  0  0
 24 25  2  0  0  0
 25 26  1  0  0  0
  6  7  1  0  0  0
  7  8  2  0  0  0
  8  9  1  0  0  0
  9 10  2  0  0  0
 10 11  1  0  0  0
 11 12  1  0  0  0
 12 13  2  0  0  0
 13  1  1  0  0  0
 12  4  1  0  0  0
 25 19  1  0  0  0
 11  7  1  0  0  0
 17 18  1  0  0  0
M  CHG 1  14  -1
M  CHG 1  15   1
M  END
> <minimizedAffinity>
-7.24323

> <CNNscore>
0.7826496959

> <CNNaffinity>
7.2060747147

> <CNN_VS>
5.6398320198

> <CNNaffinity_variance>
0.1453122646

$$$$
[H]c1c([H])c(Cl)c(N([H])c2nc3c([H])c([H])c([N+](=O)[O-])c([H])c3n3c([H])nc([H])c23)c(Cl)c1[H]


 26 29  0  0  0  0  0  0  0  0999 V2000
  -17.3763   13.5452  -24.3867 C   0  0  0  0  0  0  0  0  0  0  0  0
  -18.0428   14.6370  -23.8772 C   0  0  0  0  0  0  0  0  0  0  0  0
  -18.2551   14.7416  -22.5000 C   0  0  0  0  0  0  0  0  0  0  0  0
  -17.8121   13.7721  -21.6201 C   0  0  0  0  0  0  0  0  0  0  0  0
  -18.0038   13.8479  -20.2833 N   0  0  0  0  0  0  0  0  0  0  0  0
  -17.5675   12.8985  -19.4433 C   0  0  0  0  0  0  0  0  0  0  0  0
  -16.8973   11.8127  -20.0152 C   0  0  0  0  0  0  0  0  0  0  0  0
  -16.3335   10.6851  -19.4256 C   0  0  0  0  0  0  0  0  0  0  0  0
  -15.8138    9.9536  -20.4212 N   0  0  0  0  0  0  0  0  0  0  0  0
  -16.0186   10.5545  -21.5913 C   0  0  0  0  0  0  0  0  0  0  0  0
  -16.6904   11.7057  -21.3310 N   0  0  0  0  0  0  0  0  0  0  0  0
  -17.1485   12.6913  -22.1573 C   0  0  0  0  0  0  0  0  0  0  0  0
  -16.9336   12.5785  -23.5170 C   0  0  0  0  0  0  0  0  0  0  0  0
  -17.3530   12.2035  -26.4297 O   0  0  0  0  0  0  0  0  0  0  0  0
  -17.1414   13.4035  -25.7802 N   0  0  0  0  0  0  0  0  0  0  0  0
  -16.7355   14.3547  -26.4721 O   0  0  0  0  0  0  0  0  0  0  0  0
  -17.7402   12.9306  -18.0579 N   0  0  0  0  0  0  0  0  0  0  0  0
  -16.9186   12.7617  -17.4334 H   0  0  0  0  0  0  0  0  0  0  0  0
  -18.9910   13.1842  -17.4223 C   0  0  0  0  0  0  0  0  0  0  0  0
  -19.3685   14.4677  -17.1331 C   0  0  0  0  0  0  0  0  0  0  0  0
  -18.3084   15.8246  -17.5451 Cl  0  0  0  0  0  0  0  0  0  0  0  0
  -20.5788   14.7178  -16.5177 C   0  0  0  0  0  0  0  0  0  0  0  0
  -21.4256   13.6995  -16.1832 C   0  0  0  0  0  0  0  0  0  0  0  0
  -21.0313   12.4089  -16.4812 C   0  0  0  0  0  0  0  0  0  0  0  0
  -19.8286   12.1572  -17.0931 C   0  0  0  0  0  0  0  0  0  0  0  0
  -19.4199   10.4906  -17.4285 Cl  0  0  0  0  0  0  0  0  0  0  0  0
 14 15  1  0  0  0
 15 16  2  0  0  0
 15  1  1  0  0  0
  1  2  2  0  0  0
  2  3  1  0  0  0
  3  4  2  0  0  0
  4  5  1  0  0  0
  5  6  2  0  0  0
  6 17  1  0  0  0
 17 19  1  0  0  0
 19 20  2  0  0  0
 20 21  1  0  0  0
 20 22  1  0  0  0
 22 23  2  0  0  0
 23 24  1  0  0  0
 24 25  2  0  0  0
 25 26  1  0  0  0
  6  7  1  0  0  0
  7  8  2  0  0  0
  8  9  1  0  0  0
  9 10  2  0  0  0
 10 11  1  0  0  0
 11 12  1  0  0  0
 12 13  2  0  0  0
 13  1  1  0  0  0
 12  4  1  0  0  0
 25 19  1  0  0  0
 11  7  1  0  0  0
 17 18  1  0  0  0
M  CHG 1  14  -1
M  CHG 1  15   1
M  END
> <minimizedAffinity>
-8.32482

> <CNNscore>
0.7239389420

> <CNNaffinity>
7.0757751465

> <CNN_VS>
5.1224293709

> <CNNaffinity_variance>
0.0695129782

$$$$
[H]c1c([H])c(Cl)c(N([H])c2nc3c([H])c([H])c([N+](=O)[O-])c([H])c3n3c([H])nc([H])c23)c(Cl)c1[H]


 26 29  0  0  0  0  0  0  0  0999 V2000
  -17.4046   13.5016  -24.3306 C   0  0  0  0  0  0  0  0  0  0  0  0
  -18.0738   14.6033  -23.8467 C   0  0  0  0  0  0  0  0  0  0  0  0
  -18.2975   14.7332  -22.4734 C   0  0  0  0  0  0  0  0  0  0  0  0
  -17.8633   13.7793  -21.5723 C   0  0  0  0  0  0  0  0  0  0  0  0
  -18.0661   13.8797  -20.2388 N   0  0  0  0  0  0  0  0  0  0  0  0
  -17.6382   12.9452  -19.3780 C   0  0  0  0  0  0  0  0  0  0  0  0
  -16.9647   11.8483  -19.9244 C   0  0  0  0  0  0  0  0  0  0  0  0
  -16.4075   10.7309  -19.3097 C   0  0  0  0  0  0  0  0  0  0  0  0
  -15.8806    9.9807  -20.2874 N   0  0  0  0  0  0  0  0  0  0  0  0
  -16.0746   10.5605  -21.4699 C   0  0  0  0  0  0  0  0  0  0  0  0
  -16.7470   11.7171  -21.2362 N   0  0  0  0  0  0  0  0  0  0  0  0
  -17.1967   12.6881  -22.0841 C   0  0  0  0  0  0  0  0  0  0  0  0
  -16.9706   12.5503  -23.4397 C   0  0  0  0  0  0  0  0  0  0  0  0
  -17.2602   12.0986  -26.3268 O   0  0  0  0  0  0  0  0  0  0  0  0
  -17.1582   13.3343  -25.7193 N   0  0  0  0  0  0  0  0  0  0  0  0
  -16.8405   14.2942  -26.4444 O   0  0  0  0  0  0  0  0  0  0  0  0
  -17.8225   13.0027  -17.9949 N   0  0  0  0  0  0  0  0  0  0  0  0
  -17.0144   12.8089  -17.3602 H   0  0  0  0  0  0  0  0  0  0  0  0
  -19.0679   13.3153  -17.3751 C   0  0  0  0  0  0  0  0  0  0  0  0
  -19.9391   12.3149  -17.0375 C   0  0  0  0  0  0  0  0  0  0  0  0
  -19.5284   10.6244  -17.3668 Cl  0  0  0  0  0  0  0  0  0  0  0  0
  -21.1460   12.6131  -16.4373 C   0  0  0  0  0  0  0  0  0  0  0  0
  -21.5010   13.9040  -16.1662 C   0  0  0  0  0  0  0  0  0  0  0  0
  -20.6116   14.9034  -16.5126 C   0  0  0  0  0  0  0  0  0  0  0  0
  -19.4108   14.6101  -17.1094 C   0  0  0  0  0  0  0  0  0  0  0  0
  -18.3540   15.9443  -17.5096 Cl  0  0  0  0  0  0  0  0  0  0  0  0
 14 15  1  0  0  0
 15 16  2  0  0  0
 15  1  1  0  0  0
  1  2  2  0  0  0
  2  3  1  0  0  0
  3  4  2  0  0  0
  4  5  1  0  0  0
  5  6  2  0  0  0
  6 17  1  0  0  0
 17 19  1  0  0  0
 19 20  2  0  0  0
 20 21  1  0  0  0
 20 22  1  0  0  0
 22 23  2  0  0  0
 23 24  1  0  0  0
 24 25  2  0  0  0
 25 26  1  0  0  0
  6  7  1  0  0  0
  7  8  2  0  0  0
  8  9  1  0  0  0
  9 10  2  0  0  0
 10 11  1  0  0  0
 11 12  1  0  0  0
 12 13  2  0  0  0
 13  1  1  0  0  0
 12  4  1  0  0  0
 25 19  1  0  0  0
 11  7  1  0  0  0
 17 18  1  0  0  0
M  CHG 1  14  -1
M  CHG 1  15   1
M  END
> <minimizedAffinity>
-8.33127

> <CNNscore>
0.6996094584

> <CNNaffinity>
7.0534958839

> <CNN_VS>
4.9346923828

> <CNNaffinity_variance>
0.0734931976

$$$$
[H]c1c([H])c(Cl)c(N([H])c2nc3c([H])c([H])c([N+](=O)[O-])c([H])c3n3c([H])nc([H])c23)c(Cl)c1[H]


 26 29  0  0  0  0  0  0  0  0999 V2000
  -19.3502    9.9356  -16.4768 C   0  0  0  0  0  0  0  0  0  0  0  0
  -20.2640   10.9076  -16.1364 C   0  0  0  0  0  0  0  0  0  0  0  0
  -20.4096   12.0385  -16.9443 C   0  0  0  0  0  0  0  0  0  0  0  0
  -19.6564   12.2162  -18.0895 C   0  0  0  0  0  0  0  0  0  0  0  0
  -19.7767   13.3003  -18.8892 N   0  0  0  0  0  0  0  0  0  0  0  0
  -19.0381   13.4574  -19.9970 C   0  0  0  0  0  0  0  0  0  0  0  0
  -18.1264   12.4396  -20.2943 C   0  0  0  0  0  0  0  0  0  0  0  0
  -17.2313   12.3073  -21.3517 C   0  0  0  0  0  0  0  0  0  0  0  0
  -16.5904   11.1450  -21.1658 N   0  0  0  0  0  0  0  0  0  0  0  0
  -17.0300   10.5468  -20.0608 C   0  0  0  0  0  0  0  0  0  0  0  0
  -17.9815   11.3554  -19.5267 N   0  0  0  0  0  0  0  0  0  0  0  0
  -18.7503   11.2282  -18.4057 C   0  0  0  0  0  0  0  0  0  0  0  0
  -18.5988   10.1067  -17.6138 C   0  0  0  0  0  0  0  0  0  0  0  0
  -18.6912    8.8476  -14.3896 O   0  0  0  0  0  0  0  0  0  0  0  0
  -19.1736    8.7724  -15.6811 N   0  0  0  0  0  0  0  0  0  0  0  0
  -19.4463    7.6389  -16.1156 O   0  0  0  0  0  0  0  0  0  0  0  0
  -19.1249   14.5564  -20.8540 N   0  0  0  0  0  0  0  0  0  0  0  0
  -19.9943   14.7024  -21.4163 H   0  0  0  0  0  0  0  0  0  0  0  0
  -18.0831   15.5159  -21.0180 C   0  0  0  0  0  0  0  0  0  0  0  0
  -17.5564   15.7550  -22.2586 C   0  0  0  0  0  0  0  0  0  0  0  0
  -18.1632   14.8761  -23.6707 Cl  0  0  0  0  0  0  0  0  0  0  0  0
  -16.5476   16.6831  -22.4218 C   0  0  0  0  0  0  0  0  0  0  0  0
  -16.0513   17.3824  -21.3585 C   0  0  0  0  0  0  0  0  0  0  0  0
  -16.5926   17.1306  -20.1122 C   0  0  0  0  0  0  0  0  0  0  0  0
  -17.5958   16.2084  -19.9467 C   0  0  0  0  0  0  0  0  0  0  0  0
  -18.2146   15.9611  -18.3302 Cl  0  0  0  0  0  0  0  0  0  0  0  0
 14 15  1  0  0  0
 15 16  2  0  0  0
 15  1  1  0  0  0
  1  2  2  0  0  0
  2  3  1  0  0  0
  3  4  2  0  0  0
  4  5  1  0  0  0
  5  6  2  0  0  0
  6 17  1  0  0  0
 17 19  1  0  0  0
 19 20  2  0  0  0
 20 21  1  0  0  0
 20 22  1  0  0  0
 22 23  2  0  0  0
 23 24  1  0  0  0
 24 25  2  0  0  0
 25 26  1  0  0  0
  6  7  1  0  0  0
  7  8  2  0  0  0
  8  9  1  0  0  0
  9 10  2  0  0  0
 10 11  1  0  0  0
 11 12  1  0  0  0
 12 13  2  0  0  0
 13  1  1  0  0  0
 12  4  1  0  0  0
 25 19  1  0  0  0
 11  7  1  0  0  0
 17 18  1  0  0  0
M  CHG 1  14  -1
M  CHG 1  15   1
M  END
> <minimizedAffinity>
-8.02433

> <CNNscore>
0.5784198046

> <CNNaffinity>
6.8010382652

> <CNN_VS>
3.9338552952

> <CNNaffinity_variance>
0.0467364378

$$$$
[H]c1c([H])c(Cl)c(N([H])c2nc3c([H])c([H])c([N+](=O)[O-])c([H])c3n3c([H])nc([H])c23)c(Cl)c1[H]


 26 29  0  0  0  0  0  0  0  0999 V2000
  -18.3503   10.3357  -17.9746 C   0  0  0  0  0  0  0  0  0  0  0  0
  -17.3792    9.9837  -18.8851 C   0  0  0  0  0  0  0  0  0  0  0  0
  -17.1612   10.7806  -20.0121 C   0  0  0  0  0  0  0  0  0  0  0  0
  -17.8981   11.9262  -20.2465 C   0  0  0  0  0  0  0  0  0  0  0  0
  -17.7082   12.7155  -21.3283 N   0  0  0  0  0  0  0  0  0  0  0  0
  -18.4318   13.8239  -21.5408 C   0  0  0  0  0  0  0  0  0  0  0  0
  -19.4037   14.1333  -20.5842 C   0  0  0  0  0  0  0  0  0  0  0  0
  -20.3016   15.1945  -20.5171 C   0  0  0  0  0  0  0  0  0  0  0  0
  -21.0138   15.0212  -19.3950 N   0  0  0  0  0  0  0  0  0  0  0  0
  -20.6158   13.9205  -18.7608 C   0  0  0  0  0  0  0  0  0  0  0  0
  -19.6180   13.3763  -19.5041 N   0  0  0  0  0  0  0  0  0  0  0  0
  -18.8624   12.2542  -19.3193 C   0  0  0  0  0  0  0  0  0  0  0  0
  -19.0857   11.4733  -18.2022 C   0  0  0  0  0  0  0  0  0  0  0  0
  -19.5148    9.9476  -15.8609 O   0  0  0  0  0  0  0  0  0  0  0  0
  -18.6012    9.5514  -16.8174 N   0  0  0  0  0  0  0  0  0  0  0  0
  -18.0080    8.4759  -16.6187 O   0  0  0  0  0  0  0  0  0  0  0  0
  -18.2743   14.6704  -22.6402 N   0  0  0  0  0  0  0  0  0  0  0  0
  -19.0694   15.2818  -22.9363 H   0  0  0  0  0  0  0  0  0  0  0  0
  -17.0740   14.7595  -23.4045 C   0  0  0  0  0  0  0  0  0  0  0  0
  -16.0439   15.5539  -22.9784 C   0  0  0  0  0  0  0  0  0  0  0  0
  -16.1917   16.4776  -21.4752 Cl  0  0  0  0  0  0  0  0  0  0  0  0
  -14.8800   15.6430  -23.7153 C   0  0  0  0  0  0  0  0  0  0  0  0
  -14.7257   14.9469  -24.8804 C   0  0  0  0  0  0  0  0  0  0  0  0
  -15.7739   14.1490  -25.2983 C   0  0  0  0  0  0  0  0  0  0  0  0
  -16.9324   14.0583  -24.5677 C   0  0  0  0  0  0  0  0  0  0  0  0
  -18.2009   13.0222  -25.1798 Cl  0  0  0  0  0  0  0  0  0  0  0  0
 14 15  1  0  0  0
 15 16  2  0  0  0
 15  1  1  0  0  0
  1  2  2  0  0  0
  2  3  1  0  0  0
  3  4  2  0  0  0
  4  5  1  0  0  0
  5  6  2  0  0  0
  6 17  1  0  0  0
 17 19  1  0  0  0
 19 20  2  0  0  0
 20 21  1  0  0  0
 20 22  1  0  0  0
 22 23  2  0  0  0
 23 24  1  0  0  0
 24 25  2  0  0  0
 25 26  1  0  0  0
  6  7  1  0  0  0
  7  8  2  0  0  0
  8  9  1  0  0  0
  9 10  2  0  0  0
 10 11  1  0  0  0
 11 12  1  0  0  0
 12 13  2  0  0  0
 13  1  1  0  0  0
 12  4  1  0  0  0
 25 19  1  0  0  0
 11  7  1  0  0  0
 17 18  1  0  0  0
M  CHG 1  14  -1
M  CHG 1  15   1
M  END
> <minimizedAffinity>
-8.06355

> <CNNscore>
0.4750504196

> <CNNaffinity>
6.8832793236

> <CNN_VS>
3.2699046135

> <CNNaffinity_variance>
0.0414491557

$$$$
[H]c1c([H])c(Cl)c(N([H])c2nc3c([H])c([H])c([N+](=O)[O-])c([H])c3n3c([H])nc([H])c23)c(Cl)c1[H]


 26 29  0  0  0  0  0  0  0  0999 V2000
  -17.5051   11.5240  -20.2487 C   0  0  0  0  0  0  0  0  0  0  0  0
  -18.3784   12.3169  -19.5386 C   0  0  0  0  0  0  0  0  0  0  0  0
  -18.8342   13.5169  -20.0909 C   0  0  0  0  0  0  0  0  0  0  0  0
  -18.4319   13.9401  -21.3438 C   0  0  0  0  0  0  0  0  0  0  0  0
  -18.8570   15.0963  -21.9022 N   0  0  0  0  0  0  0  0  0  0  0  0
  -18.4570   15.4923  -23.1190 C   0  0  0  0  0  0  0  0  0  0  0  0
  -17.5702   14.6485  -23.7948 C   0  0  0  0  0  0  0  0  0  0  0  0
  -16.9807   14.7735  -25.0493 C   0  0  0  0  0  0  0  0  0  0  0  0
  -16.2123   13.6886  -25.2195 N   0  0  0  0  0  0  0  0  0  0  0  0
  -16.2867   12.8978  -24.1513 C   0  0  0  0  0  0  0  0  0  0  0  0
  -17.1300   13.4996  -23.2732 N   0  0  0  0  0  0  0  0  0  0  0  0
  -17.5582   13.1272  -22.0315 C   0  0  0  0  0  0  0  0  0  0  0  0
  -17.1018   11.9394  -21.4943 C   0  0  0  0  0  0  0  0  0  0  0  0
  -15.9623    9.6290  -20.3045 O   0  0  0  0  0  0  0  0  0  0  0  0
  -17.0199   10.2979  -19.7210 N   0  0  0  0  0  0  0  0  0  0  0  0
  -17.5282    9.7770  -18.7118 O   0  0  0  0  0  0  0  0  0  0  0  0
  -18.8666   16.6751  -23.7381 N   0  0  0  0  0  0  0  0  0  0  0  0
  -19.0331   16.6840  -24.7704 H   0  0  0  0  0  0  0  0  0  0  0  0
  -19.0780   17.9008  -23.0410 C   0  0  0  0  0  0  0  0  0  0  0  0
  -18.0693   18.4535  -22.2989 C   0  0  0  0  0  0  0  0  0  0  0  0
  -16.4935   17.6527  -22.1974 Cl  0  0  0  0  0  0  0  0  0  0  0  0
  -18.2698   19.6401  -21.6223 C   0  0  0  0  0  0  0  0  0  0  0  0
  -19.4703   20.2896  -21.6744 C   0  0  0  0  0  0  0  0  0  0  0  0
  -20.4793   19.7199  -22.4275 C   0  0  0  0  0  0  0  0  0  0  0  0
  -20.2830   18.5402  -23.1013 C   0  0  0  0  0  0  0  0  0  0  0  0
  -21.6212   17.8998  -24.0268 Cl  0  0  0  0  0  0  0  0  0  0  0  0
 14 15  1  0  0  0
 15 16  2  0  0  0
 15  1  1  0  0  0
  1  2  2  0  0  0
  2  3  1  0  0  0
  3  4  2  0  0  0
  4  5  1  0  0  0
  5  6  2  0  0  0
  6 17  1  0  0  0
 17 19  1  0  0  0
 19 20  2  0  0  0
 20 21  1  0  0  0
 20 22  1  0  0  0
 22 23  2  0  0  0
 23 24  1  0  0  0
 24 25  2  0  0  0
 25 26  1  0  0  0
  6  7  1  0  0  0
  7  8  2  0  0  0
  8  9  1  0  0  0
  9 10  2  0  0  0
 10 11  1  0  0  0
 11 12  1  0  0  0
 12 13  2  0  0  0
 13  1  1  0  0  0
 12  4  1  0  0  0
 25 19  1  0  0  0
 11  7  1  0  0  0
 17 18  1  0  0  0
M  CHG 1  14  -1
M  CHG 1  15   1
M  END
> <minimizedAffinity>
-7.85290

> <CNNscore>
0.2713289261

> <CNNaffinity>
6.7693572044

> <CNN_VS>
1.8367223740

> <CNNaffinity_variance>
0.0296433866

$$$$
[H]c1c([H])c(Cl)c(N([H])c2nc3c([H])c([H])c([N+](=O)[O-])c([H])c3n3c([H])nc([H])c23)c(Cl)c1[H]


 26 29  0  0  0  0  0  0  0  0999 V2000
  -17.4184   11.5022  -20.3458 C   0  0  0  0  0  0  0  0  0  0  0  0
  -18.2428   12.3091  -19.5941 C   0  0  0  0  0  0  0  0  0  0  0  0
  -18.7018   13.5187  -20.1222 C   0  0  0  0  0  0  0  0  0  0  0  0
  -18.3509   13.9378  -21.3917 C   0  0  0  0  0  0  0  0  0  0  0  0
  -18.7804   15.1031  -21.9275 N   0  0  0  0  0  0  0  0  0  0  0  0
  -18.4307   15.4951  -23.1609 C   0  0  0  0  0  0  0  0  0  0  0  0
  -17.5921   14.6369  -23.8792 C   0  0  0  0  0  0  0  0  0  0  0  0
  -17.0599   14.7546  -25.1597 C   0  0  0  0  0  0  0  0  0  0  0  0
  -16.3204   13.6563  -25.3678 N   0  0  0  0  0  0  0  0  0  0  0  0
  -16.3592   12.8640  -24.2987 C   0  0  0  0  0  0  0  0  0  0  0  0
  -17.1492   13.4788  -23.3810 N   0  0  0  0  0  0  0  0  0  0  0  0
  -17.5255   13.1110  -22.1212 C   0  0  0  0  0  0  0  0  0  0  0  0
  -17.0664   11.9136  -21.6082 C   0  0  0  0  0  0  0  0  0  0  0  0
  -17.5207    9.6447  -18.7605 O   0  0  0  0  0  0  0  0  0  0  0  0
  -16.9317   10.2660  -19.8437 N   0  0  0  0  0  0  0  0  0  0  0  0
  -15.9550    9.6931  -20.3595 O   0  0  0  0  0  0  0  0  0  0  0  0
  -18.8469   16.6868  -23.7580 N   0  0  0  0  0  0  0  0  0  0  0  0
  -19.0172   16.7129  -24.7894 H   0  0  0  0  0  0  0  0  0  0  0  0
  -19.0606   17.8993  -23.0390 C   0  0  0  0  0  0  0  0  0  0  0  0
  -20.2794   18.5208  -23.0840 C   0  0  0  0  0  0  0  0  0  0  0  0
  -21.6015   17.8256  -24.0347 Cl  0  0  0  0  0  0  0  0  0  0  0  0
  -20.4906   19.6949  -22.3894 C   0  0  0  0  0  0  0  0  0  0  0  0
  -19.4972   20.2641  -21.6444 C   0  0  0  0  0  0  0  0  0  0  0  0
  -18.2722   19.6257  -21.6082 C   0  0  0  0  0  0  0  0  0  0  0  0
  -18.0591   18.4581  -22.2977 C   0  0  0  0  0  0  0  0  0  0  0  0
  -16.4747   17.7267  -22.1888 Cl  0  0  0  0  0  0  0  0  0  0  0  0
 14 15  1  0  0  0
 15 16  2  0  0  0
 15  1  1  0  0  0
  1  2  2  0  0  0
  2  3  1  0  0  0
  3  4  2  0  0  0
  4  5  1  0  0  0
  5  6  2  0  0  0
  6 17  1  0  0  0
 17 19  1  0  0  0
 19 20  2  0  0  0
 20 21  1  0  0  0
 20 22  1  0  0  0
 22 23  2  0  0  0
 23 24  1  0  0  0
 24 25  2  0  0  0
 25 26  1  0  0  0
  6  7  1  0  0  0
  7  8  2  0  0  0
  8  9  1  0  0  0
  9 10  2  0  0  0
 10 11  1  0  0  0
 11 12  1  0  0  0
 12 13  2  0  0  0
 13  1  1  0  0  0
 12  4  1  0  0  0
 25 19  1  0  0  0
 11  7  1  0  0  0
 17 18  1  0  0  0
M  CHG 1  14  -1
M  CHG 1  15   1
M  END
> <minimizedAffinity>
-7.72208

> <CNNscore>
0.2408500016

> <CNNaffinity>
6.7591581345

> <CNN_VS>
1.6279432774

> <CNNaffinity_variance>
0.0378882810

$$$$
[H]OC([H])([H])C([H])([H])N1C([H])([H])C([H])([H])N(C([H])([H])C([H])([H])C([H])([H])c2c3c(n([H])c2/C([H])=C2\C(=O)N([H])c4c([H])c([H])c(OC(=O)N(C([H])([H])[H])C([H])([H])[H])c([H])c42)C([H])([H])C([H])([H])C([H])([H])C3([H])[H])C([H])([H])C1([H])[H]


 41 45  0  0  0  0  0  0  0  0999 V2000
  -17.9329   13.3848  -21.0440 C   0  0  0  0  0  0  0  0  0  0  0  0
  -17.6497   12.6967  -22.1931 N   0  0  0  0  0  0  0  0  0  0  0  0
  -16.9382   13.4389  -23.0455 C   0  0  0  0  0  0  0  0  0  0  0  0
  -16.3463   13.2444  -24.3962 C   0  0  0  0  0  0  0  0  0  0  0  0
  -16.6267   14.4344  -25.2837 C   0  0  0  0  0  0  0  0  0  0  0  0
  -16.3166   15.7510  -24.6560 C   0  0  0  0  0  0  0  0  0  0  0  0
  -15.9775   15.6904  -23.1911 C   0  0  0  0  0  0  0  0  0  0  0  0
  -16.7397   14.6601  -22.4495 C   0  0  0  0  0  0  0  0  0  0  0  0
  -17.3628   14.6159  -21.2007 C   0  0  0  0  0  0  0  0  0  0  0  0
  -17.9394   11.7016  -22.4207 H   0  0  0  0  0  0  0  0  0  0  0  0
  -20.5022   10.5898  -16.5234 C   0  0  0  0  0  0  0  0  0  0  0  0
  -19.7700    9.4807  -16.1761 C   0  0  0  0  0  0  0  0  0  0  0  0
  -18.6042    9.1131  -16.8127 C   0  0  0  0  0  0  0  0  0  0  0  0
  -18.1358    9.9094  -17.8703 C   0  0  0  0  0  0  0  0  0  0  0  0
  -17.0008    9.8320  -18.7139 N   0  0  0  0  0  0  0  0  0  0  0  0
  -17.0122   10.9217  -19.6224 C   0  0  0  0  0  0  0  0  0  0  0  0
  -16.1400   11.1320  -20.4905 O   0  0  0  0  0  0  0  0  0  0  0  0
  -18.1997   11.7111  -19.3396 C   0  0  0  0  0  0  0  0  0  0  0  0
  -18.6439   12.8003  -19.9335 C   0  0  0  0  0  0  0  0  0  0  0  0
  -18.8664   11.0156  -18.2177 C   0  0  0  0  0  0  0  0  0  0  0  0
  -20.0405   11.3586  -17.5542 C   0  0  0  0  0  0  0  0  0  0  0  0
  -16.2829    9.0557  -18.6341 H   0  0  0  0  0  0  0  0  0  0  0  0
  -21.6819   10.9623  -15.8753 O   0  0  0  0  0  0  0  0  0  0  0  0
  -22.2813   13.5815  -14.5547 C   0  0  0  0  0  0  0  0  0  0  0  0
  -21.9895   12.3695  -13.8360 N   0  0  0  0  0  0  0  0  0  0  0  0
  -21.9878   12.3976  -12.3917 C   0  0  0  0  0  0  0  0  0  0  0  0
  -21.7072   11.1608  -14.4929 C   0  0  0  0  0  0  0  0  0  0  0  0
  -21.4434   10.1075  -13.8223 O   0  0  0  0  0  0  0  0  0  0  0  0
  -17.3134   15.7433  -20.2406 C   0  0  0  0  0  0  0  0  0  0  0  0
  -18.3864   16.7867  -20.5053 C   0  0  0  0  0  0  0  0  0  0  0  0
  -19.2105   17.0278  -19.2549 C   0  0  0  0  0  0  0  0  0  0  0  0
  -19.0218   16.0161  -18.2447 N   0  0  0  0  0  0  0  0  0  0  0  0
  -18.4392   16.6839  -17.0849 C   0  0  0  0  0  0  0  0  0  0  0  0
  -19.2742   17.8076  -16.6026 C   0  0  0  0  0  0  0  0  0  0  0  0
  -20.6449   17.4298  -16.3588 N   0  0  0  0  0  0  0  0  0  0  0  0
  -21.2150   16.5039  -17.2526 C   0  0  0  0  0  0  0  0  0  0  0  0
  -20.3173   15.4556  -17.8291 C   0  0  0  0  0  0  0  0  0  0  0  0
  -20.9422   17.3008  -14.9716 C   0  0  0  0  0  0  0  0  0  0  0  0
  -20.3751   18.3721  -14.1090 C   0  0  0  0  0  0  0  0  0  0  0  0
  -19.4389   17.7972  -13.2500 O   0  0  0  0  0  0  0  0  0  0  0  0
  -19.9282   17.2758  -12.5486 H   0  0  0  0  0  0  0  0  0  0  0  0
 24 25  1  0  0  0
 25 26  1  0  0  0
 25 27  1  0  0  0
 27 28  2  0  0  0
 27 23  1  0  0  0
 23 11  1  0  0  0
 11 12  2  0  0  0
 12 13  1  0  0  0
 13 14  2  0  0  0
 14 15  1  0  0  0
 15 16  1  0  0  0
 16 17  2  0  0  0
 16 18  1  0  0  0
 18 19  2  0  0  0
 19  1  1  0  0  0
  1  2  1  0  0  0
  2  3  1  0  0  0
  3  4  1  0  0  0
  4  5  1  0  0  0
  5  6  1  0  0  0
  6  7  1  0  0  0
  7  8  1  0  0  0
  8  9  1  0  0  0
  9 29  1  0  0  0
 29 30  1  0  0  0
 30 31  1  0  0  0
 31 32  1  0  0  0
 32 33  1  0  0  0
 33 34  1  0  0  0
 34 35  1  0  0  0
 35 38  1  0  0  0
 38 39  1  0  0  0
 39 40  1  0  0  0
 35 36  1  0  0  0
 36 37  1  0  0  0
 18 20  1  0  0  0
 20 21  2  0  0  0
 21 11  1  0  0  0
 20 14  1  0  0  0
  9  1  2  0  0  0
 37 32  1  0  0  0
  8  3  2  0  0  0
 15 22  1  0  0  0
  2 10  1  0  0  0
 40 41  1  0  0  0
M  END
> <minimizedAffinity>
-8.73673

> <CNNscore>
0.8573050499

> <CNNaffinity>
7.7669019699

> <CNN_VS>
6.6586041451

> <CNNaffinity_variance>
0.1688421071

$$$$
[H]OC([H])([H])C([H])([H])N1C([H])([H])C([H])([H])N(C([H])([H])C([H])([H])C([H])([H])c2c3c(n([H])c2/C([H])=C2\C(=O)N([H])c4c([H])c([H])c(OC(=O)N(C([H])([H])[H])C([H])([H])[H])c([H])c42)C([H])([H])C([H])([H])C([H])([H])C3([H])[H])C([H])([H])C1([H])[H]


 41 45  0  0  0  0  0  0  0  0999 V2000
  -17.5128   13.6988  -21.7962 C   0  0  0  0  0  0  0  0  0  0  0  0
  -17.4949   13.0456  -22.9992 N   0  0  0  0  0  0  0  0  0  0  0  0
  -16.7977   13.7239  -23.9143 C   0  0  0  0  0  0  0  0  0  0  0  0
  -16.4284   13.5244  -25.3413 C   0  0  0  0  0  0  0  0  0  0  0  0
  -16.6378   14.7931  -26.1343 C   0  0  0  0  0  0  0  0  0  0  0  0
  -16.0474   16.0102  -25.5067 C   0  0  0  0  0  0  0  0  0  0  0  0
  -15.5293   15.8137  -24.1075 C   0  0  0  0  0  0  0  0  0  0  0  0
  -16.3355   14.8650  -23.3059 C   0  0  0  0  0  0  0  0  0  0  0  0
  -16.7857   14.8394  -21.9844 C   0  0  0  0  0  0  0  0  0  0  0  0
  -17.9624   12.1193  -23.2216 H   0  0  0  0  0  0  0  0  0  0  0  0
  -19.8405   11.0584  -17.0570 C   0  0  0  0  0  0  0  0  0  0  0  0
  -19.2121    9.8585  -16.8284 C   0  0  0  0  0  0  0  0  0  0  0  0
  -18.1846    9.3802  -17.6128 C   0  0  0  0  0  0  0  0  0  0  0  0
  -17.7535   10.1549  -18.7019 C   0  0  0  0  0  0  0  0  0  0  0  0
  -16.7461    9.9760  -19.6811 N   0  0  0  0  0  0  0  0  0  0  0  0
  -16.7341   11.0927  -20.5561 C   0  0  0  0  0  0  0  0  0  0  0  0
  -15.9536   11.2312  -21.5205 O   0  0  0  0  0  0  0  0  0  0  0  0
  -17.7742   12.0054  -20.1105 C   0  0  0  0  0  0  0  0  0  0  0  0
  -18.1508   13.1609  -20.6197 C   0  0  0  0  0  0  0  0  0  0  0  0
  -18.3807   11.3516  -18.9308 C   0  0  0  0  0  0  0  0  0  0  0  0
  -19.4160   11.8055  -18.1193 C   0  0  0  0  0  0  0  0  0  0  0  0
  -16.1235    9.1180  -19.7086 H   0  0  0  0  0  0  0  0  0  0  0  0
  -20.8796   11.5427  -16.2594 O   0  0  0  0  0  0  0  0  0  0  0  0
  -20.1419   11.2307  -13.3746 C   0  0  0  0  0  0  0  0  0  0  0  0
  -21.2333   10.5344  -14.0029 N   0  0  0  0  0  0  0  0  0  0  0  0
  -22.0354    9.6327  -13.2089 C   0  0  0  0  0  0  0  0  0  0  0  0
  -21.5439   10.7034  -15.3620 C   0  0  0  0  0  0  0  0  0  0  0  0
  -22.5138   10.0616  -15.8876 O   0  0  0  0  0  0  0  0  0  0  0  0
  -16.4354   15.8884  -20.9985 C   0  0  0  0  0  0  0  0  0  0  0  0
  -17.3072   17.1270  -21.1249 C   0  0  0  0  0  0  0  0  0  0  0  0
  -18.7689   16.7671  -20.9381 C   0  0  0  0  0  0  0  0  0  0  0  0
  -19.4141   17.5286  -19.8970 N   0  0  0  0  0  0  0  0  0  0  0  0
  -20.8451   17.2629  -20.0076 C   0  0  0  0  0  0  0  0  0  0  0  0
  -21.1591   15.8185  -19.9212 C   0  0  0  0  0  0  0  0  0  0  0  0
  -20.5951   15.1859  -18.7538 N   0  0  0  0  0  0  0  0  0  0  0  0
  -19.3185   15.6217  -18.3521 C   0  0  0  0  0  0  0  0  0  0  0  0
  -18.9776   17.0614  -18.5717 C   0  0  0  0  0  0  0  0  0  0  0  0
  -21.5673   14.9228  -17.7463 C   0  0  0  0  0  0  0  0  0  0  0  0
  -21.1956   15.3879  -16.3830 C   0  0  0  0  0  0  0  0  0  0  0  0
  -21.1710   14.2834  -15.5318 O   0  0  0  0  0  0  0  0  0  0  0  0
  -22.1144   14.0020  -15.3480 H   0  0  0  0  0  0  0  0  0  0  0  0
 24 25  1  0  0  0
 25 26  1  0  0  0
 25 27  1  0  0  0
 27 28  2  0  0  0
 27 23  1  0  0  0
 23 11  1  0  0  0
 11 12  2  0  0  0
 12 13  1  0  0  0
 13 14  2  0  0  0
 14 15  1  0  0  0
 15 16  1  0  0  0
 16 17  2  0  0  0
 16 18  1  0  0  0
 18 19  2  0  0  0
 19  1  1  0  0  0
  1  2  1  0  0  0
  2  3  1  0  0  0
  3  4  1  0  0  0
  4  5  1  0  0  0
  5  6  1  0  0  0
  6  7  1  0  0  0
  7  8  1  0  0  0
  8  9  1  0  0  0
  9 29  1  0  0  0
 29 30  1  0  0  0
 30 31  1  0  0  0
 31 32  1  0  0  0
 32 33  1  0  0  0
 33 34  1  0  0  0
 34 35  1  0  0  0
 35 38  1  0  0  0
 38 39  1  0  0  0
 39 40  1  0  0  0
 35 36  1  0  0  0
 36 37  1  0  0  0
 18 20  1  0  0  0
 20 21  2  0  0  0
 21 11  1  0  0  0
 20 14  1  0  0  0
  9  1  2  0  0  0
 37 32  1  0  0  0
  8  3  2  0  0  0
 15 22  1  0  0  0
  2 10  1  0  0  0
 40 41  1  0  0  0
M  END
> <minimizedAffinity>
-9.04291

> <CNNscore>
0.8162565231

> <CNNaffinity>
7.6443662643

> <CNN_VS>
6.2397637367

> <CNNaffinity_variance>
0.0417802110

$$$$
[H]OC([H])([H])C([H])([H])N1C([H])([H])C([H])([H])N(C([H])([H])C([H])([H])C([H])([H])c2c3c(n([H])c2/C([H])=C2\C(=O)N([H])c4c([H])c([H])c(OC(=O)N(C([H])([H])[H])C([H])([H])[H])c([H])c42)C([H])([H])C([H])([H])C([H])([H])C3([H])[H])C([H])([H])C1([H])[H]


 41 45  0  0  0  0  0  0  0  0999 V2000
  -17.5187   13.7592  -21.7127 C   0  0  0  0  0  0  0  0  0  0  0  0
  -17.4906   13.1106  -22.9179 N   0  0  0  0  0  0  0  0  0  0  0  0
  -16.7827   13.7906  -23.8235 C   0  0  0  0  0  0  0  0  0  0  0  0
  -16.3999   13.5956  -25.2475 C   0  0  0  0  0  0  0  0  0  0  0  0
  -16.5983   14.8678  -26.0377 C   0  0  0  0  0  0  0  0  0  0  0  0
  -16.0112   16.0810  -25.3997 C   0  0  0  0  0  0  0  0  0  0  0  0
  -15.5074   15.8779  -23.9963 C   0  0  0  0  0  0  0  0  0  0  0  0
  -16.3238   14.9282  -23.2062 C   0  0  0  0  0  0  0  0  0  0  0  0
  -16.7870   14.8987  -21.8894 C   0  0  0  0  0  0  0  0  0  0  0  0
  -17.9581   12.1862  -23.1484 H   0  0  0  0  0  0  0  0  0  0  0  0
  -19.9014   11.1056  -17.0083 C   0  0  0  0  0  0  0  0  0  0  0  0
  -19.2826    9.9004  -16.7819 C   0  0  0  0  0  0  0  0  0  0  0  0
  -18.2520    9.4201  -17.5609 C   0  0  0  0  0  0  0  0  0  0  0  0
  -17.8071   10.1985  -18.6418 C   0  0  0  0  0  0  0  0  0  0  0  0
  -16.7930   10.0189  -19.6140 N   0  0  0  0  0  0  0  0  0  0  0  0
  -16.7668   11.1408  -20.4821 C   0  0  0  0  0  0  0  0  0  0  0  0
  -15.9777   11.2799  -21.4394 O   0  0  0  0  0  0  0  0  0  0  0  0
  -17.8045   12.0574  -20.0393 C   0  0  0  0  0  0  0  0  0  0  0  0
  -18.1697   13.2184  -20.5446 C   0  0  0  0  0  0  0  0  0  0  0  0
  -18.4247   11.4006  -18.8685 C   0  0  0  0  0  0  0  0  0  0  0  0
  -19.4636   11.8564  -18.0626 C   0  0  0  0  0  0  0  0  0  0  0  0
  -16.1757    9.1571  -19.6417 H   0  0  0  0  0  0  0  0  0  0  0  0
  -20.9437   11.5919  -16.2161 O   0  0  0  0  0  0  0  0  0  0  0  0
  -23.0297    9.5459  -15.5635 C   0  0  0  0  0  0  0  0  0  0  0  0
  -22.1330   10.1146  -14.5924 N   0  0  0  0  0  0  0  0  0  0  0  0
  -22.2258    9.6798  -13.2179 C   0  0  0  0  0  0  0  0  0  0  0  0
  -21.1709   11.0776  -14.9375 C   0  0  0  0  0  0  0  0  0  0  0  0
  -20.3986   11.5671  -14.0471 O   0  0  0  0  0  0  0  0  0  0  0  0
  -16.4439   15.9431  -20.8960 C   0  0  0  0  0  0  0  0  0  0  0  0
  -17.6720   16.5865  -20.2733 C   0  0  0  0  0  0  0  0  0  0  0  0
  -18.5312   17.2331  -21.3431 C   0  0  0  0  0  0  0  0  0  0  0  0
  -17.8887   18.3496  -21.9915 N   0  0  0  0  0  0  0  0  0  0  0  0
  -18.4036   18.3959  -23.3565 C   0  0  0  0  0  0  0  0  0  0  0  0
  -19.8802   18.4978  -23.3992 C   0  0  0  0  0  0  0  0  0  0  0  0
  -20.3953   19.5864  -22.6052 N   0  0  0  0  0  0  0  0  0  0  0  0
  -19.7383   19.8489  -21.3885 C   0  0  0  0  0  0  0  0  0  0  0  0
  -18.2625   19.6116  -21.3336 C   0  0  0  0  0  0  0  0  0  0  0  0
  -20.8192   20.6926  -23.3965 C   0  0  0  0  0  0  0  0  0  0  0  0
  -21.5314   20.3272  -24.6505 C   0  0  0  0  0  0  0  0  0  0  0  0
  -21.0594   21.1420  -25.6792 O   0  0  0  0  0  0  0  0  0  0  0  0
  -21.4316   22.0631  -25.5520 H   0  0  0  0  0  0  0  0  0  0  0  0
 24 25  1  0  0  0
 25 26  1  0  0  0
 25 27  1  0  0  0
 27 28  2  0  0  0
 27 23  1  0  0  0
 23 11  1  0  0  0
 11 12  2  0  0  0
 12 13  1  0  0  0
 13 14  2  0  0  0
 14 15  1  0  0  0
 15 16  1  0  0  0
 16 17  2  0  0  0
 16 18  1  0  0  0
 18 19  2  0  0  0
 19  1  1  0  0  0
  1  2  1  0  0  0
  2  3  1  0  0  0
  3  4  1  0  0  0
  4  5  1  0  0  0
  5  6  1  0  0  0
  6  7  1  0  0  0
  7  8  1  0  0  0
  8  9  1  0  0  0
  9 29  1  0  0  0
 29 30  1  0  0  0
 30 31  1  0  0  0
 31 32  1  0  0  0
 32 33  1  0  0  0
 33 34  1  0  0  0
 34 35  1  0  0  0
 35 38  1  0  0  0
 38 39  1  0  0  0
 39 40  1  0  0  0
 35 36  1  0  0  0
 36 37  1  0  0  0
 18 20  1  0  0  0
 20 21  2  0  0  0
 21 11  1  0  0  0
 20 14  1  0  0  0
  9  1  2  0  0  0
 37 32  1  0  0  0
  8  3  2  0  0  0
 15 22  1  0  0  0
  2 10  1  0  0  0
 40 41  1  0  0  0
M  END
> <minimizedAffinity>
-8.99736

> <CNNscore>
0.7275592089

> <CNNaffinity>
7.6399016380

> <CNN_VS>
5.5584807396

> <CNNaffinity_variance>
0.1105180383

$$$$
[H]OC([H])([H])C([H])([H])N1C([H])([H])C([H])([H])N(C([H])([H])C([H])([H])C([H])([H])c2c3c(n([H])c2/C([H])=C2\C(=O)N([H])c4c([H])c([H])c(OC(=O)N(C([H])([H])[H])C([H])([H])[H])c([H])c42)C([H])([H])C([H])([H])C([H])([H])C3([H])[H])C([H])([H])C1([H])[H]


 41 45  0  0  0  0  0  0  0  0999 V2000
  -18.1881   13.1453  -20.5614 C   0  0  0  0  0  0  0  0  0  0  0  0
  -17.8312   12.4402  -21.6793 N   0  0  0  0  0  0  0  0  0  0  0  0
  -17.0832   13.1768  -22.5047 C   0  0  0  0  0  0  0  0  0  0  0  0
  -16.4136   12.9659  -23.8161 C   0  0  0  0  0  0  0  0  0  0  0  0
  -16.6598   14.1350  -24.7408 C   0  0  0  0  0  0  0  0  0  0  0  0
  -16.4035   15.4674  -24.1224 C   0  0  0  0  0  0  0  0  0  0  0  0
  -16.1466   15.4391  -22.6398 C   0  0  0  0  0  0  0  0  0  0  0  0
  -16.9352   14.4116  -21.9222 C   0  0  0  0  0  0  0  0  0  0  0  0
  -17.6269   14.3815  -20.7097 C   0  0  0  0  0  0  0  0  0  0  0  0
  -18.0941   11.4368  -21.9034 H   0  0  0  0  0  0  0  0  0  0  0  0
  -20.9662   10.4000  -16.1348 C   0  0  0  0  0  0  0  0  0  0  0  0
  -20.2327    9.3166  -15.7163 C   0  0  0  0  0  0  0  0  0  0  0  0
  -19.0228    8.9608  -16.2723 C   0  0  0  0  0  0  0  0  0  0  0  0
  -18.5083    9.7424  -17.3194 C   0  0  0  0  0  0  0  0  0  0  0  0
  -17.3228    9.6711  -18.0910 N   0  0  0  0  0  0  0  0  0  0  0  0
  -17.3025   10.7384  -19.0256 C   0  0  0  0  0  0  0  0  0  0  0  0
  -16.3840   10.9480  -19.8447 O   0  0  0  0  0  0  0  0  0  0  0  0
  -18.5217   11.5067  -18.8347 C   0  0  0  0  0  0  0  0  0  0  0  0
  -18.9524   12.5710  -19.4813 C   0  0  0  0  0  0  0  0  0  0  0  0
  -19.2401   10.8229  -17.7378 C   0  0  0  0  0  0  0  0  0  0  0  0
  -20.4594   11.1545  -17.1549 C   0  0  0  0  0  0  0  0  0  0  0  0
  -16.5945    8.9136  -17.9488 H   0  0  0  0  0  0  0  0  0  0  0  0
  -22.1908   10.7605  -15.5683 O   0  0  0  0  0  0  0  0  0  0  0  0
  -22.3190   13.6224  -14.6985 C   0  0  0  0  0  0  0  0  0  0  0  0
  -22.3368   12.5068  -13.7899 N   0  0  0  0  0  0  0  0  0  0  0  0
  -22.4283   12.7634  -12.3712 C   0  0  0  0  0  0  0  0  0  0  0  0
  -22.2688   11.1774  -14.2374 C   0  0  0  0  0  0  0  0  0  0  0  0
  -22.2774   10.2131  -13.4014 O   0  0  0  0  0  0  0  0  0  0  0  0
  -17.6470   15.5271  -19.7704 C   0  0  0  0  0  0  0  0  0  0  0  0
  -18.9813   16.2549  -19.7613 C   0  0  0  0  0  0  0  0  0  0  0  0
  -18.9772   17.3812  -20.7774 C   0  0  0  0  0  0  0  0  0  0  0  0
  -18.2749   18.5558  -20.3225 N   0  0  0  0  0  0  0  0  0  0  0  0
  -18.4585   19.5784  -21.3476 C   0  0  0  0  0  0  0  0  0  0  0  0
  -19.8876   19.8519  -21.6221 C   0  0  0  0  0  0  0  0  0  0  0  0
  -20.6436   20.1578  -20.4322 N   0  0  0  0  0  0  0  0  0  0  0  0
  -20.3076   19.4430  -19.2673 C   0  0  0  0  0  0  0  0  0  0  0  0
  -18.8733   19.0634  -19.0777 C   0  0  0  0  0  0  0  0  0  0  0  0
  -20.9418   21.5456  -20.3109 C   0  0  0  0  0  0  0  0  0  0  0  0
  -21.5062   21.9506  -18.9954 C   0  0  0  0  0  0  0  0  0  0  0  0
  -22.8973   21.8904  -19.0751 O   0  0  0  0  0  0  0  0  0  0  0  0
  -23.2184   22.6626  -19.6262 H   0  0  0  0  0  0  0  0  0  0  0  0
 24 25  1  0  0  0
 25 26  1  0  0  0
 25 27  1  0  0  0
 27 28  2  0  0  0
 27 23  1  0  0  0
 23 11  1  0  0  0
 11 12  2  0  0  0
 12 13  1  0  0  0
 13 14  2  0  0  0
 14 15  1  0  0  0
 15 16  1  0  0  0
 16 17  2  0  0  0
 16 18  1  0  0  0
 18 19  2  0  0  0
 19  1  1  0  0  0
  1  2  1  0  0  0
  2  3  1  0  0  0
  3  4  1  0  0  0
  4  5  1  0  0  0
  5  6  1  0  0  0
  6  7  1  0  0  0
  7  8  1  0  0  0
  8  9  1  0  0  0
  9 29  1  0  0  0
 29 30  1  0  0  0
 30 31  1  0  0  0
 31 32  1  0  0  0
 32 33  1  0  0  0
 33 34  1  0  0  0
 34 35  1  0  0  0
 35 38  1  0  0  0
 38 39  1  0  0  0
 39 40  1  0  0  0
 35 36  1  0  0  0
 36 37  1  0  0  0
 18 20  1  0  0  0
 20 21  2  0  0  0
 21 11  1  0  0  0
 20 14  1  0  0  0
  9  1  2  0  0  0
 37 32  1  0  0  0
  8  3  2  0  0  0
 15 22  1  0  0  0
  2 10  1  0  0  0
 40 41  1  0  0  0
M  END
> <minimizedAffinity>
-7.93529

> <CNNscore>
0.7093195915

> <CNNaffinity>
7.4995527267

> <CNN_VS>
5.3195796013

> <CNNaffinity_variance>
0.2509004474

$$$$
[H]OC([H])([H])C([H])([H])N1C([H])([H])C([H])([H])N(C([H])([H])C([H])([H])C([H])([H])c2c3c(n([H])c2/C([H])=C2\C(=O)N([H])c4c([H])c([H])c(OC(=O)N(C([H])([H])[H])C([H])([H])[H])c([H])c42)C([H])([H])C([H])([H])C([H])([H])C3([H])[H])C([H])([H])C1([H])[H]


 41 45  0  0  0  0  0  0  0  0999 V2000
  -17.1289   13.7282  -23.6343 C   0  0  0  0  0  0  0  0  0  0  0  0
  -17.4602   13.1018  -24.8056 N   0  0  0  0  0  0  0  0  0  0  0  0
  -16.7864   13.6105  -25.8404 C   0  0  0  0  0  0  0  0  0  0  0  0
  -16.7132   13.3467  -27.3024 C   0  0  0  0  0  0  0  0  0  0  0  0
  -16.7531   14.6380  -28.0855 C   0  0  0  0  0  0  0  0  0  0  0  0
  -15.8037   15.6786  -27.5962 C   0  0  0  0  0  0  0  0  0  0  0  0
  -15.1213   15.3524  -26.2952 C   0  0  0  0  0  0  0  0  0  0  0  0
  -15.9805   14.6071  -25.3471 C   0  0  0  0  0  0  0  0  0  0  0  0
  -16.2004   14.6718  -23.9698 C   0  0  0  0  0  0  0  0  0  0  0  0
  -18.1581   12.3112  -24.9232 H   0  0  0  0  0  0  0  0  0  0  0  0
  -19.0222   11.7208  -18.4155 C   0  0  0  0  0  0  0  0  0  0  0  0
  -18.2686   10.6415  -18.0229 C   0  0  0  0  0  0  0  0  0  0  0  0
  -17.2243   10.1362  -18.7669 C   0  0  0  0  0  0  0  0  0  0  0  0
  -16.9093   10.7525  -19.9888 C   0  0  0  0  0  0  0  0  0  0  0  0
  -15.9214   10.5061  -20.9733 N   0  0  0  0  0  0  0  0  0  0  0  0
  -16.0509   11.4547  -22.0203 C   0  0  0  0  0  0  0  0  0  0  0  0
  -15.3202   11.5008  -23.0315 O   0  0  0  0  0  0  0  0  0  0  0  0
  -17.1628   12.3276  -21.6811 C   0  0  0  0  0  0  0  0  0  0  0  0
  -17.6707   13.3395  -22.3552 C   0  0  0  0  0  0  0  0  0  0  0  0
  -17.6613   11.8288  -20.3813 C   0  0  0  0  0  0  0  0  0  0  0  0
  -18.7102   12.3140  -19.6061 C   0  0  0  0  0  0  0  0  0  0  0  0
  -15.2166    9.7183  -20.8892 H   0  0  0  0  0  0  0  0  0  0  0  0
  -20.0783   12.2331  -17.6588 O   0  0  0  0  0  0  0  0  0  0  0  0
  -21.7826   10.4995  -15.9114 C   0  0  0  0  0  0  0  0  0  0  0  0
  -20.8036   11.4273  -15.4098 N   0  0  0  0  0  0  0  0  0  0  0  0
  -20.6135   11.5374  -13.9820 C   0  0  0  0  0  0  0  0  0  0  0  0
  -20.0273   12.2282  -16.2629 C   0  0  0  0  0  0  0  0  0  0  0  0
  -19.1749   13.0472  -15.7817 O   0  0  0  0  0  0  0  0  0  0  0  0
  -15.4609   15.6005  -23.0834 C   0  0  0  0  0  0  0  0  0  0  0  0
  -16.0357   17.0074  -23.0972 C   0  0  0  0  0  0  0  0  0  0  0  0
  -17.4898   16.9897  -22.6658 C   0  0  0  0  0  0  0  0  0  0  0  0
  -17.7916   17.9591  -21.6415 N   0  0  0  0  0  0  0  0  0  0  0  0
  -19.2112   17.8166  -21.3335 C   0  0  0  0  0  0  0  0  0  0  0  0
  -19.5636   16.4387  -20.9215 C   0  0  0  0  0  0  0  0  0  0  0  0
  -18.7395   15.9414  -19.8470 N   0  0  0  0  0  0  0  0  0  0  0  0
  -17.3813   16.3103  -19.8679 C   0  0  0  0  0  0  0  0  0  0  0  0
  -17.0392   17.6606  -20.4127 C   0  0  0  0  0  0  0  0  0  0  0  0
  -19.4170   15.9287  -18.5939 C   0  0  0  0  0  0  0  0  0  0  0  0
  -18.5367   16.0949  -17.4062 C   0  0  0  0  0  0  0  0  0  0  0  0
  -19.2775   15.7959  -16.2631 O   0  0  0  0  0  0  0  0  0  0  0  0
  -19.9149   16.5490  -16.0906 H   0  0  0  0  0  0  0  0  0  0  0  0
 24 25  1  0  0  0
 25 26  1  0  0  0
 25 27  1  0  0  0
 27 28  2  0  0  0
 27 23  1  0  0  0
 23 11  1  0  0  0
 11 12  2  0  0  0
 12 13  1  0  0  0
 13 14  2  0  0  0
 14 15  1  0  0  0
 15 16  1  0  0  0
 16 17  2  0  0  0
 16 18  1  0  0  0
 18 19  2  0  0  0
 19  1  1  0  0  0
  1  2  1  0  0  0
  2  3  1  0  0  0
  3  4  1  0  0  0
  4  5  1  0  0  0
  5  6  1  0  0  0
  6  7  1  0  0  0
  7  8  1  0  0  0
  8  9  1  0  0  0
  9 29  1  0  0  0
 29 30  1  0  0  0
 30 31  1  0  0  0
 31 32  1  0  0  0
 32 33  1  0  0  0
 33 34  1  0  0  0
 34 35  1  0  0  0
 35 38  1  0  0  0
 38 39  1  0  0  0
 39 40  1  0  0  0
 35 36  1  0  0  0
 36 37  1  0  0  0
 18 20  1  0  0  0
 20 21  2  0  0  0
 21 11  1  0  0  0
 20 14  1  0  0  0
  9  1  2  0  0  0
 37 32  1  0  0  0
  8  3  2  0  0  0
 15 22  1  0  0  0
  2 10  1  0  0  0
 40 41  1  0  0  0
M  END
> <minimizedAffinity>
-9.20667

> <CNNscore>
0.6800194383

> <CNNaffinity>
7.7847852707

> <CNN_VS>
5.2938051224

> <CNNaffinity_variance>
0.0950885862

$$$$
[H]OC([H])([H])C([H])([H])N1C([H])([H])C([H])([H])N(C([H])([H])C([H])([H])C([H])([H])c2c3c(n([H])c2/C([H])=C2\C(=O)N([H])c4c([H])c([H])c(OC(=O)N(C([H])([H])[H])C([H])([H])[H])c([H])c42)C([H])([H])C([H])([H])C([H])([H])C3([H])[H])C([H])([H])C1([H])[H]


 41 45  0  0  0  0  0  0  0  0999 V2000
  -19.8216   12.1782  -17.7869 C   0  0  0  0  0  0  0  0  0  0  0  0
  -20.2981   10.9706  -17.3526 N   0  0  0  0  0  0  0  0  0  0  0  0
  -20.9672   11.0930  -16.2033 C   0  0  0  0  0  0  0  0  0  0  0  0
  -21.6951   10.1750  -15.2868 C   0  0  0  0  0  0  0  0  0  0  0  0
  -21.3254   10.4462  -13.8473 C   0  0  0  0  0  0  0  0  0  0  0  0
  -21.3892   11.8850  -13.4609 C   0  0  0  0  0  0  0  0  0  0  0  0
  -21.6058   12.8391  -14.6044 C   0  0  0  0  0  0  0  0  0  0  0  0
  -20.9373   12.4218  -15.8580 C   0  0  0  0  0  0  0  0  0  0  0  0
  -20.2216   13.0907  -16.8529 C   0  0  0  0  0  0  0  0  0  0  0  0
  -20.1741   10.0329  -17.8337 H   0  0  0  0  0  0  0  0  0  0  0  0
  -16.5517   12.4895  -22.6921 C   0  0  0  0  0  0  0  0  0  0  0  0
  -15.5457   11.5551  -22.6494 C   0  0  0  0  0  0  0  0  0  0  0  0
  -15.3656   10.6839  -21.5967 C   0  0  0  0  0  0  0  0  0  0  0  0
  -16.2529   10.7496  -20.5102 C   0  0  0  0  0  0  0  0  0  0  0  0
  -16.3623   10.0194  -19.3016 N   0  0  0  0  0  0  0  0  0  0  0  0
  -17.4679   10.5033  -18.5557 C   0  0  0  0  0  0  0  0  0  0  0  0
  -17.8259   10.0575  -17.4460 O   0  0  0  0  0  0  0  0  0  0  0  0
  -18.0736   11.5785  -19.3241 C   0  0  0  0  0  0  0  0  0  0  0  0
  -19.1081   12.3399  -19.0301 C   0  0  0  0  0  0  0  0  0  0  0  0
  -17.2562   11.6821  -20.5520 C   0  0  0  0  0  0  0  0  0  0  0  0
  -17.4100   12.5479  -21.6307 C   0  0  0  0  0  0  0  0  0  0  0  0
  -15.6921    9.2390  -19.0442 H   0  0  0  0  0  0  0  0  0  0  0  0
  -16.7343   13.3696  -23.7610 O   0  0  0  0  0  0  0  0  0  0  0  0
  -16.5292   14.3779  -26.5725 C   0  0  0  0  0  0  0  0  0  0  0  0
  -15.5415   14.6291  -25.5566 N   0  0  0  0  0  0  0  0  0  0  0  0
  -14.3791   15.4180  -25.8932 C   0  0  0  0  0  0  0  0  0  0  0  0
  -15.6713   14.1330  -24.2493 C   0  0  0  0  0  0  0  0  0  0  0  0
  -14.7701   14.3680  -23.3768 O   0  0  0  0  0  0  0  0  0  0  0  0
  -20.0266   14.5594  -16.8492 C   0  0  0  0  0  0  0  0  0  0  0  0
  -18.5649   14.9574  -16.9720 C   0  0  0  0  0  0  0  0  0  0  0  0
  -18.4084   16.1024  -17.9546 C   0  0  0  0  0  0  0  0  0  0  0  0
  -19.4772   16.1738  -18.9203 N   0  0  0  0  0  0  0  0  0  0  0  0
  -19.8413   17.5822  -19.0405 C   0  0  0  0  0  0  0  0  0  0  0  0
  -18.6890   18.4327  -19.4167 C   0  0  0  0  0  0  0  0  0  0  0  0
  -18.0014   17.9645  -20.5952 N   0  0  0  0  0  0  0  0  0  0  0  0
  -17.8865   16.5702  -20.7493 C   0  0  0  0  0  0  0  0  0  0  0  0
  -19.0090   15.7228  -20.2404 C   0  0  0  0  0  0  0  0  0  0  0  0
  -18.2876   18.7504  -21.7485 C   0  0  0  0  0  0  0  0  0  0  0  0
  -18.1236   18.0397  -23.0451 C   0  0  0  0  0  0  0  0  0  0  0  0
  -18.0828   18.9889  -24.0660 O   0  0  0  0  0  0  0  0  0  0  0  0
  -19.0071   19.3497  -24.2026 H   0  0  0  0  0  0  0  0  0  0  0  0
 24 25  1  0  0  0
 25 26  1  0  0  0
 25 27  1  0  0  0
 27 28  2  0  0  0
 27 23  1  0  0  0
 23 11  1  0  0  0
 11 12  2  0  0  0
 12 13  1  0  0  0
 13 14  2  0  0  0
 14 15  1  0  0  0
 15 16  1  0  0  0
 16 17  2  0  0  0
 16 18  1  0  0  0
 18 19  2  0  0  0
 19  1  1  0  0  0
  1  2  1  0  0  0
  2  3  1  0  0  0
  3  4  1  0  0  0
  4  5  1  0  0  0
  5  6  1  0  0  0
  6  7  1  0  0  0
  7  8  1  0  0  0
  8  9  1  0  0  0
  9 29  1  0  0  0
 29 30  1  0  0  0
 30 31  1  0  0  0
 31 32  1  0  0  0
 32 33  1  0  0  0
 33 34  1  0  0  0
 34 35  1  0  0  0
 35 38  1  0  0  0
 38 39  1  0  0  0
 39 40  1  0  0  0
 35 36  1  0  0  0
 36 37  1  0  0  0
 18 20  1  0  0  0
 20 21  2  0  0  0
 21 11  1  0  0  0
 20 14  1  0  0  0
  9  1  2  0  0  0
 37 32  1  0  0  0
  8  3  2  0  0  0
 15 22  1  0  0  0
  2 10  1  0  0  0
 40 41  1  0  0  0
M  END
> <minimizedAffinity>
-8.65530

> <CNNscore>
0.5926588178

> <CNNaffinity>
7.4701108932

> <CNN_VS>
4.4272270203

> <CNNaffinity_variance>
0.1583382785

$$$$
[H]OC([H])([H])C([H])([H])N1C([H])([H])C([H])([H])N(C([H])([H])C([H])([H])C([H])([H])c2c3c(n([H])c2/C([H])=C2\C(=O)N([H])c4c([H])c([H])c(OC(=O)N(C([H])([H])[H])C([H])([H])[H])c([H])c42)C([H])([H])C([H])([H])C([H])([H])C3([H])[H])C([H])([H])C1([H])[H]


 41 45  0  0  0  0  0  0  0  0999 V2000
  -17.4357   13.8051  -21.7758 C   0  0  0  0  0  0  0  0  0  0  0  0
  -17.4400   13.1742  -22.9908 N   0  0  0  0  0  0  0  0  0  0  0  0
  -16.7353   13.8549  -23.8983 C   0  0  0  0  0  0  0  0  0  0  0  0
  -16.3804   13.6745  -25.3315 C   0  0  0  0  0  0  0  0  0  0  0  0
  -16.5690   14.9619  -26.0993 C   0  0  0  0  0  0  0  0  0  0  0  0
  -15.9490   16.1545  -25.4538 C   0  0  0  0  0  0  0  0  0  0  0  0
  -15.4251   15.9213  -24.0624 C   0  0  0  0  0  0  0  0  0  0  0  0
  -16.2452   14.9747  -23.2724 C   0  0  0  0  0  0  0  0  0  0  0  0
  -16.6864   14.9337  -21.9483 C   0  0  0  0  0  0  0  0  0  0  0  0
  -17.9282   12.2621  -23.2268 H   0  0  0  0  0  0  0  0  0  0  0  0
  -19.7875   11.1237  -17.0717 C   0  0  0  0  0  0  0  0  0  0  0  0
  -19.1905    9.9020  -16.8767 C   0  0  0  0  0  0  0  0  0  0  0  0
  -18.1849    9.4133  -17.6827 C   0  0  0  0  0  0  0  0  0  0  0  0
  -17.7435   10.2001  -18.7588 C   0  0  0  0  0  0  0  0  0  0  0  0
  -16.7516   10.0156  -19.7527 N   0  0  0  0  0  0  0  0  0  0  0  0
  -16.7174   11.1511  -20.6027 C   0  0  0  0  0  0  0  0  0  0  0  0
  -15.9433   11.2896  -21.5722 O   0  0  0  0  0  0  0  0  0  0  0  0
  -17.7270   12.0818  -20.1255 C   0  0  0  0  0  0  0  0  0  0  0  0
  -18.0764   13.2585  -20.6048 C   0  0  0  0  0  0  0  0  0  0  0  0
  -18.3393   11.4187  -18.9542 C   0  0  0  0  0  0  0  0  0  0  0  0
  -19.3533   11.8826  -18.1215 C   0  0  0  0  0  0  0  0  0  0  0  0
  -16.1535    9.1416  -19.8061 H   0  0  0  0  0  0  0  0  0  0  0  0
  -20.8044   11.6184  -16.2522 O   0  0  0  0  0  0  0  0  0  0  0  0
  -20.0126   11.2112  -13.3938 C   0  0  0  0  0  0  0  0  0  0  0  0
  -21.1408   10.5672  -14.0127 N   0  0  0  0  0  0  0  0  0  0  0  0
  -21.9546    9.6733  -13.2219 C   0  0  0  0  0  0  0  0  0  0  0  0
  -21.4762   10.7798  -15.3597 C   0  0  0  0  0  0  0  0  0  0  0  0
  -22.4788   10.1837  -15.8776 O   0  0  0  0  0  0  0  0  0  0  0  0
  -16.3074   15.9567  -20.9458 C   0  0  0  0  0  0  0  0  0  0  0  0
  -16.9576   17.3050  -21.2088 C   0  0  0  0  0  0  0  0  0  0  0  0
  -18.4675   17.1916  -21.1185 C   0  0  0  0  0  0  0  0  0  0  0  0
  -19.1272   18.4669  -20.9837 N   0  0  0  0  0  0  0  0  0  0  0  0
  -19.3451   18.9721  -22.3357 C   0  0  0  0  0  0  0  0  0  0  0  0
  -20.1188   18.0273  -23.1731 C   0  0  0  0  0  0  0  0  0  0  0  0
  -21.3571   17.6120  -22.5606 N   0  0  0  0  0  0  0  0  0  0  0  0
  -21.3395   17.4160  -21.1670 C   0  0  0  0  0  0  0  0  0  0  0  0
  -20.4470   18.2998  -20.3549 C   0  0  0  0  0  0  0  0  0  0  0  0
  -22.4963   18.2411  -23.1402 C   0  0  0  0  0  0  0  0  0  0  0  0
  -23.7824   17.9679  -22.4442 C   0  0  0  0  0  0  0  0  0  0  0  0
  -24.5053   17.0451  -23.1999 O   0  0  0  0  0  0  0  0  0  0  0  0
  -24.8636   17.5094  -24.0117 H   0  0  0  0  0  0  0  0  0  0  0  0
 24 25  1  0  0  0
 25 26  1  0  0  0
 25 27  1  0  0  0
 27 28  2  0  0  0
 27 23  1  0  0  0
 23 11  1  0  0  0
 11 12  2  0  0  0
 12 13  1  0  0  0
 13 14  2  0  0  0
 14 15  1  0  0  0
 15 16  1  0  0  0
 16 17  2  0  0  0
 16 18  1  0  0  0
 18 19  2  0  0  0
 19  1  1  0  0  0
  1  2  1  0  0  0
  2  3  1  0  0  0
  3  4  1  0  0  0
  4  5  1  0  0  0
  5  6  1  0  0  0
  6  7  1  0  0  0
  7  8  1  0  0  0
  8  9  1  0  0  0
  9 29  1  0  0  0
 29 30  1  0  0  0
 30 31  1  0  0  0
 31 32  1  0  0  0
 32 33  1  0  0  0
 33 34  1  0  0  0
 34 35  1  0  0  0
 35 38  1  0  0  0
 38 39  1  0  0  0
 39 40  1  0  0  0
 35 36  1  0  0  0
 36 37  1  0  0  0
 18 20  1  0  0  0
 20 21  2  0  0  0
 21 11  1  0  0  0
 20 14  1  0  0  0
  9  1  2  0  0  0
 37 32  1  0  0  0
  8  3  2  0  0  0
 15 22  1  0  0  0
  2 10  1  0  0  0
 40 41  1  0  0  0
M  END
> <minimizedAffinity>
-9.41418

> <CNNscore>
0.5810874701

> <CNNaffinity>
7.5051908493

> <CNN_VS>
4.3611721992

> <CNNaffinity_variance>
0.0778848156

$$$$
[H]OC([H])([H])C([H])([H])N1C([H])([H])C([H])([H])N(C([H])([H])C([H])([H])C([H])([H])c2c3c(n([H])c2/C([H])=C2\C(=O)N([H])c4c([H])c([H])c(OC(=O)N(C([H])([H])[H])C([H])([H])[H])c([H])c42)C([H])([H])C([H])([H])C([H])([H])C3([H])[H])C([H])([H])C1([H])[H]


 41 45  0  0  0  0  0  0  0  0999 V2000
  -17.4907   13.7965  -21.8545 C   0  0  0  0  0  0  0  0  0  0  0  0
  -17.4392   13.1429  -23.0562 N   0  0  0  0  0  0  0  0  0  0  0  0
  -16.6594   13.7850  -23.9298 C   0  0  0  0  0  0  0  0  0  0  0  0
  -16.2223   13.5668  -25.3347 C   0  0  0  0  0  0  0  0  0  0  0  0
  -16.3237   14.8442  -26.1350 C   0  0  0  0  0  0  0  0  0  0  0  0
  -15.7086   16.0302  -25.4728 C   0  0  0  0  0  0  0  0  0  0  0  0
  -15.2790   15.8084  -24.0476 C   0  0  0  0  0  0  0  0  0  0  0  0
  -16.1749   14.9016  -23.2940 C   0  0  0  0  0  0  0  0  0  0  0  0
  -16.6980   14.8991  -21.9995 C   0  0  0  0  0  0  0  0  0  0  0  0
  -17.9396   12.2411  -23.3064 H   0  0  0  0  0  0  0  0  0  0  0  0
  -20.1610   11.3034  -17.2173 C   0  0  0  0  0  0  0  0  0  0  0  0
  -19.5037   10.1527  -16.8560 C   0  0  0  0  0  0  0  0  0  0  0  0
  -18.3807    9.6864  -17.5050 C   0  0  0  0  0  0  0  0  0  0  0  0
  -17.8781   10.4213  -18.5910 C   0  0  0  0  0  0  0  0  0  0  0  0
  -16.7693   10.2417  -19.4536 N   0  0  0  0  0  0  0  0  0  0  0  0
  -16.7208   11.3075  -20.3889 C   0  0  0  0  0  0  0  0  0  0  0  0
  -15.8539   11.4332  -21.2783 O   0  0  0  0  0  0  0  0  0  0  0  0
  -17.8423   12.1874  -20.1037 C   0  0  0  0  0  0  0  0  0  0  0  0
  -18.2189   13.2916  -20.7163 C   0  0  0  0  0  0  0  0  0  0  0  0
  -18.5340   11.5690  -18.9523 C   0  0  0  0  0  0  0  0  0  0  0  0
  -19.6664   12.0120  -18.2756 C   0  0  0  0  0  0  0  0  0  0  0  0
  -16.1077    9.4175  -19.3679 H   0  0  0  0  0  0  0  0  0  0  0  0
  -21.2972   11.7758  -16.5566 O   0  0  0  0  0  0  0  0  0  0  0  0
  -21.7066   14.5382  -17.6358 C   0  0  0  0  0  0  0  0  0  0  0  0
  -21.4373   14.2498  -16.2520 N   0  0  0  0  0  0  0  0  0  0  0  0
  -21.3632   15.3447  -15.3125 C   0  0  0  0  0  0  0  0  0  0  0  0
  -21.2449   12.9394  -15.7855 C   0  0  0  0  0  0  0  0  0  0  0  0
  -20.9985   12.7223  -14.5522 O   0  0  0  0  0  0  0  0  0  0  0  0
  -16.3506   15.9295  -20.9931 C   0  0  0  0  0  0  0  0  0  0  0  0
  -16.7697   17.3278  -21.4164 C   0  0  0  0  0  0  0  0  0  0  0  0
  -18.2818   17.4320  -21.4767 C   0  0  0  0  0  0  0  0  0  0  0  0
  -18.9243   17.1214  -20.2235 N   0  0  0  0  0  0  0  0  0  0  0  0
  -19.3370   18.3926  -19.6367 C   0  0  0  0  0  0  0  0  0  0  0  0
  -20.2160   19.1713  -20.5386 C   0  0  0  0  0  0  0  0  0  0  0  0
  -21.3509   18.4173  -21.0122 N   0  0  0  0  0  0  0  0  0  0  0  0
  -21.1327   17.0562  -21.2964 C   0  0  0  0  0  0  0  0  0  0  0  0
  -20.1393   16.3234  -20.4518 C   0  0  0  0  0  0  0  0  0  0  0  0
  -22.5657   18.7863  -20.3660 C   0  0  0  0  0  0  0  0  0  0  0  0
  -23.6292   17.7465  -20.3946 C   0  0  0  0  0  0  0  0  0  0  0  0
  -24.8658   18.3767  -20.2581 O   0  0  0  0  0  0  0  0  0  0  0  0
  -24.9673   18.6766  -19.3079 H   0  0  0  0  0  0  0  0  0  0  0  0
 24 25  1  0  0  0
 25 26  1  0  0  0
 25 27  1  0  0  0
 27 28  2  0  0  0
 27 23  1  0  0  0
 23 11  1  0  0  0
 11 12  2  0  0  0
 12 13  1  0  0  0
 13 14  2  0  0  0
 14 15  1  0  0  0
 15 16  1  0  0  0
 16 17  2  0  0  0
 16 18  1  0  0  0
 18 19  2  0  0  0
 19  1  1  0  0  0
  1  2  1  0  0  0
  2  3  1  0  0  0
  3  4  1  0  0  0
  4  5  1  0  0  0
  5  6  1  0  0  0
  6  7  1  0  0  0
  7  8  1  0  0  0
  8  9  1  0  0  0
  9 29  1  0  0  0
 29 30  1  0  0  0
 30 31  1  0  0  0
 31 32  1  0  0  0
 32 33  1  0  0  0
 33 34  1  0  0  0
 34 35  1  0  0  0
 35 38  1  0  0  0
 38 39  1  0  0  0
 39 40  1  0  0  0
 35 36  1  0  0  0
 36 37  1  0  0  0
 18 20  1  0  0  0
 20 21  2  0  0  0
 21 11  1  0  0  0
 20 14  1  0  0  0
  9  1  2  0  0  0
 37 32  1  0  0  0
  8  3  2  0  0  0
 15 22  1  0  0  0
  2 10  1  0  0  0
 40 41  1  0  0  0
M  END
> <minimizedAffinity>
-8.20189

> <CNNscore>
0.5614342093

> <CNNaffinity>
7.5765714645

> <CNN_VS>
4.2537465096

> <CNNaffinity_variance>
0.2248914689

$$$$
[H]OC([H])([H])C([H])([H])N1C([H])([H])C([H])([H])N(C([H])([H])C([H])([H])C([H])([H])c2c3c(n([H])c2/C([H])=C2\C(=O)N([H])c4c([H])c([H])c(OC(=O)N(C([H])([H])[H])C([H])([H])[H])c([H])c42)C([H])([H])C([H])([H])C([H])([H])C3([H])[H])C([H])([H])C1([H])[H]


 41 45  0  0  0  0  0  0  0  0999 V2000
  -19.5281   12.1009  -18.1558 C   0  0  0  0  0  0  0  0  0  0  0  0
  -19.4279   10.8173  -17.6906 N   0  0  0  0  0  0  0  0  0  0  0  0
  -19.9700   10.6929  -16.4764 C   0  0  0  0  0  0  0  0  0  0  0  0
  -20.1672    9.5867  -15.5017 C   0  0  0  0  0  0  0  0  0  0  0  0
  -19.7967   10.0272  -14.1049 C   0  0  0  0  0  0  0  0  0  0  0  0
  -20.3992   11.3281  -13.6947 C   0  0  0  0  0  0  0  0  0  0  0  0
  -21.0977   12.0784  -14.7965 C   0  0  0  0  0  0  0  0  0  0  0  0
  -20.4469   11.9298  -16.1183 C   0  0  0  0  0  0  0  0  0  0  0  0
  -20.1677   12.8010  -17.1730 C   0  0  0  0  0  0  0  0  0  0  0  0
  -18.9833    9.9960  -18.1946 H   0  0  0  0  0  0  0  0  0  0  0  0
  -17.2211   13.4469  -23.4203 C   0  0  0  0  0  0  0  0  0  0  0  0
  -16.0684   12.7294  -23.6284 C   0  0  0  0  0  0  0  0  0  0  0  0
  -15.5618   11.8289  -22.7162 C   0  0  0  0  0  0  0  0  0  0  0  0
  -16.2555   11.6301  -21.5115 C   0  0  0  0  0  0  0  0  0  0  0  0
  -16.0296   10.7976  -20.3882 N   0  0  0  0  0  0  0  0  0  0  0  0
  -17.0672   10.9917  -19.4401 C   0  0  0  0  0  0  0  0  0  0  0  0
  -17.1505   10.3959  -18.3463 O   0  0  0  0  0  0  0  0  0  0  0  0
  -17.9768   11.9844  -19.9882 C   0  0  0  0  0  0  0  0  0  0  0  0
  -19.0703   12.5002  -19.4641 C   0  0  0  0  0  0  0  0  0  0  0  0
  -17.4051   12.3463  -21.3031 C   0  0  0  0  0  0  0  0  0  0  0  0
  -17.8894   13.2487  -22.2453 C   0  0  0  0  0  0  0  0  0  0  0  0
  -15.1953   10.1468  -20.3192 H   0  0  0  0  0  0  0  0  0  0  0  0
  -17.7343   14.3569  -24.3472 O   0  0  0  0  0  0  0  0  0  0  0  0
  -17.0921   13.5064  -27.1450 C   0  0  0  0  0  0  0  0  0  0  0  0
  -16.5653   14.6945  -26.5272 N   0  0  0  0  0  0  0  0  0  0  0  0
  -15.6779   15.5425  -27.2891 C   0  0  0  0  0  0  0  0  0  0  0  0
  -16.8861   15.0563  -25.2088 C   0  0  0  0  0  0  0  0  0  0  0  0
  -16.3922   16.1128  -24.6905 O   0  0  0  0  0  0  0  0  0  0  0  0
  -20.5856   14.2225  -17.1699 C   0  0  0  0  0  0  0  0  0  0  0  0
  -19.4304   15.1730  -16.9017 C   0  0  0  0  0  0  0  0  0  0  0  0
  -19.9421   16.4787  -16.3237 C   0  0  0  0  0  0  0  0  0  0  0  0
  -19.0302   17.5802  -16.5105 N   0  0  0  0  0  0  0  0  0  0  0  0
  -19.1433   17.9870  -17.9078 C   0  0  0  0  0  0  0  0  0  0  0  0
  -20.5318   18.3401  -18.2818 C   0  0  0  0  0  0  0  0  0  0  0  0
  -21.1244   19.3160  -17.4001 N   0  0  0  0  0  0  0  0  0  0  0  0
  -20.8015   19.2135  -16.0339 C   0  0  0  0  0  0  0  0  0  0  0  0
  -19.4318   18.7273  -15.6810 C   0  0  0  0  0  0  0  0  0  0  0  0
  -21.1935   20.6142  -17.9825 C   0  0  0  0  0  0  0  0  0  0  0  0
  -20.4690   21.6749  -17.2321 C   0  0  0  0  0  0  0  0  0  0  0  0
  -19.2740   21.9477  -17.8973 O   0  0  0  0  0  0  0  0  0  0  0  0
  -18.6415   21.1871  -17.7407 H   0  0  0  0  0  0  0  0  0  0  0  0
 24 25  1  0  0  0
 25 26  1  0  0  0
 25 27  1  0  0  0
 27 28  2  0  0  0
 27 23  1  0  0  0
 23 11  1  0  0  0
 11 12  2  0  0  0
 12 13  1  0  0  0
 13 14  2  0  0  0
 14 15  1  0  0  0
 15 16  1  0  0  0
 16 17  2  0  0  0
 16 18  1  0  0  0
 18 19  2  0  0  0
 19  1  1  0  0  0
  1  2  1  0  0  0
  2  3  1  0  0  0
  3  4  1  0  0  0
  4  5  1  0  0  0
  5  6  1  0  0  0
  6  7  1  0  0  0
  7  8  1  0  0  0
  8  9  1  0  0  0
  9 29  1  0  0  0
 29 30  1  0  0  0
 30 31  1  0  0  0
 31 32  1  0  0  0
 32 33  1  0  0  0
 33 34  1  0  0  0
 34 35  1  0  0  0
 35 38  1  0  0  0
 38 39  1  0  0  0
 39 40  1  0  0  0
 35 36  1  0  0  0
 36 37  1  0  0  0
 18 20  1  0  0  0
 20 21  2  0  0  0
 21 11  1  0  0  0
 20 14  1  0  0  0
  9  1  2  0  0  0
 37 32  1  0  0  0
  8  3  2  0  0  0
 15 22  1  0  0  0
  2 10  1  0  0  0
 40 41  1  0  0  0
M  END
> <minimizedAffinity>
-8.05587

> <CNNscore>
0.5463368297

> <CNNaffinity>
7.3826360703

> <CNN_VS>
4.0334057808

> <CNNaffinity_variance>
0.0822538361

$$$$
[H]c1nc(N([H])c2c([H])c([H])c(N3C([H])([H])C([H])([H])OC([H])([H])C3([H])[H])c([H])c2[H])sc1C(=O)N([H])c1c(Cl)c([H])c([H])c([H])c1C([H])([H])[H]


 31 34  0  0  0  0  0  0  0  0999 V2000
  -16.7393   12.1675  -21.7780 C   0  0  0  0  0  0  0  0  0  0  0  0
  -17.6490   12.7212  -20.9113 C   0  0  0  0  0  0  0  0  0  0  0  0
  -17.8984   12.0726  -19.8239 N   0  0  0  0  0  0  0  0  0  0  0  0
  -17.3243   10.9403  -19.5393 C   0  0  0  0  0  0  0  0  0  0  0  0
  -16.3118   10.7426  -20.9483 S   0  0  0  0  0  0  0  0  0  0  0  0
  -17.0491   13.7498  -23.7049 N   0  0  0  0  0  0  0  0  0  0  0  0
  -16.3063   12.7182  -23.0654 C   0  0  0  0  0  0  0  0  0  0  0  0
  -15.2722   12.3012  -23.6444 O   0  0  0  0  0  0  0  0  0  0  0  0
  -17.9093   14.1191  -23.2494 H   0  0  0  0  0  0  0  0  0  0  0  0
  -15.6239   16.1411  -23.6872 C   0  0  0  0  0  0  0  0  0  0  0  0
  -15.9458   15.5007  -24.9679 C   0  0  0  0  0  0  0  0  0  0  0  0
  -15.5320   16.1031  -26.1240 C   0  0  0  0  0  0  0  0  0  0  0  0
  -15.8215   15.5133  -27.3336 C   0  0  0  0  0  0  0  0  0  0  0  0
  -16.5346   14.3095  -27.3279 C   0  0  0  0  0  0  0  0  0  0  0  0
  -16.9453   13.7138  -26.1580 C   0  0  0  0  0  0  0  0  0  0  0  0
  -17.8293   12.2172  -26.2107 Cl  0  0  0  0  0  0  0  0  0  0  0  0
  -16.6580   14.2997  -24.9530 C   0  0  0  0  0  0  0  0  0  0  0  0
  -17.4129   10.0302  -18.4397 N   0  0  0  0  0  0  0  0  0  0  0  0
  -16.5742    9.3895  -18.3358 H   0  0  0  0  0  0  0  0  0  0  0  0
  -18.5040    9.9861  -17.5829 C   0  0  0  0  0  0  0  0  0  0  0  0
  -18.6986    8.7642  -16.9030 C   0  0  0  0  0  0  0  0  0  0  0  0
  -19.7454    8.5703  -16.0347 C   0  0  0  0  0  0  0  0  0  0  0  0
  -20.6453    9.5756  -15.8011 C   0  0  0  0  0  0  0  0  0  0  0  0
  -20.5083   10.7899  -16.4345 C   0  0  0  0  0  0  0  0  0  0  0  0
  -19.4275   10.9537  -17.3151 C   0  0  0  0  0  0  0  0  0  0  0  0
  -21.7061    9.3771  -14.9062 N   0  0  0  0  0  0  0  0  0  0  0  0
  -21.6365    8.4250  -13.7958 C   0  0  0  0  0  0  0  0  0  0  0  0
  -22.7143    7.4041  -14.0592 C   0  0  0  0  0  0  0  0  0  0  0  0
  -23.9318    8.0818  -14.1124 O   0  0  0  0  0  0  0  0  0  0  0  0
  -24.0177    8.9622  -15.1894 C   0  0  0  0  0  0  0  0  0  0  0  0
  -22.9934   10.0522  -14.9558 C   0  0  0  0  0  0  0  0  0  0  0  0
 10 11  1  0  0  0
 11 12  2  0  0  0
 12 13  1  0  0  0
 13 14  2  0  0  0
 14 15  1  0  0  0
 15 16  1  0  0  0
 15 17  2  0  0  0
 17  6  1  0  0  0
  6  7  1  0  0  0
  7  8  2  0  0  0
  7  1  1  0  0  0
  1  2  2  0  0  0
  2  3  1  0  0  0
  3  4  2  0  0  0
  4 18  1  0  0  0
 18 20  1  0  0  0
 20 21  2  0  0  0
 21 22  1  0  0  0
 22 23  2  0  0  0
 23 24  1  0  0  0
 24 25  2  0  0  0
 23 26  1  0  0  0
 26 27  1  0  0  0
 27 28  1  0  0  0
 28 29  1  0  0  0
 29 30  1  0  0  0
 30 31  1  0  0  0
  4  5  1  0  0  0
 17 11  1  0  0  0
  5  1  1  0  0  0
 25 20  1  0  0  0
 31 26  1  0  0  0
  6  9  1  0  0  0
 18 19  1  0  0  0
M  END
> <minimizedAffinity>
-9.41068

> <CNNscore>
0.9251368642

> <CNNaffinity>
7.2214021683

> <CNN_VS>
6.6807851791

> <CNNaffinity_variance>
0.0695788339

$$$$
[H]c1nc(N([H])c2c([H])c([H])c(N3C([H])([H])C([H])([H])OC([H])([H])C3([H])[H])c([H])c2[H])sc1C(=O)N([H])c1c(Cl)c([H])c([H])c([H])c1C([H])([H])[H]


 31 34  0  0  0  0  0  0  0  0999 V2000
  -16.9689   11.9636  -21.2836 C   0  0  0  0  0  0  0  0  0  0  0  0
  -16.2337   10.8042  -21.3082 C   0  0  0  0  0  0  0  0  0  0  0  0
  -16.3721    9.9964  -20.3115 N   0  0  0  0  0  0  0  0  0  0  0  0
  -17.1689   10.2484  -19.3143 C   0  0  0  0  0  0  0  0  0  0  0  0
  -17.8094   11.7949  -19.8116 S   0  0  0  0  0  0  0  0  0  0  0  0
  -16.5883   14.3528  -21.9614 N   0  0  0  0  0  0  0  0  0  0  0  0
  -16.9703   13.0234  -22.2960 C   0  0  0  0  0  0  0  0  0  0  0  0
  -17.3064   12.7964  -23.4850 O   0  0  0  0  0  0  0  0  0  0  0  0
  -16.3015   14.5728  -20.9851 H   0  0  0  0  0  0  0  0  0  0  0  0
  -18.7838   16.0629  -22.0324 C   0  0  0  0  0  0  0  0  0  0  0  0
  -17.6768   16.2679  -22.9740 C   0  0  0  0  0  0  0  0  0  0  0  0
  -17.7578   17.3021  -23.8654 C   0  0  0  0  0  0  0  0  0  0  0  0
  -16.7260   17.5113  -24.7523 C   0  0  0  0  0  0  0  0  0  0  0  0
  -15.6268   16.6471  -24.7029 C   0  0  0  0  0  0  0  0  0  0  0  0
  -15.5575   15.6104  -23.8014 C   0  0  0  0  0  0  0  0  0  0  0  0
  -14.1665   14.5668  -23.7851 Cl  0  0  0  0  0  0  0  0  0  0  0  0
  -16.5838   15.4008  -22.9179 C   0  0  0  0  0  0  0  0  0  0  0  0
  -17.5047    9.5528  -18.1106 N   0  0  0  0  0  0  0  0  0  0  0  0
  -16.8006    8.8134  -17.8239 H   0  0  0  0  0  0  0  0  0  0  0  0
  -18.6549    9.8196  -17.3809 C   0  0  0  0  0  0  0  0  0  0  0  0
  -19.1522    8.7468  -16.6095 C   0  0  0  0  0  0  0  0  0  0  0  0
  -20.2904    8.8605  -15.8488 C   0  0  0  0  0  0  0  0  0  0  0  0
  -20.9865   10.0392  -15.8177 C   0  0  0  0  0  0  0  0  0  0  0  0
  -20.5511   11.1212  -16.5488 C   0  0  0  0  0  0  0  0  0  0  0  0
  -19.3847   10.9702  -17.3151 C   0  0  0  0  0  0  0  0  0  0  0  0
  -22.1416   10.1544  -15.0316 N   0  0  0  0  0  0  0  0  0  0  0  0
  -22.5664   11.4203  -14.4305 C   0  0  0  0  0  0  0  0  0  0  0  0
  -22.5345   11.2004  -12.9392 C   0  0  0  0  0  0  0  0  0  0  0  0
  -23.4032   10.1486  -12.6504 O   0  0  0  0  0  0  0  0  0  0  0  0
  -22.9840    8.9334  -13.1888 C   0  0  0  0  0  0  0  0  0  0  0  0
  -23.0488    9.0684  -14.6954 C   0  0  0  0  0  0  0  0  0  0  0  0
 10 11  1  0  0  0
 11 12  2  0  0  0
 12 13  1  0  0  0
 13 14  2  0  0  0
 14 15  1  0  0  0
 15 16  1  0  0  0
 15 17  2  0  0  0
 17  6  1  0  0  0
  6  7  1  0  0  0
  7  8  2  0  0  0
  7  1  1  0  0  0
  1  2  2  0  0  0
  2  3  1  0  0  0
  3  4  2  0  0  0
  4 18  1  0  0  0
 18 20  1  0  0  0
 20 21  2  0  0  0
 21 22  1  0  0  0
 22 23  2  0  0  0
 23 24  1  0  0  0
 24 25  2  0  0  0
 23 26  1  0  0  0
 26 27  1  0  0  0
 27 28  1  0  0  0
 28 29  1  0  0  0
 29 30  1  0  0  0
 30 31  1  0  0  0
  4  5  1  0  0  0
 17 11  1  0  0  0
  5  1  1  0  0  0
 25 20  1  0  0  0
 31 26  1  0  0  0
  6  9  1  0  0  0
 18 19  1  0  0  0
M  END
> <minimizedAffinity>
-8.35097

> <CNNscore>
0.8873677850

> <CNNaffinity>
7.0753426552

> <CNN_VS>
6.2784309387

> <CNNaffinity_variance>
0.1407254934

$$$$
[H]c1nc(N([H])c2c([H])c([H])c(N3C([H])([H])C([H])([H])OC([H])([H])C3([H])[H])c([H])c2[H])sc1C(=O)N([H])c1c(Cl)c([H])c([H])c([H])c1C([H])([H])[H]


 31 34  0  0  0  0  0  0  0  0999 V2000
  -16.6735   12.2584  -21.8100 C   0  0  0  0  0  0  0  0  0  0  0  0
  -17.5125   12.8536  -20.9006 C   0  0  0  0  0  0  0  0  0  0  0  0
  -17.7663   12.2010  -19.8167 N   0  0  0  0  0  0  0  0  0  0  0  0
  -17.2600   11.0273  -19.5739 C   0  0  0  0  0  0  0  0  0  0  0  0
  -16.3138   10.7915  -21.0225 S   0  0  0  0  0  0  0  0  0  0  0  0
  -17.0859   13.7036  -23.8235 N   0  0  0  0  0  0  0  0  0  0  0  0
  -16.2504   12.8052  -23.1024 C   0  0  0  0  0  0  0  0  0  0  0  0
  -15.1440   12.5017  -23.6141 O   0  0  0  0  0  0  0  0  0  0  0  0
  -18.0079   13.9772  -23.4249 H   0  0  0  0  0  0  0  0  0  0  0  0
  -17.8189   12.3125  -26.1208 C   0  0  0  0  0  0  0  0  0  0  0  0
  -17.0597   13.5625  -26.2437 C   0  0  0  0  0  0  0  0  0  0  0  0
  -16.7327   14.0103  -27.4940 C   0  0  0  0  0  0  0  0  0  0  0  0
  -16.0249   15.1834  -27.6273 C   0  0  0  0  0  0  0  0  0  0  0  0
  -15.6666   15.8747  -26.4648 C   0  0  0  0  0  0  0  0  0  0  0  0
  -16.0016   15.4135  -25.2128 C   0  0  0  0  0  0  0  0  0  0  0  0
  -15.5297   16.3140  -23.8020 Cl  0  0  0  0  0  0  0  0  0  0  0  0
  -16.7061   14.2459  -25.0785 C   0  0  0  0  0  0  0  0  0  0  0  0
  -17.3706   10.1028  -18.4883 N   0  0  0  0  0  0  0  0  0  0  0  0
  -16.5383    9.4542  -18.3819 H   0  0  0  0  0  0  0  0  0  0  0  0
  -18.4737   10.0553  -17.6472 C   0  0  0  0  0  0  0  0  0  0  0  0
  -18.6835    8.8275  -16.9826 C   0  0  0  0  0  0  0  0  0  0  0  0
  -19.7431    8.6298  -16.1310 C   0  0  0  0  0  0  0  0  0  0  0  0
  -20.6414    9.6370  -15.8996 C   0  0  0  0  0  0  0  0  0  0  0  0
  -20.4900   10.8571  -16.5186 C   0  0  0  0  0  0  0  0  0  0  0  0
  -19.3963   11.0246  -17.3825 C   0  0  0  0  0  0  0  0  0  0  0  0
  -21.7155    9.4347  -15.0215 N   0  0  0  0  0  0  0  0  0  0  0  0
  -21.6286    8.5530  -13.8556 C   0  0  0  0  0  0  0  0  0  0  0  0
  -22.6447    7.4631  -14.0855 C   0  0  0  0  0  0  0  0  0  0  0  0
  -23.8933    8.0713  -14.2091 O   0  0  0  0  0  0  0  0  0  0  0  0
  -23.9939    8.8825  -15.3380 C   0  0  0  0  0  0  0  0  0  0  0  0
  -23.0338   10.0367  -15.1432 C   0  0  0  0  0  0  0  0  0  0  0  0
 10 11  1  0  0  0
 11 12  2  0  0  0
 12 13  1  0  0  0
 13 14  2  0  0  0
 14 15  1  0  0  0
 15 16  1  0  0  0
 15 17  2  0  0  0
 17  6  1  0  0  0
  6  7  1  0  0  0
  7  8  2  0  0  0
  7  1  1  0  0  0
  1  2  2  0  0  0
  2  3  1  0  0  0
  3  4  2  0  0  0
  4 18  1  0  0  0
 18 20  1  0  0  0
 20 21  2  0  0  0
 21 22  1  0  0  0
 22 23  2  0  0  0
 23 24  1  0  0  0
 24 25  2  0  0  0
 23 26  1  0  0  0
 26 27  1  0  0  0
 27 28  1  0  0  0
 28 29  1  0  0  0
 29 30  1  0  0  0
 30 31  1  0  0  0
  4  5  1  0  0  0
 17 11  1  0  0  0
  5  1  1  0  0  0
 25 20  1  0  0  0
 31 26  1  0  0  0
  6  9  1  0  0  0
 18 19  1  0  0  0
M  END
> <minimizedAffinity>
-9.62072

> <CNNscore>
0.8537811637

> <CNNaffinity>
7.1415352821

> <CNN_VS>
6.0973081589

> <CNNaffinity_variance>
0.1101424098

$$$$
[H]c1nc(N([H])c2c([H])c([H])c(N3C([H])([H])C([H])([H])OC([H])([H])C3([H])[H])c([H])c2[H])sc1C(=O)N([H])c1c(Cl)c([H])c([H])c([H])c1C([H])([H])[H]


 31 34  0  0  0  0  0  0  0  0999 V2000
  -17.0594   12.5146  -21.6884 C   0  0  0  0  0  0  0  0  0  0  0  0
  -16.7321   11.3656  -21.0115 C   0  0  0  0  0  0  0  0  0  0  0  0
  -17.2721   11.1892  -19.8529 N   0  0  0  0  0  0  0  0  0  0  0  0
  -18.0949   12.0497  -19.3280 C   0  0  0  0  0  0  0  0  0  0  0  0
  -18.1297   13.2560  -20.5901 S   0  0  0  0  0  0  0  0  0  0  0  0
  -17.1695   14.0126  -23.7025 N   0  0  0  0  0  0  0  0  0  0  0  0
  -16.5685   12.9266  -23.0065 C   0  0  0  0  0  0  0  0  0  0  0  0
  -15.6074   12.3393  -23.5631 O   0  0  0  0  0  0  0  0  0  0  0  0
  -17.9662   14.5219  -23.2668 H   0  0  0  0  0  0  0  0  0  0  0  0
  -15.6346   16.3304  -23.8499 C   0  0  0  0  0  0  0  0  0  0  0  0
  -15.9519   15.5939  -25.0790 C   0  0  0  0  0  0  0  0  0  0  0  0
  -15.4794   16.0725  -26.2700 C   0  0  0  0  0  0  0  0  0  0  0  0
  -15.7639   15.3911  -27.4319 C   0  0  0  0  0  0  0  0  0  0  0  0
  -16.5327   14.2255  -27.3430 C   0  0  0  0  0  0  0  0  0  0  0  0
  -17.0020   13.7547  -26.1387 C   0  0  0  0  0  0  0  0  0  0  0  0
  -17.9535   12.3000  -26.0877 Cl  0  0  0  0  0  0  0  0  0  0  0  0
  -16.7198   14.4317  -24.9813 C   0  0  0  0  0  0  0  0  0  0  0  0
  -18.8167   12.1094  -18.0948 N   0  0  0  0  0  0  0  0  0  0  0  0
  -19.0034   13.0936  -17.7466 H   0  0  0  0  0  0  0  0  0  0  0  0
  -19.2348   10.9770  -17.4097 C   0  0  0  0  0  0  0  0  0  0  0  0
  -20.3838   11.1384  -16.6053 C   0  0  0  0  0  0  0  0  0  0  0  0
  -20.9035   10.1086  -15.8593 C   0  0  0  0  0  0  0  0  0  0  0  0
  -20.3099    8.8747  -15.8758 C   0  0  0  0  0  0  0  0  0  0  0  0
  -19.1868    8.6556  -16.6408 C   0  0  0  0  0  0  0  0  0  0  0  0
  -18.6825    9.7298  -17.3906 C   0  0  0  0  0  0  0  0  0  0  0  0
  -20.8497    7.8235  -15.1213 N   0  0  0  0  0  0  0  0  0  0  0  0
  -20.1458    7.2212  -13.9874 C   0  0  0  0  0  0  0  0  0  0  0  0
  -19.9173    5.7787  -14.3622 C   0  0  0  0  0  0  0  0  0  0  0  0
  -21.1655    5.2006  -14.5902 O   0  0  0  0  0  0  0  0  0  0  0  0
  -21.8240    5.7446  -15.6914 C   0  0  0  0  0  0  0  0  0  0  0  0
  -22.1365    7.1872  -15.3548 C   0  0  0  0  0  0  0  0  0  0  0  0
 10 11  1  0  0  0
 11 12  2  0  0  0
 12 13  1  0  0  0
 13 14  2  0  0  0
 14 15  1  0  0  0
 15 16  1  0  0  0
 15 17  2  0  0  0
 17  6  1  0  0  0
  6  7  1  0  0  0
  7  8  2  0  0  0
  7  1  1  0  0  0
  1  2  2  0  0  0
  2  3  1  0  0  0
  3  4  2  0  0  0
  4 18  1  0  0  0
 18 20  1  0  0  0
 20 21  2  0  0  0
 21 22  1  0  0  0
 22 23  2  0  0  0
 23 24  1  0  0  0
 24 25  2  0  0  0
 23 26  1  0  0  0
 26 27  1  0  0  0
 27 28  1  0  0  0
 28 29  1  0  0  0
 29 30  1  0  0  0
 30 31  1  0  0  0
  4  5  1  0  0  0
 17 11  1  0  0  0
  5  1  1  0  0  0
 25 20  1  0  0  0
 31 26  1  0  0  0
  6  9  1  0  0  0
 18 19  1  0  0  0
M  END
> <minimizedAffinity>
-9.21363

> <CNNscore>
0.6538891196

> <CNNaffinity>
6.9278841019

> <CNN_VS>
4.5300679207

> <CNNaffinity_variance>
0.1838477999

$$$$
[H]c1nc(N([H])c2c([H])c([H])c(N3C([H])([H])C([H])([H])OC([H])([H])C3([H])[H])c([H])c2[H])sc1C(=O)N([H])c1c(Cl)c([H])c([H])c([H])c1C([H])([H])[H]


 31 34  0  0  0  0  0  0  0  0999 V2000
  -16.9998   12.4741  -21.9125 C   0  0  0  0  0  0  0  0  0  0  0  0
  -16.7012   11.2856  -21.2930 C   0  0  0  0  0  0  0  0  0  0  0  0
  -17.2407   11.0689  -20.1410 N   0  0  0  0  0  0  0  0  0  0  0  0
  -18.0371   11.9253  -19.5709 C   0  0  0  0  0  0  0  0  0  0  0  0
  -18.0445   13.1910  -20.7740 S   0  0  0  0  0  0  0  0  0  0  0  0
  -17.2214   13.9066  -23.9648 N   0  0  0  0  0  0  0  0  0  0  0  0
  -16.5037   12.9350  -23.2123 C   0  0  0  0  0  0  0  0  0  0  0  0
  -15.4358   12.4914  -23.7033 O   0  0  0  0  0  0  0  0  0  0  0  0
  -18.1085   14.2961  -23.5839 H   0  0  0  0  0  0  0  0  0  0  0  0
  -15.8706   16.3391  -24.0555 C   0  0  0  0  0  0  0  0  0  0  0  0
  -16.0929   15.5887  -25.2970 C   0  0  0  0  0  0  0  0  0  0  0  0
  -15.6253   16.1115  -26.4712 C   0  0  0  0  0  0  0  0  0  0  0  0
  -15.8211   15.4182  -27.6442 C   0  0  0  0  0  0  0  0  0  0  0  0
  -16.4977   14.1950  -27.5838 C   0  0  0  0  0  0  0  0  0  0  0  0
  -16.9632   13.6801  -26.3961 C   0  0  0  0  0  0  0  0  0  0  0  0
  -17.7981   12.1546  -26.3803 Cl  0  0  0  0  0  0  0  0  0  0  0  0
  -16.7691   14.3690  -25.2276 C   0  0  0  0  0  0  0  0  0  0  0  0
  -18.7515   11.9458  -18.3321 N   0  0  0  0  0  0  0  0  0  0  0  0
  -18.7753   11.0132  -17.8276 H   0  0  0  0  0  0  0  0  0  0  0  0
  -19.3642   13.0869  -17.8333 C   0  0  0  0  0  0  0  0  0  0  0  0
  -18.5024   14.0324  -17.2361 C   0  0  0  0  0  0  0  0  0  0  0  0
  -18.9695   15.2017  -16.6868 C   0  0  0  0  0  0  0  0  0  0  0  0
  -20.3086   15.4870  -16.7037 C   0  0  0  0  0  0  0  0  0  0  0  0
  -21.1987   14.6040  -17.2718 C   0  0  0  0  0  0  0  0  0  0  0  0
  -20.6873   13.4190  -17.8237 C   0  0  0  0  0  0  0  0  0  0  0  0
  -20.7801   16.6863  -16.1514 N   0  0  0  0  0  0  0  0  0  0  0  0
  -19.9172   17.8486  -15.9312 C   0  0  0  0  0  0  0  0  0  0  0  0
  -19.9191   18.0881  -14.4426 C   0  0  0  0  0  0  0  0  0  0  0  0
  -21.2389   18.3158  -14.0548 O   0  0  0  0  0  0  0  0  0  0  0  0
  -22.0567   17.2005  -14.2274 C   0  0  0  0  0  0  0  0  0  0  0  0
  -22.1445   16.9394  -15.7161 C   0  0  0  0  0  0  0  0  0  0  0  0
 10 11  1  0  0  0
 11 12  2  0  0  0
 12 13  1  0  0  0
 13 14  2  0  0  0
 14 15  1  0  0  0
 15 16  1  0  0  0
 15 17  2  0  0  0
 17  6  1  0  0  0
  6  7  1  0  0  0
  7  8  2  0  0  0
  7  1  1  0  0  0
  1  2  2  0  0  0
  2  3  1  0  0  0
  3  4  2  0  0  0
  4 18  1  0  0  0
 18 20  1  0  0  0
 20 21  2  0  0  0
 21 22  1  0  0  0
 22 23  2  0  0  0
 23 24  1  0  0  0
 24 25  2  0  0  0
 23 26  1  0  0  0
 26 27  1  0  0  0
 27 28  1  0  0  0
 28 29  1  0  0  0
 29 30  1  0  0  0
 30 31  1  0  0  0
  4  5  1  0  0  0
 17 11  1  0  0  0
  5  1  1  0  0  0
 25 20  1  0  0  0
 31 26  1  0  0  0
  6  9  1  0  0  0
 18 19  1  0  0  0
M  END
> <minimizedAffinity>
-8.43291

> <CNNscore>
0.5227234364

> <CNNaffinity>
6.8987855911

> <CNN_VS>
3.6061568260

> <CNNaffinity_variance>
0.3072776794

$$$$
[H]c1nc(N([H])c2c([H])c([H])c(N3C([H])([H])C([H])([H])OC([H])([H])C3([H])[H])c([H])c2[H])sc1C(=O)N([H])c1c(Cl)c([H])c([H])c([H])c1C([H])([H])[H]


 31 34  0  0  0  0  0  0  0  0999 V2000
  -17.6870   12.8908  -21.1565 C   0  0  0  0  0  0  0  0  0  0  0  0
  -17.2472   11.9518  -20.2564 C   0  0  0  0  0  0  0  0  0  0  0  0
  -17.9588   11.7734  -19.1948 N   0  0  0  0  0  0  0  0  0  0  0  0
  -19.0506   12.4430  -18.9656 C   0  0  0  0  0  0  0  0  0  0  0  0
  -19.1047   13.4468  -20.3935 S   0  0  0  0  0  0  0  0  0  0  0  0
  -17.5987   14.2790  -23.2489 N   0  0  0  0  0  0  0  0  0  0  0  0
  -17.0441   13.2641  -22.4197 C   0  0  0  0  0  0  0  0  0  0  0  0
  -15.9894   12.7049  -22.8109 O   0  0  0  0  0  0  0  0  0  0  0  0
  -18.4707   14.7636  -22.9513 H   0  0  0  0  0  0  0  0  0  0  0  0
  -16.0373   16.5835  -23.2839 C   0  0  0  0  0  0  0  0  0  0  0  0
  -16.2183   15.8139  -24.5204 C   0  0  0  0  0  0  0  0  0  0  0  0
  -15.6089   16.2557  -25.6623 C   0  0  0  0  0  0  0  0  0  0  0  0
  -15.7644   15.5430  -26.8297 C   0  0  0  0  0  0  0  0  0  0  0  0
  -16.5482   14.3844  -26.7971 C   0  0  0  0  0  0  0  0  0  0  0  0
  -17.1561   13.9506  -25.6418 C   0  0  0  0  0  0  0  0  0  0  0  0
  -18.1195   12.5031  -25.6596 Cl  0  0  0  0  0  0  0  0  0  0  0  0
  -17.0022   14.6590  -24.4789 C   0  0  0  0  0  0  0  0  0  0  0  0
  -20.0056   12.4519  -17.9011 N   0  0  0  0  0  0  0  0  0  0  0  0
  -20.7998   13.1420  -18.0342 H   0  0  0  0  0  0  0  0  0  0  0  0
  -19.9014   11.6306  -16.7871 C   0  0  0  0  0  0  0  0  0  0  0  0
  -19.6500   10.2672  -17.0540 C   0  0  0  0  0  0  0  0  0  0  0  0
  -19.5371    9.3354  -16.0509 C   0  0  0  0  0  0  0  0  0  0  0  0
  -19.6680    9.7108  -14.7406 C   0  0  0  0  0  0  0  0  0  0  0  0
  -19.9139   11.0259  -14.4172 C   0  0  0  0  0  0  0  0  0  0  0  0
  -20.0235   11.9514  -15.4669 C   0  0  0  0  0  0  0  0  0  0  0  0
  -19.5415    8.7586  -13.7193 N   0  0  0  0  0  0  0  0  0  0  0  0
  -19.8793    7.3464  -13.9084 C   0  0  0  0  0  0  0  0  0  0  0  0
  -21.0067    7.0595  -12.9492 C   0  0  0  0  0  0  0  0  0  0  0  0
  -20.5450    7.3355  -11.6628 O   0  0  0  0  0  0  0  0  0  0  0  0
  -20.2574    8.6849  -11.4658 C   0  0  0  0  0  0  0  0  0  0  0  0
  -19.0872    9.0260  -12.3638 C   0  0  0  0  0  0  0  0  0  0  0  0
 10 11  1  0  0  0
 11 12  2  0  0  0
 12 13  1  0  0  0
 13 14  2  0  0  0
 14 15  1  0  0  0
 15 16  1  0  0  0
 15 17  2  0  0  0
 17  6  1  0  0  0
  6  7  1  0  0  0
  7  8  2  0  0  0
  7  1  1  0  0  0
  1  2  2  0  0  0
  2  3  1  0  0  0
  3  4  2  0  0  0
  4 18  1  0  0  0
 18 20  1  0  0  0
 20 21  2  0  0  0
 21 22  1  0  0  0
 22 23  2  0  0  0
 23 24  1  0  0  0
 24 25  2  0  0  0
 23 26  1  0  0  0
 26 27  1  0  0  0
 27 28  1  0  0  0
 28 29  1  0  0  0
 29 30  1  0  0  0
 30 31  1  0  0  0
  4  5  1  0  0  0
 17 11  1  0  0  0
  5  1  1  0  0  0
 25 20  1  0  0  0
 31 26  1  0  0  0
  6  9  1  0  0  0
 18 19  1  0  0  0
M  END
> <minimizedAffinity>
-8.07975

> <CNNscore>
0.5022795796

> <CNNaffinity>
6.6507506371

> <CNN_VS>
3.3405361176

> <CNNaffinity_variance>
0.1537972689

$$$$
[H]c1nc(N([H])c2c([H])c([H])c(N3C([H])([H])C([H])([H])OC([H])([H])C3([H])[H])c([H])c2[H])sc1C(=O)N([H])c1c(Cl)c([H])c([H])c([H])c1C([H])([H])[H]


 31 34  0  0  0  0  0  0  0  0999 V2000
  -17.0249   12.5693  -21.7341 C   0  0  0  0  0  0  0  0  0  0  0  0
  -16.8828   11.3193  -21.1839 C   0  0  0  0  0  0  0  0  0  0  0  0
  -17.4020   11.1249  -20.0187 N   0  0  0  0  0  0  0  0  0  0  0  0
  -18.0380   12.0587  -19.3734 C   0  0  0  0  0  0  0  0  0  0  0  0
  -17.9043   13.3723  -20.5162 S   0  0  0  0  0  0  0  0  0  0  0  0
  -17.2649   13.9283  -23.8337 N   0  0  0  0  0  0  0  0  0  0  0  0
  -16.5179   13.0188  -23.0338 C   0  0  0  0  0  0  0  0  0  0  0  0
  -15.4147   12.6194  -23.4829 O   0  0  0  0  0  0  0  0  0  0  0  0
  -18.1818   14.2802  -23.4882 H   0  0  0  0  0  0  0  0  0  0  0  0
  -17.8838   12.3913  -26.0708 C   0  0  0  0  0  0  0  0  0  0  0  0
  -17.0982   13.6203  -26.2327 C   0  0  0  0  0  0  0  0  0  0  0  0
  -16.6907   13.9767  -27.4887 C   0  0  0  0  0  0  0  0  0  0  0  0
  -15.9571   15.1291  -27.6588 C   0  0  0  0  0  0  0  0  0  0  0  0
  -15.6567   15.8944  -26.5267 C   0  0  0  0  0  0  0  0  0  0  0  0
  -16.0726   15.5248  -25.2686 C   0  0  0  0  0  0  0  0  0  0  0  0
  -15.6699   16.5145  -23.8966 Cl  0  0  0  0  0  0  0  0  0  0  0  0
  -16.8028   14.3780  -25.0976 C   0  0  0  0  0  0  0  0  0  0  0  0
  -18.6911   12.1199  -18.1025 N   0  0  0  0  0  0  0  0  0  0  0  0
  -18.8045   13.1016  -17.7179 H   0  0  0  0  0  0  0  0  0  0  0  0
  -19.1362   10.9915  -17.4279 C   0  0  0  0  0  0  0  0  0  0  0  0
  -20.2929   11.1678  -16.6379 C   0  0  0  0  0  0  0  0  0  0  0  0
  -20.8386   10.1434  -15.9031 C   0  0  0  0  0  0  0  0  0  0  0  0
  -20.2646    8.9003  -15.9172 C   0  0  0  0  0  0  0  0  0  0  0  0
  -19.1351    8.6665  -16.6684 C   0  0  0  0  0  0  0  0  0  0  0  0
  -18.6040    9.7356  -17.4070 C   0  0  0  0  0  0  0  0  0  0  0  0
  -20.8308    7.8548  -15.1744 N   0  0  0  0  0  0  0  0  0  0  0  0
  -20.1610    7.2514  -14.0204 C   0  0  0  0  0  0  0  0  0  0  0  0
  -19.9318    5.8064  -14.3850 C   0  0  0  0  0  0  0  0  0  0  0  0
  -21.1772    5.2355  -14.6445 O   0  0  0  0  0  0  0  0  0  0  0  0
  -21.8028    5.7803  -15.7643 C   0  0  0  0  0  0  0  0  0  0  0  0
  -22.1149    7.2258  -15.4402 C   0  0  0  0  0  0  0  0  0  0  0  0
 10 11  1  0  0  0
 11 12  2  0  0  0
 12 13  1  0  0  0
 13 14  2  0  0  0
 14 15  1  0  0  0
 15 16  1  0  0  0
 15 17  2  0  0  0
 17  6  1  0  0  0
  6  7  1  0  0  0
  7  8  2  0  0  0
  7  1  1  0  0  0
  1  2  2  0  0  0
  2  3  1  0  0  0
  3  4  2  0  0  0
  4 18  1  0  0  0
 18 20  1  0  0  0
 20 21  2  0  0  0
 21 22  1  0  0  0
 22 23  2  0  0  0
 23 24  1  0  0  0
 24 25  2  0  0  0
 23 26  1  0  0  0
 26 27  1  0  0  0
 27 28  1  0  0  0
 28 29  1  0  0  0
 29 30  1  0  0  0
 30 31  1  0  0  0
  4  5  1  0  0  0
 17 11  1  0  0  0
  5  1  1  0  0  0
 25 20  1  0  0  0
 31 26  1  0  0  0
  6  9  1  0  0  0
 18 19  1  0  0  0
M  END
> <minimizedAffinity>
-9.29764

> <CNNscore>
0.5002314448

> <CNNaffinity>
6.7499976158

> <CNN_VS>
3.3765611649

> <CNNaffinity_variance>
0.1579361260

$$$$
[H]c1nc(N([H])c2c([H])c([H])c(N3C([H])([H])C([H])([H])OC([H])([H])C3([H])[H])c([H])c2[H])sc1C(=O)N([H])c1c(Cl)c([H])c([H])c([H])c1C([H])([H])[H]


 31 34  0  0  0  0  0  0  0  0999 V2000
  -16.9252   12.4590  -21.8948 C   0  0  0  0  0  0  0  0  0  0  0  0
  -16.6126   11.2654  -21.2922 C   0  0  0  0  0  0  0  0  0  0  0  0
  -17.1511   11.0250  -20.1445 N   0  0  0  0  0  0  0  0  0  0  0  0
  -17.9592   11.8629  -19.5633 C   0  0  0  0  0  0  0  0  0  0  0  0
  -17.9806   13.1459  -20.7477 S   0  0  0  0  0  0  0  0  0  0  0  0
  -17.2013   13.8557  -23.9650 N   0  0  0  0  0  0  0  0  0  0  0  0
  -16.4328   12.9452  -23.1868 C   0  0  0  0  0  0  0  0  0  0  0  0
  -15.3238   12.5773  -23.6483 O   0  0  0  0  0  0  0  0  0  0  0  0
  -18.1235   14.1820  -23.6089 H   0  0  0  0  0  0  0  0  0  0  0  0
  -17.8051   12.3564  -26.2316 C   0  0  0  0  0  0  0  0  0  0  0  0
  -17.0418   13.6021  -26.3709 C   0  0  0  0  0  0  0  0  0  0  0  0
  -16.6471   13.9924  -27.6209 C   0  0  0  0  0  0  0  0  0  0  0  0
  -15.9345   15.1608  -27.7698 C   0  0  0  0  0  0  0  0  0  0  0  0
  -15.6415   15.9068  -26.6229 C   0  0  0  0  0  0  0  0  0  0  0  0
  -16.0443   15.5031  -25.3710 C   0  0  0  0  0  0  0  0  0  0  0  0
  -15.6518   16.4701  -23.9800 Cl  0  0  0  0  0  0  0  0  0  0  0  0
  -16.7537   14.3403  -25.2211 C   0  0  0  0  0  0  0  0  0  0  0  0
  -18.6757   11.8561  -18.3256 N   0  0  0  0  0  0  0  0  0  0  0  0
  -18.6753   10.9200  -17.8272 H   0  0  0  0  0  0  0  0  0  0  0  0
  -19.3196   12.9772  -17.8205 C   0  0  0  0  0  0  0  0  0  0  0  0
  -18.4794   13.9667  -17.2655 C   0  0  0  0  0  0  0  0  0  0  0  0
  -18.9774   15.1228  -16.7153 C   0  0  0  0  0  0  0  0  0  0  0  0
  -20.3273   15.3507  -16.6896 C   0  0  0  0  0  0  0  0  0  0  0  0
  -21.1974   14.4228  -17.2154 C   0  0  0  0  0  0  0  0  0  0  0  0
  -20.6546   13.2529  -17.7696 C   0  0  0  0  0  0  0  0  0  0  0  0
  -20.8308   16.5367  -16.1367 N   0  0  0  0  0  0  0  0  0  0  0  0
  -19.9965   17.7173  -15.9039 C   0  0  0  0  0  0  0  0  0  0  0  0
  -20.0171   17.9503  -14.4144 C   0  0  0  0  0  0  0  0  0  0  0  0
  -21.3453   18.1463  -14.0376 O   0  0  0  0  0  0  0  0  0  0  0  0
  -22.1359   17.0135  -14.2222 C   0  0  0  0  0  0  0  0  0  0  0  0
  -22.2045   16.7569  -15.7126 C   0  0  0  0  0  0  0  0  0  0  0  0
 10 11  1  0  0  0
 11 12  2  0  0  0
 12 13  1  0  0  0
 13 14  2  0  0  0
 14 15  1  0  0  0
 15 16  1  0  0  0
 15 17  2  0  0  0
 17  6  1  0  0  0
  6  7  1  0  0  0
  7  8  2  0  0  0
  7  1  1  0  0  0
  1  2  2  0  0  0
  2  3  1  0  0  0
  3  4  2  0  0  0
  4 18  1  0  0  0
 18 20  1  0  0  0
 20 21  2  0  0  0
 21 22  1  0  0  0
 22 23  2  0  0  0
 23 24  1  0  0  0
 24 25  2  0  0  0
 23 26  1  0  0  0
 26 27  1  0  0  0
 27 28  1  0  0  0
 28 29  1  0  0  0
 29 30  1  0  0  0
 30 31  1  0  0  0
  4  5  1  0  0  0
 17 11  1  0  0  0
  5  1  1  0  0  0
 25 20  1  0  0  0
 31 26  1  0  0  0
  6  9  1  0  0  0
 18 19  1  0  0  0
M  END
> <minimizedAffinity>
-8.61606

> <CNNscore>
0.4544898570

> <CNNaffinity>
6.8500428200

> <CNN_VS>
3.1132750511

> <CNNaffinity_variance>
0.3406562507

$$$$
[H]c1nc(N([H])c2c([H])c([H])c(N3C([H])([H])C([H])([H])OC([H])([H])C3([H])[H])c([H])c2[H])sc1C(=O)N([H])c1c(Cl)c([H])c([H])c([H])c1C([H])([H])[H]


 31 34  0  0  0  0  0  0  0  0999 V2000
  -19.8347   10.3749  -16.5720 C   0  0  0  0  0  0  0  0  0  0  0  0
  -19.4995   11.5170  -17.2566 C   0  0  0  0  0  0  0  0  0  0  0  0
  -18.5572   11.4243  -18.1334 N   0  0  0  0  0  0  0  0  0  0  0  0
  -17.9369   10.3065  -18.3758 C   0  0  0  0  0  0  0  0  0  0  0  0
  -18.7547    9.2477  -17.2535 S   0  0  0  0  0  0  0  0  0  0  0  0
  -22.1665   10.7786  -15.7278 N   0  0  0  0  0  0  0  0  0  0  0  0
  -20.8622   10.2431  -15.5351 C   0  0  0  0  0  0  0  0  0  0  0  0
  -20.6283    9.6572  -14.4487 O   0  0  0  0  0  0  0  0  0  0  0  0
  -22.3929   11.2673  -16.6187 H   0  0  0  0  0  0  0  0  0  0  0  0
  -23.9252    8.6271  -15.8950 C   0  0  0  0  0  0  0  0  0  0  0  0
  -24.0763    9.6018  -14.8082 C   0  0  0  0  0  0  0  0  0  0  0  0
  -25.0851    9.4219  -13.9023 C   0  0  0  0  0  0  0  0  0  0  0  0
  -25.2379   10.3242  -12.8740 C   0  0  0  0  0  0  0  0  0  0  0  0
  -24.3445   11.3984  -12.7993 C   0  0  0  0  0  0  0  0  0  0  0  0
  -23.3339   11.5682  -13.7170 C   0  0  0  0  0  0  0  0  0  0  0  0
  -22.2524   12.9225  -13.5754 Cl  0  0  0  0  0  0  0  0  0  0  0  0
  -23.1805   10.6709  -14.7413 C   0  0  0  0  0  0  0  0  0  0  0  0
  -16.8822    9.9281  -19.2646 N   0  0  0  0  0  0  0  0  0  0  0  0
  -16.3596    9.0528  -18.9726 H   0  0  0  0  0  0  0  0  0  0  0  0
  -16.5667   10.6459  -20.4099 C   0  0  0  0  0  0  0  0  0  0  0  0
  -17.5080   11.6244  -20.7970 C   0  0  0  0  0  0  0  0  0  0  0  0
  -17.3358   12.4006  -21.9173 C   0  0  0  0  0  0  0  0  0  0  0  0
  -16.2258   12.2432  -22.7035 C   0  0  0  0  0  0  0  0  0  0  0  0
  -15.2724   11.3054  -22.3777 C   0  0  0  0  0  0  0  0  0  0  0  0
  -15.4803   10.5295  -21.2265 C   0  0  0  0  0  0  0  0  0  0  0  0
  -16.0486   13.0447  -23.8401 N   0  0  0  0  0  0  0  0  0  0  0  0
  -14.8554   13.8673  -24.0495 C   0  0  0  0  0  0  0  0  0  0  0  0
  -15.3404   15.2942  -24.0957 C   0  0  0  0  0  0  0  0  0  0  0  0
  -16.2545   15.3940  -25.1439 O   0  0  0  0  0  0  0  0  0  0  0  0
  -17.4089   14.6423  -24.9326 C   0  0  0  0  0  0  0  0  0  0  0  0
  -16.9973   13.1854  -24.9334 C   0  0  0  0  0  0  0  0  0  0  0  0
 10 11  1  0  0  0
 11 12  2  0  0  0
 12 13  1  0  0  0
 13 14  2  0  0  0
 14 15  1  0  0  0
 15 16  1  0  0  0
 15 17  2  0  0  0
 17  6  1  0  0  0
  6  7  1  0  0  0
  7  8  2  0  0  0
  7  1  1  0  0  0
  1  2  2  0  0  0
  2  3  1  0  0  0
  3  4  2  0  0  0
  4 18  1  0  0  0
 18 20  1  0  0  0
 20 21  2  0  0  0
 21 22  1  0  0  0
 22 23  2  0  0  0
 23 24  1  0  0  0
 24 25  2  0  0  0
 23 26  1  0  0  0
 26 27  1  0  0  0
 27 28  1  0  0  0
 28 29  1  0  0  0
 29 30  1  0  0  0
 30 31  1  0  0  0
  4  5  1  0  0  0
 17 11  1  0  0  0
  5  1  1  0  0  0
 25 20  1  0  0  0
 31 26  1  0  0  0
  6  9  1  0  0  0
 18 19  1  0  0  0
M  END
> <minimizedAffinity>
-8.05207

> <CNNscore>
0.3068488538

> <CNNaffinity>
6.1410269737

> <CNN_VS>
1.8843671083

> <CNNaffinity_variance>
0.0364734456

$$$$
[H]c1nc2c(nc([H])c(=O)n2[H])c(Oc2c([H])c([H])c(N([H])C(=O)N([H])c3c([H])c(C(C([H])([H])[H])(C([H])([H])[H])C([H])([H])[H])nn3-c3c([H])c([H])c([H])c([H])c3[H])c3c([H])c([H])c([H])c([H])c23)c1[H]


 44 49  0  0  0  0  0  0  0  0999 V2000
  -19.0713   15.2322  -17.1163 C   0  0  0  0  0  0  0  0  0  0  0  0
  -18.8622   13.8892  -16.9306 C   0  0  0  0  0  0  0  0  0  0  0  0
  -18.8088   12.9874  -18.0005 C   0  0  0  0  0  0  0  0  0  0  0  0
  -18.9620   13.3908  -19.3016 C   0  0  0  0  0  0  0  0  0  0  0  0
  -19.1770   14.7352  -19.5017 C   0  0  0  0  0  0  0  0  0  0  0  0
  -19.3715   15.1810  -20.7787 C   0  0  0  0  0  0  0  0  0  0  0  0
  -19.6156   16.5081  -21.0654 C   0  0  0  0  0  0  0  0  0  0  0  0
  -19.6652   17.3901  -20.0473 C   0  0  0  0  0  0  0  0  0  0  0  0
  -19.4753   16.9867  -18.7131 C   0  0  0  0  0  0  0  0  0  0  0  0
  -19.2347   15.6619  -18.4507 C   0  0  0  0  0  0  0  0  0  0  0  0
  -20.3023   17.6949  -14.5264 N   0  0  0  0  0  0  0  0  0  0  0  0
  -20.3602   16.7041  -15.5666 C   0  0  0  0  0  0  0  0  0  0  0  0
  -21.4951   16.3576  -15.9167 O   0  0  0  0  0  0  0  0  0  0  0  0
  -19.1323   16.2023  -16.1056 N   0  0  0  0  0  0  0  0  0  0  0  0
  -19.3241   17.9949  -14.2255 H   0  0  0  0  0  0  0  0  0  0  0  0
  -18.2611   16.6296  -15.6806 H   0  0  0  0  0  0  0  0  0  0  0  0
  -23.1826   18.7200  -12.6567 C   0  0  0  0  0  0  0  0  0  0  0  0
  -22.1330   17.8256  -12.8389 C   0  0  0  0  0  0  0  0  0  0  0  0
  -21.4435   18.2393  -13.9322 C   0  0  0  0  0  0  0  0  0  0  0  0
  -22.0556   19.3688  -14.4169 N   0  0  0  0  0  0  0  0  0  0  0  0
  -23.0658   19.6120  -13.6410 N   0  0  0  0  0  0  0  0  0  0  0  0
  -21.6407   20.1210  -15.5641 C   0  0  0  0  0  0  0  0  0  0  0  0
  -20.8572   21.2159  -15.4030 C   0  0  0  0  0  0  0  0  0  0  0  0
  -20.4489   21.9448  -16.5009 C   0  0  0  0  0  0  0  0  0  0  0  0
  -20.8352   21.5668  -17.7915 C   0  0  0  0  0  0  0  0  0  0  0  0
  -21.6314   20.4548  -17.9610 C   0  0  0  0  0  0  0  0  0  0  0  0
  -22.0260   19.7431  -16.8428 C   0  0  0  0  0  0  0  0  0  0  0  0
  -24.7334   20.0282  -11.2741 C   0  0  0  0  0  0  0  0  0  0  0  0
  -24.1994   18.6440  -11.5659 C   0  0  0  0  0  0  0  0  0  0  0  0
  -23.6474   18.0411  -10.3060 C   0  0  0  0  0  0  0  0  0  0  0  0
  -25.3902   17.8185  -12.0519 C   0  0  0  0  0  0  0  0  0  0  0  0
  -18.8947   12.4531  -20.3138 O   0  0  0  0  0  0  0  0  0  0  0  0
  -17.7321   11.7962  -20.6967 C   0  0  0  0  0  0  0  0  0  0  0  0
  -17.2506   10.6757  -20.0432 C   0  0  0  0  0  0  0  0  0  0  0  0
  -16.0892   10.1085  -20.5061 C   0  0  0  0  0  0  0  0  0  0  0  0
  -15.4230   10.6009  -21.5530 N   0  0  0  0  0  0  0  0  0  0  0  0
  -15.8504   11.6847  -22.2187 C   0  0  0  0  0  0  0  0  0  0  0  0
  -15.1416   12.1537  -23.2755 N   0  0  0  0  0  0  0  0  0  0  0  0
  -15.5695   13.2342  -23.9324 C   0  0  0  0  0  0  0  0  0  0  0  0
  -14.9032   13.6712  -24.9218 O   0  0  0  0  0  0  0  0  0  0  0  0
  -16.7274   13.8564  -23.5246 C   0  0  0  0  0  0  0  0  0  0  0  0
  -17.4181   13.3706  -22.4678 N   0  0  0  0  0  0  0  0  0  0  0  0
  -17.0192   12.2807  -21.7769 C   0  0  0  0  0  0  0  0  0  0  0  0
  -14.2748   11.6385  -23.5350 H   0  0  0  0  0  0  0  0  0  0  0  0
 28 29  1  0  0  0
 29 30  1  0  0  0
 29 31  1  0  0  0
 29 17  1  0  0  0
 17 18  1  0  0  0
 18 19  2  0  0  0
 19 11  1  0  0  0
 11 12  1  0  0  0
 12 13  2  0  0  0
 12 14  1  0  0  0
 14  1  1  0  0  0
  1  2  2  0  0  0
  2  3  1  0  0  0
  3  4  2  0  0  0
  4 32  1  0  0  0
 32 33  1  0  0  0
 33 34  2  0  0  0
 34 35  1  0  0  0
 35 36  2  0  0  0
 36 37  1  0  0  0
 37 38  1  0  0  0
 38 39  1  0  0  0
 39 40  2  0  0  0
 39 41  1  0  0  0
 41 42  2  0  0  0
 42 43  1  0  0  0
  4  5  1  0  0  0
  5  6  2  0  0  0
  6  7  1  0  0  0
  7  8  2  0  0  0
  8  9  1  0  0  0
  9 10  2  0  0  0
 19 20  1  0  0  0
 20 21  1  0  0  0
 20 22  1  0  0  0
 22 23  2  0  0  0
 23 24  1  0  0  0
 24 25  2  0  0  0
 25 26  1  0  0  0
 26 27  2  0  0  0
 21 17  2  0  0  0
 27 22  1  0  0  0
 10  1  1  0  0  0
 43 33  1  0  0  0
 10  5  1  0  0  0
 43 37  2  0  0  0
 11 15  1  0  0  0
 14 16  1  0  0  0
 38 44  1  0  0  0
M  END
> <minimizedAffinity>
-8.19497

> <CNNscore>
0.1782507002

> <CNNaffinity>
7.0956420898

> <CNN_VS>
1.2648031712

> <CNNaffinity_variance>
0.0501005948

$$$$
[H]c1nc2c(nc([H])c(=O)n2[H])c(Oc2c([H])c([H])c(N([H])C(=O)N([H])c3c([H])c(C(C([H])([H])[H])(C([H])([H])[H])C([H])([H])[H])nn3-c3c([H])c([H])c([H])c([H])c3[H])c3c([H])c([H])c([H])c([H])c23)c1[H]


 44 49  0  0  0  0  0  0  0  0999 V2000
  -18.3215   12.0912  -18.3122 C   0  0  0  0  0  0  0  0  0  0  0  0
  -17.3273   11.7465  -19.1923 C   0  0  0  0  0  0  0  0  0  0  0  0
  -17.2496   12.2900  -20.4805 C   0  0  0  0  0  0  0  0  0  0  0  0
  -18.1630   13.2017  -20.9427 C   0  0  0  0  0  0  0  0  0  0  0  0
  -19.1684   13.5529  -20.0714 C   0  0  0  0  0  0  0  0  0  0  0  0
  -20.1238   14.4313  -20.4987 C   0  0  0  0  0  0  0  0  0  0  0  0
  -21.1779   14.8189  -19.6977 C   0  0  0  0  0  0  0  0  0  0  0  0
  -21.2646   14.3089  -18.4530 C   0  0  0  0  0  0  0  0  0  0  0  0
  -20.3112   13.3986  -17.9617 C   0  0  0  0  0  0  0  0  0  0  0  0
  -19.2716   13.0262  -18.7757 C   0  0  0  0  0  0  0  0  0  0  0  0
  -19.3974   10.0867  -15.2935 N   0  0  0  0  0  0  0  0  0  0  0  0
  -19.3291   10.5084  -16.6663 C   0  0  0  0  0  0  0  0  0  0  0  0
  -20.0352    9.8738  -17.4596 O   0  0  0  0  0  0  0  0  0  0  0  0
  -18.4697   11.6020  -17.0064 N   0  0  0  0  0  0  0  0  0  0  0  0
  -18.7900   10.6346  -14.6092 H   0  0  0  0  0  0  0  0  0  0  0  0
  -17.9510   12.0228  -16.1841 H   0  0  0  0  0  0  0  0  0  0  0  0
  -21.1099    7.0641  -14.4140 C   0  0  0  0  0  0  0  0  0  0  0  0
  -20.0474    7.6914  -15.0560 C   0  0  0  0  0  0  0  0  0  0  0  0
  -20.1994    9.0264  -14.8642 C   0  0  0  0  0  0  0  0  0  0  0  0
  -21.3350    9.2205  -14.1172 N   0  0  0  0  0  0  0  0  0  0  0  0
  -21.8334    8.0476  -13.8778 N   0  0  0  0  0  0  0  0  0  0  0  0
  -21.8535   10.4876  -13.6933 C   0  0  0  0  0  0  0  0  0  0  0  0
  -22.6802   11.1840  -14.5120 C   0  0  0  0  0  0  0  0  0  0  0  0
  -23.1879   12.4028  -14.1119 C   0  0  0  0  0  0  0  0  0  0  0  0
  -22.8592   12.9363  -12.8609 C   0  0  0  0  0  0  0  0  0  0  0  0
  -22.0195   12.2328  -12.0249 C   0  0  0  0  0  0  0  0  0  0  0  0
  -21.5250   11.0138  -12.4516 C   0  0  0  0  0  0  0  0  0  0  0  0
  -22.1649    5.2417  -13.1516 C   0  0  0  0  0  0  0  0  0  0  0  0
  -21.3403    5.5894  -14.3703 C   0  0  0  0  0  0  0  0  0  0  0  0
  -20.0583    4.8073  -14.3510 C   0  0  0  0  0  0  0  0  0  0  0  0
  -22.1742    5.1795  -15.5837 C   0  0  0  0  0  0  0  0  0  0  0  0
  -18.0296   13.7047  -22.2224 O   0  0  0  0  0  0  0  0  0  0  0  0
  -17.2661   14.8179  -22.5506 C   0  0  0  0  0  0  0  0  0  0  0  0
  -16.8702   15.7605  -21.6182 C   0  0  0  0  0  0  0  0  0  0  0  0
  -16.1191   16.8235  -22.0548 C   0  0  0  0  0  0  0  0  0  0  0  0
  -15.7660   16.9696  -23.3340 N   0  0  0  0  0  0  0  0  0  0  0  0
  -16.1256   16.0822  -24.2740 C   0  0  0  0  0  0  0  0  0  0  0  0
  -15.7478   16.2702  -25.5628 N   0  0  0  0  0  0  0  0  0  0  0  0
  -16.1109   15.3860  -26.4948 C   0  0  0  0  0  0  0  0  0  0  0  0
  -15.7556   15.5650  -27.7012 O   0  0  0  0  0  0  0  0  0  0  0  0
  -16.8655   14.2942  -26.1305 C   0  0  0  0  0  0  0  0  0  0  0  0
  -17.2306   14.1271  -24.8387 N   0  0  0  0  0  0  0  0  0  0  0  0
  -16.8839   14.9981  -23.8663 C   0  0  0  0  0  0  0  0  0  0  0  0
  -15.1773   17.1150  -25.7744 H   0  0  0  0  0  0  0  0  0  0  0  0
 28 29  1  0  0  0
 29 30  1  0  0  0
 29 31  1  0  0  0
 29 17  1  0  0  0
 17 18  1  0  0  0
 18 19  2  0  0  0
 19 11  1  0  0  0
 11 12  1  0  0  0
 12 13  2  0  0  0
 12 14  1  0  0  0
 14  1  1  0  0  0
  1  2  2  0  0  0
  2  3  1  0  0  0
  3  4  2  0  0  0
  4 32  1  0  0  0
 32 33  1  0  0  0
 33 34  2  0  0  0
 34 35  1  0  0  0
 35 36  2  0  0  0
 36 37  1  0  0  0
 37 38  1  0  0  0
 38 39  1  0  0  0
 39 40  2  0  0  0
 39 41  1  0  0  0
 41 42  2  0  0  0
 42 43  1  0  0  0
  4  5  1  0  0  0
  5  6  2  0  0  0
  6  7  1  0  0  0
  7  8  2  0  0  0
  8  9  1  0  0  0
  9 10  2  0  0  0
 19 20  1  0  0  0
 20 21  1  0  0  0
 20 22  1  0  0  0
 22 23  2  0  0  0
 23 24  1  0  0  0
 24 25  2  0  0  0
 25 26  1  0  0  0
 26 27  2  0  0  0
 21 17  2  0  0  0
 27 22  1  0  0  0
 10  1  1  0  0  0
 43 33  1  0  0  0
 10  5  1  0  0  0
 43 37  2  0  0  0
 11 15  1  0  0  0
 14 16  1  0  0  0
 38 44  1  0  0  0
M  END
> <minimizedAffinity>
-8.68866

> <CNNscore>
0.0601937585

> <CNNaffinity>
6.8320617676

> <CNN_VS>
0.4112474620

> <CNNaffinity_variance>
0.2897842526

$$$$
[H]c1nc2c(nc([H])c(=O)n2[H])c(Oc2c([H])c([H])c(N([H])C(=O)N([H])c3c([H])c(C(C([H])([H])[H])(C([H])([H])[H])C([H])([H])[H])nn3-c3c([H])c([H])c([H])c([H])c3[H])c3c([H])c([H])c([H])c([H])c23)c1[H]


 44 49  0  0  0  0  0  0  0  0999 V2000
  -19.0742   11.9462  -18.2040 C   0  0  0  0  0  0  0  0  0  0  0  0
  -19.7589   13.0955  -18.5076 C   0  0  0  0  0  0  0  0  0  0  0  0
  -19.5489   13.7958  -19.7019 C   0  0  0  0  0  0  0  0  0  0  0  0
  -18.6451   13.3759  -20.6432 C   0  0  0  0  0  0  0  0  0  0  0  0
  -17.9480   12.2265  -20.3491 C   0  0  0  0  0  0  0  0  0  0  0  0
  -17.0099   11.7874  -21.2402 C   0  0  0  0  0  0  0  0  0  0  0  0
  -16.2512   10.6578  -21.0129 C   0  0  0  0  0  0  0  0  0  0  0  0
  -16.4447    9.9692  -19.8704 C   0  0  0  0  0  0  0  0  0  0  0  0
  -17.3946   10.3770  -18.9162 C   0  0  0  0  0  0  0  0  0  0  0  0
  -18.1374   11.5037  -19.1623 C   0  0  0  0  0  0  0  0  0  0  0  0
  -20.4842   10.3110  -15.1014 N   0  0  0  0  0  0  0  0  0  0  0  0
  -20.4395   11.1358  -16.2781 C   0  0  0  0  0  0  0  0  0  0  0  0
  -21.4794   11.7514  -16.5433 O   0  0  0  0  0  0  0  0  0  0  0  0
  -19.2270   11.1817  -17.0384 N   0  0  0  0  0  0  0  0  0  0  0  0
  -19.5874    9.7815  -14.8717 H   0  0  0  0  0  0  0  0  0  0  0  0
  -18.4413   10.5900  -16.6448 H   0  0  0  0  0  0  0  0  0  0  0  0
  -23.6625   10.1701  -13.4518 C   0  0  0  0  0  0  0  0  0  0  0  0
  -22.9190   10.4695  -14.5886 C   0  0  0  0  0  0  0  0  0  0  0  0
  -21.6219   10.1943  -14.2990 C   0  0  0  0  0  0  0  0  0  0  0  0
  -21.5648    9.7332  -13.0069 N   0  0  0  0  0  0  0  0  0  0  0  0
  -22.7792    9.7361  -12.5520 N   0  0  0  0  0  0  0  0  0  0  0  0
  -20.3780    9.3303  -12.3119 C   0  0  0  0  0  0  0  0  0  0  0  0
  -19.7832   10.1861  -11.4445 C   0  0  0  0  0  0  0  0  0  0  0  0
  -18.6426    9.8068  -10.7675 C   0  0  0  0  0  0  0  0  0  0  0  0
  -18.0848    8.5388  -10.9645 C   0  0  0  0  0  0  0  0  0  0  0  0
  -18.6852    7.6650  -11.8449 C   0  0  0  0  0  0  0  0  0  0  0  0
  -19.8274    8.0716  -12.5102 C   0  0  0  0  0  0  0  0  0  0  0  0
  -25.5518   10.1148  -11.8848 C   0  0  0  0  0  0  0  0  0  0  0  0
  -25.1423   10.3250  -13.3250 C   0  0  0  0  0  0  0  0  0  0  0  0
  -25.8979    9.3734  -14.2077 C   0  0  0  0  0  0  0  0  0  0  0  0
  -25.5241   11.7631  -13.6740 C   0  0  0  0  0  0  0  0  0  0  0  0
  -18.4865   14.1083  -21.8037 O   0  0  0  0  0  0  0  0  0  0  0  0
  -17.5945   15.1635  -21.9480 C   0  0  0  0  0  0  0  0  0  0  0  0
  -17.4967   16.1968  -21.0331 C   0  0  0  0  0  0  0  0  0  0  0  0
  -16.5813   17.1902  -21.2777 C   0  0  0  0  0  0  0  0  0  0  0  0
  -15.7956   17.1859  -22.3571 N   0  0  0  0  0  0  0  0  0  0  0  0
  -15.8537   16.2059  -23.2717 C   0  0  0  0  0  0  0  0  0  0  0  0
  -15.0392   16.2417  -24.3554 N   0  0  0  0  0  0  0  0  0  0  0  0
  -15.1032   15.2659  -25.2641 C   0  0  0  0  0  0  0  0  0  0  0  0
  -14.3390   15.3024  -26.2783 O   0  0  0  0  0  0  0  0  0  0  0  0
  -15.9982   14.2358  -25.0851 C   0  0  0  0  0  0  0  0  0  0  0  0
  -16.8007   14.2209  -23.9963 N   0  0  0  0  0  0  0  0  0  0  0  0
  -16.7669   15.1885  -23.0544 C   0  0  0  0  0  0  0  0  0  0  0  0
  -14.3837   17.0469  -24.4333 H   0  0  0  0  0  0  0  0  0  0  0  0
 28 29  1  0  0  0
 29 30  1  0  0  0
 29 31  1  0  0  0
 29 17  1  0  0  0
 17 18  1  0  0  0
 18 19  2  0  0  0
 19 11  1  0  0  0
 11 12  1  0  0  0
 12 13  2  0  0  0
 12 14  1  0  0  0
 14  1  1  0  0  0
  1  2  2  0  0  0
  2  3  1  0  0  0
  3  4  2  0  0  0
  4 32  1  0  0  0
 32 33  1  0  0  0
 33 34  2  0  0  0
 34 35  1  0  0  0
 35 36  2  0  0  0
 36 37  1  0  0  0
 37 38  1  0  0  0
 38 39  1  0  0  0
 39 40  2  0  0  0
 39 41  1  0  0  0
 41 42  2  0  0  0
 42 43  1  0  0  0
  4  5  1  0  0  0
  5  6  2  0  0  0
  6  7  1  0  0  0
  7  8  2  0  0  0
  8  9  1  0  0  0
  9 10  2  0  0  0
 19 20  1  0  0  0
 20 21  1  0  0  0
 20 22  1  0  0  0
 22 23  2  0  0  0
 23 24  1  0  0  0
 24 25  2  0  0  0
 25 26  1  0  0  0
 26 27  2  0  0  0
 21 17  2  0  0  0
 27 22  1  0  0  0
 10  1  1  0  0  0
 43 33  1  0  0  0
 10  5  1  0  0  0
 43 37  2  0  0  0
 11 15  1  0  0  0
 14 16  1  0  0  0
 38 44  1  0  0  0
M  END
> <minimizedAffinity>
-9.76241

> <CNNscore>
0.0581438541

> <CNNaffinity>
6.5437903404

> <CNN_VS>
0.3804811835

> <CNNaffinity_variance>
0.1534638554

$$$$
[H]c1nc2c(nc([H])c(=O)n2[H])c(Oc2c([H])c([H])c(N([H])C(=O)N([H])c3c([H])c(C(C([H])([H])[H])(C([H])([H])[H])C([H])([H])[H])nn3-c3c([H])c([H])c([H])c([H])c3[H])c3c([H])c([H])c([H])c([H])c23)c1[H]


 44 49  0  0  0  0  0  0  0  0999 V2000
  -19.8866   13.4311  -18.9835 C   0  0  0  0  0  0  0  0  0  0  0  0
  -20.7363   13.3481  -17.9098 C   0  0  0  0  0  0  0  0  0  0  0  0
  -20.6470   12.3181  -16.9654 C   0  0  0  0  0  0  0  0  0  0  0  0
  -19.7038   11.3274  -17.0551 C   0  0  0  0  0  0  0  0  0  0  0  0
  -18.8478   11.3962  -18.1302 C   0  0  0  0  0  0  0  0  0  0  0  0
  -17.9130   10.4113  -18.2829 C   0  0  0  0  0  0  0  0  0  0  0  0
  -17.0315   10.3917  -19.3438 C   0  0  0  0  0  0  0  0  0  0  0  0
  -17.1007   11.3789  -20.2591 C   0  0  0  0  0  0  0  0  0  0  0  0
  -18.0449   12.4164  -20.1538 C   0  0  0  0  0  0  0  0  0  0  0  0
  -18.9124   12.4156  -19.0911 C   0  0  0  0  0  0  0  0  0  0  0  0
  -20.1591   16.7446  -20.7820 N   0  0  0  0  0  0  0  0  0  0  0  0
  -20.1769   15.8065  -19.6927 C   0  0  0  0  0  0  0  0  0  0  0  0
  -20.4332   16.2803  -18.5789 O   0  0  0  0  0  0  0  0  0  0  0  0
  -19.9017   14.4287  -19.9689 N   0  0  0  0  0  0  0  0  0  0  0  0
  -19.9397   16.3361  -21.7424 H   0  0  0  0  0  0  0  0  0  0  0  0
  -19.7131   14.2165  -20.9895 H   0  0  0  0  0  0  0  0  0  0  0  0
  -20.4239   20.2316  -19.9991 C   0  0  0  0  0  0  0  0  0  0  0  0
  -19.8320   18.9956  -19.7611 C   0  0  0  0  0  0  0  0  0  0  0  0
  -20.4070   18.1091  -20.6128 C   0  0  0  0  0  0  0  0  0  0  0  0
  -21.3371   18.7848  -21.3636 N   0  0  0  0  0  0  0  0  0  0  0  0
  -21.3123   20.0204  -20.9709 N   0  0  0  0  0  0  0  0  0  0  0  0
  -22.1673   18.2139  -22.3827 C   0  0  0  0  0  0  0  0  0  0  0  0
  -23.3001   17.5541  -22.0362 C   0  0  0  0  0  0  0  0  0  0  0  0
  -24.1084   17.0041  -23.0097 C   0  0  0  0  0  0  0  0  0  0  0  0
  -23.7731   17.1185  -24.3633 C   0  0  0  0  0  0  0  0  0  0  0  0
  -22.6230   17.7881  -24.7211 C   0  0  0  0  0  0  0  0  0  0  0  0
  -21.8314   18.3292  -23.7245 C   0  0  0  0  0  0  0  0  0  0  0  0
  -19.1486   22.3259  -20.1245 C   0  0  0  0  0  0  0  0  0  0  0  0
  -20.0918   21.4982  -19.2812 C   0  0  0  0  0  0  0  0  0  0  0  0
  -19.4774   21.2510  -17.9332 C   0  0  0  0  0  0  0  0  0  0  0  0
  -21.3650   22.3283  -19.1212 C   0  0  0  0  0  0  0  0  0  0  0  0
  -19.6642   10.3407  -16.0890 O   0  0  0  0  0  0  0  0  0  0  0  0
  -20.2278   10.4593  -14.8249 C   0  0  0  0  0  0  0  0  0  0  0  0
  -19.5793   11.0700  -13.7660 C   0  0  0  0  0  0  0  0  0  0  0  0
  -20.2301   11.1287  -12.5587 C   0  0  0  0  0  0  0  0  0  0  0  0
  -21.4521   10.6209  -12.3818 N   0  0  0  0  0  0  0  0  0  0  0  0
  -22.1206   10.0199  -13.3779 C   0  0  0  0  0  0  0  0  0  0  0  0
  -23.3592    9.5150  -13.1545 N   0  0  0  0  0  0  0  0  0  0  0  0
  -24.0188    8.9153  -14.1482 C   0  0  0  0  0  0  0  0  0  0  0  0
  -25.1789    8.4432  -13.9356 O   0  0  0  0  0  0  0  0  0  0  0  0
  -23.4283    8.8191  -15.3877 C   0  0  0  0  0  0  0  0  0  0  0  0
  -22.1919    9.3302  -15.5874 N   0  0  0  0  0  0  0  0  0  0  0  0
  -21.4918    9.9442  -14.6089 C   0  0  0  0  0  0  0  0  0  0  0  0
  -23.7514    9.6200  -12.1957 H   0  0  0  0  0  0  0  0  0  0  0  0
 28 29  1  0  0  0
 29 30  1  0  0  0
 29 31  1  0  0  0
 29 17  1  0  0  0
 17 18  1  0  0  0
 18 19  2  0  0  0
 19 11  1  0  0  0
 11 12  1  0  0  0
 12 13  2  0  0  0
 12 14  1  0  0  0
 14  1  1  0  0  0
  1  2  2  0  0  0
  2  3  1  0  0  0
  3  4  2  0  0  0
  4 32  1  0  0  0
 32 33  1  0  0  0
 33 34  2  0  0  0
 34 35  1  0  0  0
 35 36  2  0  0  0
 36 37  1  0  0  0
 37 38  1  0  0  0
 38 39  1  0  0  0
 39 40  2  0  0  0
 39 41  1  0  0  0
 41 42  2  0  0  0
 42 43  1  0  0  0
  4  5  1  0  0  0
  5  6  2  0  0  0
  6  7  1  0  0  0
  7  8  2  0  0  0
  8  9  1  0  0  0
  9 10  2  0  0  0
 19 20  1  0  0  0
 20 21  1  0  0  0
 20 22  1  0  0  0
 22 23  2  0  0  0
 23 24  1  0  0  0
 24 25  2  0  0  0
 25 26  1  0  0  0
 26 27  2  0  0  0
 21 17  2  0  0  0
 27 22  1  0  0  0
 10  1  1  0  0  0
 43 33  1  0  0  0
 10  5  1  0  0  0
 43 37  2  0  0  0
 11 15  1  0  0  0
 14 16  1  0  0  0
 38 44  1  0  0  0
M  END
> <minimizedAffinity>
-8.69755

> <CNNscore>
0.0558350123

> <CNNaffinity>
6.6096472740

> <CNN_VS>
0.3690497279

> <CNNaffinity_variance>
0.0890652314

$$$$
[H]c1nc2c(nc([H])c(=O)n2[H])c(Oc2c([H])c([H])c(N([H])C(=O)N([H])c3c([H])c(C(C([H])([H])[H])(C([H])([H])[H])C([H])([H])[H])nn3-c3c([H])c([H])c([H])c([H])c3[H])c3c([H])c([H])c([H])c([H])c23)c1[H]


 44 49  0  0  0  0  0  0  0  0999 V2000
  -19.6878   12.3548  -17.5477 C   0  0  0  0  0  0  0  0  0  0  0  0
  -19.8709   13.6985  -17.7547 C   0  0  0  0  0  0  0  0  0  0  0  0
  -19.1104   14.4210  -18.6823 C   0  0  0  0  0  0  0  0  0  0  0  0
  -18.1347   13.8300  -19.4424 C   0  0  0  0  0  0  0  0  0  0  0  0
  -17.9375   12.4830  -19.2414 C   0  0  0  0  0  0  0  0  0  0  0  0
  -16.9516   11.8560  -19.9498 C   0  0  0  0  0  0  0  0  0  0  0  0
  -16.6726   10.5141  -19.7927 C   0  0  0  0  0  0  0  0  0  0  0  0
  -17.3989    9.8029  -18.9075 C   0  0  0  0  0  0  0  0  0  0  0  0
  -18.4239   10.3972  -18.1491 C   0  0  0  0  0  0  0  0  0  0  0  0
  -18.6837   11.7333  -18.3206 C   0  0  0  0  0  0  0  0  0  0  0  0
  -20.8753   10.5760  -14.4310 N   0  0  0  0  0  0  0  0  0  0  0  0
  -20.0610   11.4182  -15.2645 C   0  0  0  0  0  0  0  0  0  0  0  0
  -19.1062   11.9690  -14.7028 O   0  0  0  0  0  0  0  0  0  0  0  0
  -20.4070   11.5561  -16.6470 N   0  0  0  0  0  0  0  0  0  0  0  0
  -21.6976   10.0998  -14.9153 H   0  0  0  0  0  0  0  0  0  0  0  0
  -21.2565   10.9966  -16.9432 H   0  0  0  0  0  0  0  0  0  0  0  0
  -19.7996    9.8559  -11.0893 C   0  0  0  0  0  0  0  0  0  0  0  0
  -19.5837    9.7613  -12.4601 C   0  0  0  0  0  0  0  0  0  0  0  0
  -20.6239   10.3839  -13.0702 C   0  0  0  0  0  0  0  0  0  0  0  0
  -21.4673   10.8548  -12.0943 N   0  0  0  0  0  0  0  0  0  0  0  0
  -20.9460   10.5235  -10.9541 N   0  0  0  0  0  0  0  0  0  0  0  0
  -22.6872   11.5737  -12.3155 C   0  0  0  0  0  0  0  0  0  0  0  0
  -22.6644   12.9267  -12.4021 C   0  0  0  0  0  0  0  0  0  0  0  0
  -23.8325   13.6281  -12.6188 C   0  0  0  0  0  0  0  0  0  0  0  0
  -25.0530   12.9569  -12.7520 C   0  0  0  0  0  0  0  0  0  0  0  0
  -25.0820   11.5819  -12.6648 C   0  0  0  0  0  0  0  0  0  0  0  0
  -23.8961   10.9044  -12.4470 C   0  0  0  0  0  0  0  0  0  0  0  0
  -18.0255    8.2217  -10.6315 C   0  0  0  0  0  0  0  0  0  0  0  0
  -18.8981    9.3028  -10.0352 C   0  0  0  0  0  0  0  0  0  0  0  0
  -19.6562    8.7490   -8.8629 C   0  0  0  0  0  0  0  0  0  0  0  0
  -17.9517   10.4051   -9.5608 C   0  0  0  0  0  0  0  0  0  0  0  0
  -17.4213   14.5962  -20.3437 O   0  0  0  0  0  0  0  0  0  0  0  0
  -17.9559   15.1392  -21.5053 C   0  0  0  0  0  0  0  0  0  0  0  0
  -18.7119   16.2980  -21.5158 C   0  0  0  0  0  0  0  0  0  0  0  0
  -19.1931   16.7431  -22.7220 C   0  0  0  0  0  0  0  0  0  0  0  0
  -18.9547   16.0986  -23.8666 N   0  0  0  0  0  0  0  0  0  0  0  0
  -18.2272   14.9719  -23.9069 C   0  0  0  0  0  0  0  0  0  0  0  0
  -18.0113   14.3470  -25.0910 N   0  0  0  0  0  0  0  0  0  0  0  0
  -17.2895   13.2246  -25.1252 C   0  0  0  0  0  0  0  0  0  0  0  0
  -17.0891   12.6415  -26.2359 O   0  0  0  0  0  0  0  0  0  0  0  0
  -16.7744   12.7184  -23.9535 C   0  0  0  0  0  0  0  0  0  0  0  0
  -17.0025   13.3589  -22.7841 N   0  0  0  0  0  0  0  0  0  0  0  0
  -17.7271   14.4962  -22.7069 C   0  0  0  0  0  0  0  0  0  0  0  0
  -18.4270   14.7800  -25.9417 H   0  0  0  0  0  0  0  0  0  0  0  0
 28 29  1  0  0  0
 29 30  1  0  0  0
 29 31  1  0  0  0
 29 17  1  0  0  0
 17 18  1  0  0  0
 18 19  2  0  0  0
 19 11  1  0  0  0
 11 12  1  0  0  0
 12 13  2  0  0  0
 12 14  1  0  0  0
 14  1  1  0  0  0
  1  2  2  0  0  0
  2  3  1  0  0  0
  3  4  2  0  0  0
  4 32  1  0  0  0
 32 33  1  0  0  0
 33 34  2  0  0  0
 34 35  1  0  0  0
 35 36  2  0  0  0
 36 37  1  0  0  0
 37 38  1  0  0  0
 38 39  1  0  0  0
 39 40  2  0  0  0
 39 41  1  0  0  0
 41 42  2  0  0  0
 42 43  1  0  0  0
  4  5  1  0  0  0
  5  6  2  0  0  0
  6  7  1  0  0  0
  7  8  2  0  0  0
  8  9  1  0  0  0
  9 10  2  0  0  0
 19 20  1  0  0  0
 20 21  1  0  0  0
 20 22  1  0  0  0
 22 23  2  0  0  0
 23 24  1  0  0  0
 24 25  2  0  0  0
 25 26  1  0  0  0
 26 27  2  0  0  0
 21 17  2  0  0  0
 27 22  1  0  0  0
 10  1  1  0  0  0
 43 33  1  0  0  0
 10  5  1  0  0  0
 43 37  2  0  0  0
 11 15  1  0  0  0
 14 16  1  0  0  0
 38 44  1  0  0  0
M  END
> <minimizedAffinity>
-8.88074

> <CNNscore>
0.0544308759

> <CNNaffinity>
6.6726775169

> <CNN_VS>
0.3631996810

> <CNNaffinity_variance>
0.0872793943

$$$$
[H]c1nc2c(nc([H])c(=O)n2[H])c(Oc2c([H])c([H])c(N([H])C(=O)N([H])c3c([H])c(C(C([H])([H])[H])(C([H])([H])[H])C([H])([H])[H])nn3-c3c([H])c([H])c([H])c([H])c3[H])c3c([H])c([H])c([H])c([H])c23)c1[H]


 44 49  0  0  0  0  0  0  0  0999 V2000
  -19.2560   12.8338  -17.7604 C   0  0  0  0  0  0  0  0  0  0  0  0
  -20.0997   12.3345  -16.8009 C   0  0  0  0  0  0  0  0  0  0  0  0
  -20.1303   10.9746  -16.4686 C   0  0  0  0  0  0  0  0  0  0  0  0
  -19.3180   10.0564  -17.0820 C   0  0  0  0  0  0  0  0  0  0  0  0
  -18.4698   10.5433  -18.0500 C   0  0  0  0  0  0  0  0  0  0  0  0
  -17.6658    9.6613  -18.7154 C   0  0  0  0  0  0  0  0  0  0  0  0
  -16.8032   10.0619  -19.7147 C   0  0  0  0  0  0  0  0  0  0  0  0
  -16.7577   11.3683  -20.0432 C   0  0  0  0  0  0  0  0  0  0  0  0
  -17.5650   12.3199  -19.3937 C   0  0  0  0  0  0  0  0  0  0  0  0
  -18.4163   11.8994  -18.4035 C   0  0  0  0  0  0  0  0  0  0  0  0
  -19.9793   16.2532  -19.2001 N   0  0  0  0  0  0  0  0  0  0  0  0
  -20.1880   14.8725  -18.8582 C   0  0  0  0  0  0  0  0  0  0  0  0
  -21.2699   14.3882  -19.2125 O   0  0  0  0  0  0  0  0  0  0  0  0
  -19.1563   14.1775  -18.1491 N   0  0  0  0  0  0  0  0  0  0  0  0
  -19.0461   16.6704  -18.8961 H   0  0  0  0  0  0  0  0  0  0  0  0
  -18.2975   14.7623  -17.9422 H   0  0  0  0  0  0  0  0  0  0  0  0
  -22.2343   17.9928  -21.3753 C   0  0  0  0  0  0  0  0  0  0  0  0
  -21.1800   17.0999  -21.2145 C   0  0  0  0  0  0  0  0  0  0  0  0
  -20.9282   17.0178  -19.8834 C   0  0  0  0  0  0  0  0  0  0  0  0
  -21.8107   17.8448  -19.2334 N   0  0  0  0  0  0  0  0  0  0  0  0
  -22.5536   18.3930  -20.1440 N   0  0  0  0  0  0  0  0  0  0  0  0
  -21.8807   18.0488  -17.8165 C   0  0  0  0  0  0  0  0  0  0  0  0
  -22.7042   17.2763  -17.0656 C   0  0  0  0  0  0  0  0  0  0  0  0
  -22.7762   17.4619  -15.7004 C   0  0  0  0  0  0  0  0  0  0  0  0
  -22.0039   18.4454  -15.0728 C   0  0  0  0  0  0  0  0  0  0  0  0
  -21.1653   19.2333  -15.8311 C   0  0  0  0  0  0  0  0  0  0  0  0
  -21.1132   19.0257  -17.1974 C   0  0  0  0  0  0  0  0  0  0  0  0
  -23.4777   19.7491  -22.5573 C   0  0  0  0  0  0  0  0  0  0  0  0
  -22.8399   18.3841  -22.6829 C   0  0  0  0  0  0  0  0  0  0  0  0
  -23.8611   17.3930  -23.1632 C   0  0  0  0  0  0  0  0  0  0  0  0
  -21.7296   18.5235  -23.7239 C   0  0  0  0  0  0  0  0  0  0  0  0
  -19.3923    8.7290  -16.7068 O   0  0  0  0  0  0  0  0  0  0  0  0
  -19.6049    8.2940  -15.4047 C   0  0  0  0  0  0  0  0  0  0  0  0
  -18.9865    8.8690  -14.3086 C   0  0  0  0  0  0  0  0  0  0  0  0
  -19.2683    8.3564  -13.0666 C   0  0  0  0  0  0  0  0  0  0  0  0
  -20.1096    7.3347  -12.8909 N   0  0  0  0  0  0  0  0  0  0  0  0
  -20.7330    6.7449  -13.9224 C   0  0  0  0  0  0  0  0  0  0  0  0
  -21.5780    5.7079  -13.6998 N   0  0  0  0  0  0  0  0  0  0  0  0
  -22.1933    5.1225  -14.7297 C   0  0  0  0  0  0  0  0  0  0  0  0
  -22.9841    4.1511  -14.5179 O   0  0  0  0  0  0  0  0  0  0  0  0
  -21.9590    5.5833  -16.0053 C   0  0  0  0  0  0  0  0  0  0  0  0
  -21.1121    6.6194  -16.2033 N   0  0  0  0  0  0  0  0  0  0  0  0
  -20.4703    7.2385  -15.1888 C   0  0  0  0  0  0  0  0  0  0  0  0
  -21.7138    5.4065  -12.7124 H   0  0  0  0  0  0  0  0  0  0  0  0
 28 29  1  0  0  0
 29 30  1  0  0  0
 29 31  1  0  0  0
 29 17  1  0  0  0
 17 18  1  0  0  0
 18 19  2  0  0  0
 19 11  1  0  0  0
 11 12  1  0  0  0
 12 13  2  0  0  0
 12 14  1  0  0  0
 14  1  1  0  0  0
  1  2  2  0  0  0
  2  3  1  0  0  0
  3  4  2  0  0  0
  4 32  1  0  0  0
 32 33  1  0  0  0
 33 34  2  0  0  0
 34 35  1  0  0  0
 35 36  2  0  0  0
 36 37  1  0  0  0
 37 38  1  0  0  0
 38 39  1  0  0  0
 39 40  2  0  0  0
 39 41  1  0  0  0
 41 42  2  0  0  0
 42 43  1  0  0  0
  4  5  1  0  0  0
  5  6  2  0  0  0
  6  7  1  0  0  0
  7  8  2  0  0  0
  8  9  1  0  0  0
  9 10  2  0  0  0
 19 20  1  0  0  0
 20 21  1  0  0  0
 20 22  1  0  0  0
 22 23  2  0  0  0
 23 24  1  0  0  0
 24 25  2  0  0  0
 25 26  1  0  0  0
 26 27  2  0  0  0
 21 17  2  0  0  0
 27 22  1  0  0  0
 10  1  1  0  0  0
 43 33  1  0  0  0
 10  5  1  0  0  0
 43 37  2  0  0  0
 11 15  1  0  0  0
 14 16  1  0  0  0
 38 44  1  0  0  0
M  END
> <minimizedAffinity>
-8.78330

> <CNNscore>
0.0535594746

> <CNNaffinity>
6.5633573532

> <CNN_VS>
0.3515299857

> <CNNaffinity_variance>
0.2146644294

$$$$
[H]c1nc2c(nc([H])c(=O)n2[H])c(Oc2c([H])c([H])c(N([H])C(=O)N([H])c3c([H])c(C(C([H])([H])[H])(C([H])([H])[H])C([H])([H])[H])nn3-c3c([H])c([H])c([H])c([H])c3[H])c3c([H])c([H])c([H])c([H])c23)c1[H]


 44 49  0  0  0  0  0  0  0  0999 V2000
  -19.6119   10.8293  -17.2939 C   0  0  0  0  0  0  0  0  0  0  0  0
  -18.8472    9.6911  -17.3347 C   0  0  0  0  0  0  0  0  0  0  0  0
  -18.6682    8.8718  -16.2133 C   0  0  0  0  0  0  0  0  0  0  0  0
  -19.2466    9.1563  -15.0035 C   0  0  0  0  0  0  0  0  0  0  0  0
  -20.0127   10.2980  -14.9475 C   0  0  0  0  0  0  0  0  0  0  0  0
  -20.5811   10.6435  -13.7539 C   0  0  0  0  0  0  0  0  0  0  0  0
  -21.3445   11.7828  -13.6050 C   0  0  0  0  0  0  0  0  0  0  0  0
  -21.5309   12.5797  -14.6760 C   0  0  0  0  0  0  0  0  0  0  0  0
  -20.9672   12.2747  -15.9283 C   0  0  0  0  0  0  0  0  0  0  0  0
  -20.2108   11.1372  -16.0536 C   0  0  0  0  0  0  0  0  0  0  0  0
  -19.1684   13.1183  -20.2690 N   0  0  0  0  0  0  0  0  0  0  0  0
  -18.8080   12.2391  -19.1902 C   0  0  0  0  0  0  0  0  0  0  0  0
  -17.5983   12.0146  -19.0605 O   0  0  0  0  0  0  0  0  0  0  0  0
  -19.8484   11.6999  -18.3674 N   0  0  0  0  0  0  0  0  0  0  0  0
  -20.2110   13.3132  -20.3801 H   0  0  0  0  0  0  0  0  0  0  0  0
  -20.8239   12.0174  -18.6319 H   0  0  0  0  0  0  0  0  0  0  0  0
  -16.6882   14.1077  -22.6591 C   0  0  0  0  0  0  0  0  0  0  0  0
  -17.4347   13.0981  -22.0608 C   0  0  0  0  0  0  0  0  0  0  0  0
  -18.2276   13.6880  -21.1306 C   0  0  0  0  0  0  0  0  0  0  0  0
  -17.9757   15.0376  -21.1535 N   0  0  0  0  0  0  0  0  0  0  0  0
  -17.0707   15.2364  -22.0607 N   0  0  0  0  0  0  0  0  0  0  0  0
  -18.6049   16.0224  -20.3239 C   0  0  0  0  0  0  0  0  0  0  0  0
  -18.0853   16.3052  -19.1038 C   0  0  0  0  0  0  0  0  0  0  0  0
  -18.6809   17.2543  -18.2989 C   0  0  0  0  0  0  0  0  0  0  0  0
  -19.8249   17.9364  -18.7275 C   0  0  0  0  0  0  0  0  0  0  0  0
  -20.3572   17.6529  -19.9666 C   0  0  0  0  0  0  0  0  0  0  0  0
  -19.7398   16.6969  -20.7524 C   0  0  0  0  0  0  0  0  0  0  0  0
  -16.3886   13.7282  -25.0662 C   0  0  0  0  0  0  0  0  0  0  0  0
  -15.6803   13.9071  -23.7425 C   0  0  0  0  0  0  0  0  0  0  0  0
  -14.7869   12.7275  -23.4855 C   0  0  0  0  0  0  0  0  0  0  0  0
  -14.8344   15.1730  -23.8761 C   0  0  0  0  0  0  0  0  0  0  0  0
  -19.0354    8.3062  -13.9353 O   0  0  0  0  0  0  0  0  0  0  0  0
  -19.8111    7.1872  -13.6598 C   0  0  0  0  0  0  0  0  0  0  0  0
  -20.8247    6.7501  -14.4941 C   0  0  0  0  0  0  0  0  0  0  0  0
  -21.5299    5.6327  -14.1213 C   0  0  0  0  0  0  0  0  0  0  0  0
  -21.2679    4.9672  -12.9940 N   0  0  0  0  0  0  0  0  0  0  0  0
  -20.2952    5.3522  -12.1538 C   0  0  0  0  0  0  0  0  0  0  0  0
  -20.0641    4.6490  -11.0175 N   0  0  0  0  0  0  0  0  0  0  0  0
  -19.0972    5.0382  -10.1833 C   0  0  0  0  0  0  0  0  0  0  0  0
  -18.8832    4.3774   -9.1196 O   0  0  0  0  0  0  0  0  0  0  0  0
  -18.3482    6.1509  -10.4918 C   0  0  0  0  0  0  0  0  0  0  0  0
  -18.5966    6.8367  -11.6310 N   0  0  0  0  0  0  0  0  0  0  0  0
  -19.5650    6.4760  -12.5008 C   0  0  0  0  0  0  0  0  0  0  0  0
  -20.6641    3.8166  -10.8411 H   0  0  0  0  0  0  0  0  0  0  0  0
 28 29  1  0  0  0
 29 30  1  0  0  0
 29 31  1  0  0  0
 29 17  1  0  0  0
 17 18  1  0  0  0
 18 19  2  0  0  0
 19 11  1  0  0  0
 11 12  1  0  0  0
 12 13  2  0  0  0
 12 14  1  0  0  0
 14  1  1  0  0  0
  1  2  2  0  0  0
  2  3  1  0  0  0
  3  4  2  0  0  0
  4 32  1  0  0  0
 32 33  1  0  0  0
 33 34  2  0  0  0
 34 35  1  0  0  0
 35 36  2  0  0  0
 36 37  1  0  0  0
 37 38  1  0  0  0
 38 39  1  0  0  0
 39 40  2  0  0  0
 39 41  1  0  0  0
 41 42  2  0  0  0
 42 43  1  0  0  0
  4  5  1  0  0  0
  5  6  2  0  0  0
  6  7  1  0  0  0
  7  8  2  0  0  0
  8  9  1  0  0  0
  9 10  2  0  0  0
 19 20  1  0  0  0
 20 21  1  0  0  0
 20 22  1  0  0  0
 22 23  2  0  0  0
 23 24  1  0  0  0
 24 25  2  0  0  0
 25 26  1  0  0  0
 26 27  2  0  0  0
 21 17  2  0  0  0
 27 22  1  0  0  0
 10  1  1  0  0  0
 43 33  1  0  0  0
 10  5  1  0  0  0
 43 37  2  0  0  0
 11 15  1  0  0  0
 14 16  1  0  0  0
 38 44  1  0  0  0
M  END
> <minimizedAffinity>
-8.55926

> <CNNscore>
0.0495601334

> <CNNaffinity>
6.7284698486

> <CNN_VS>
0.3334638774

> <CNNaffinity_variance>
0.2175547630

$$$$
[H]c1nc2c(nc([H])c(=O)n2[H])c(Oc2c([H])c([H])c(N([H])C(=O)N([H])c3c([H])c(C(C([H])([H])[H])(C([H])([H])[H])C([H])([H])[H])nn3-c3c([H])c([H])c([H])c([H])c3[H])c3c([H])c([H])c([H])c([H])c23)c1[H]


 44 49  0  0  0  0  0  0  0  0999 V2000
  -19.2523   13.7770  -18.9386 C   0  0  0  0  0  0  0  0  0  0  0  0
  -20.2042   13.7768  -17.9508 C   0  0  0  0  0  0  0  0  0  0  0  0
  -20.4276   12.6645  -17.1300 C   0  0  0  0  0  0  0  0  0  0  0  0
  -19.7083   11.5052  -17.2625 C   0  0  0  0  0  0  0  0  0  0  0  0
  -18.7531   11.4903  -18.2529 C   0  0  0  0  0  0  0  0  0  0  0  0
  -18.0343   10.3446  -18.4478 C   0  0  0  0  0  0  0  0  0  0  0  0
  -17.0743   10.2370  -19.4326 C   0  0  0  0  0  0  0  0  0  0  0  0
  -16.8432   11.3004  -20.2281 C   0  0  0  0  0  0  0  0  0  0  0  0
  -17.5553   12.5038  -20.0746 C   0  0  0  0  0  0  0  0  0  0  0  0
  -18.5062   12.5885  -19.0894 C   0  0  0  0  0  0  0  0  0  0  0  0
  -19.5391   16.7908  -21.2020 N   0  0  0  0  0  0  0  0  0  0  0  0
  -19.9560   15.7228  -20.3344 C   0  0  0  0  0  0  0  0  0  0  0  0
  -21.1717   15.6502  -20.1166 O   0  0  0  0  0  0  0  0  0  0  0  0
  -18.9595   14.8456  -19.7981 N   0  0  0  0  0  0  0  0  0  0  0  0
  -18.4913   16.8526  -21.3911 H   0  0  0  0  0  0  0  0  0  0  0  0
  -17.9707   15.0651  -20.1087 H   0  0  0  0  0  0  0  0  0  0  0  0
  -21.8276   18.8256  -23.0633 C   0  0  0  0  0  0  0  0  0  0  0  0
  -20.9997   17.7096  -23.0016 C   0  0  0  0  0  0  0  0  0  0  0  0
  -20.4340   17.7022  -21.7679 C   0  0  0  0  0  0  0  0  0  0  0  0
  -20.9038   18.7935  -21.0797 N   0  0  0  0  0  0  0  0  0  0  0  0
  -21.7141   19.4200  -21.8750 N   0  0  0  0  0  0  0  0  0  0  0  0
  -20.5526   19.1536  -19.7377 C   0  0  0  0  0  0  0  0  0  0  0  0
  -19.4002   19.8282  -19.5020 C   0  0  0  0  0  0  0  0  0  0  0  0
  -19.0547   20.1830  -18.2143 C   0  0  0  0  0  0  0  0  0  0  0  0
  -19.8845   19.8538  -17.1370 C   0  0  0  0  0  0  0  0  0  0  0  0
  -21.0569   19.1683  -17.3708 C   0  0  0  0  0  0  0  0  0  0  0  0
  -21.3783   18.8251  -18.6714 C   0  0  0  0  0  0  0  0  0  0  0  0
  -23.8949   19.9414  -23.7769 C   0  0  0  0  0  0  0  0  0  0  0  0
  -22.6487   19.2247  -24.2450 C   0  0  0  0  0  0  0  0  0  0  0  0
  -23.0334   18.0517  -25.1005 C   0  0  0  0  0  0  0  0  0  0  0  0
  -21.8615   20.2338  -25.0803 C   0  0  0  0  0  0  0  0  0  0  0  0
  -19.9731   10.4437  -16.4191 O   0  0  0  0  0  0  0  0  0  0  0  0
  -20.4977   10.5725  -15.1392 C   0  0  0  0  0  0  0  0  0  0  0  0
  -19.7968   11.1449  -14.0925 C   0  0  0  0  0  0  0  0  0  0  0  0
  -20.4125   11.2179  -12.8677 C   0  0  0  0  0  0  0  0  0  0  0  0
  -21.6495   10.7592  -12.6628 N   0  0  0  0  0  0  0  0  0  0  0  0
  -22.3684   10.1966  -13.6462 C   0  0  0  0  0  0  0  0  0  0  0  0
  -23.6206    9.7410  -13.3944 N   0  0  0  0  0  0  0  0  0  0  0  0
  -24.3304    9.1793  -14.3755 C   0  0  0  0  0  0  0  0  0  0  0  0
  -25.5031    8.7533  -14.1363 O   0  0  0  0  0  0  0  0  0  0  0  0
  -23.7773    9.0716  -15.6312 C   0  0  0  0  0  0  0  0  0  0  0  0
  -22.5264    9.5333  -15.8592 N   0  0  0  0  0  0  0  0  0  0  0  0
  -21.7759   10.1077  -14.8942 C   0  0  0  0  0  0  0  0  0  0  0  0
  -23.9827    9.8521  -12.4245 H   0  0  0  0  0  0  0  0  0  0  0  0
 28 29  1  0  0  0
 29 30  1  0  0  0
 29 31  1  0  0  0
 29 17  1  0  0  0
 17 18  1  0  0  0
 18 19  2  0  0  0
 19 11  1  0  0  0
 11 12  1  0  0  0
 12 13  2  0  0  0
 12 14  1  0  0  0
 14  1  1  0  0  0
  1  2  2  0  0  0
  2  3  1  0  0  0
  3  4  2  0  0  0
  4 32  1  0  0  0
 32 33  1  0  0  0
 33 34  2  0  0  0
 34 35  1  0  0  0
 35 36  2  0  0  0
 36 37  1  0  0  0
 37 38  1  0  0  0
 38 39  1  0  0  0
 39 40  2  0  0  0
 39 41  1  0  0  0
 41 42  2  0  0  0
 42 43  1  0  0  0
  4  5  1  0  0  0
  5  6  2  0  0  0
  6  7  1  0  0  0
  7  8  2  0  0  0
  8  9  1  0  0  0
  9 10  2  0  0  0
 19 20  1  0  0  0
 20 21  1  0  0  0
 20 22  1  0  0  0
 22 23  2  0  0  0
 23 24  1  0  0  0
 24 25  2  0  0  0
 25 26  1  0  0  0
 26 27  2  0  0  0
 21 17  2  0  0  0
 27 22  1  0  0  0
 10  1  1  0  0  0
 43 33  1  0  0  0
 10  5  1  0  0  0
 43 37  2  0  0  0
 11 15  1  0  0  0
 14 16  1  0  0  0
 38 44  1  0  0  0
M  END
> <minimizedAffinity>
-8.68283

> <CNNscore>
0.0462460630

> <CNNaffinity>
6.6207323074

> <CNN_VS>
0.3061828017

> <CNNaffinity_variance>
0.1224775091

$$$$
[H]c1nc2c(nc([H])c(=O)n2[H])c(Oc2c([H])c([H])c(N([H])C(=O)N([H])c3c([H])c(C(C([H])([H])[H])(C([H])([H])[H])C([H])([H])[H])nn3-c3c([H])c([H])c([H])c([H])c3[H])c3c([H])c([H])c([H])c([H])c23)c1[H]


 44 49  0  0  0  0  0  0  0  0999 V2000
  -19.0813   13.0906  -18.0991 C   0  0  0  0  0  0  0  0  0  0  0  0
  -19.9792   12.7183  -17.1310 C   0  0  0  0  0  0  0  0  0  0  0  0
  -20.1002   11.3930  -16.6956 C   0  0  0  0  0  0  0  0  0  0  0  0
  -19.3281   10.3839  -17.2099 C   0  0  0  0  0  0  0  0  0  0  0  0
  -18.4262   10.7429  -18.1853 C   0  0  0  0  0  0  0  0  0  0  0  0
  -17.6586    9.7662  -18.7544 C   0  0  0  0  0  0  0  0  0  0  0  0
  -16.7467   10.0361  -19.7538 C   0  0  0  0  0  0  0  0  0  0  0  0
  -16.6142   11.3076  -20.1809 C   0  0  0  0  0  0  0  0  0  0  0  0
  -17.3804   12.3525  -19.6330 C   0  0  0  0  0  0  0  0  0  0  0  0
  -18.2819   12.0614  -18.6408 C   0  0  0  0  0  0  0  0  0  0  0  0
  -19.3052   16.2648  -20.1393 N   0  0  0  0  0  0  0  0  0  0  0  0
  -19.5747   14.9126  -19.7321 C   0  0  0  0  0  0  0  0  0  0  0  0
  -20.3974   14.2971  -20.4213 O   0  0  0  0  0  0  0  0  0  0  0  0
  -18.8908   14.3913  -18.5872 N   0  0  0  0  0  0  0  0  0  0  0  0
  -18.5950   16.7950  -19.5462 H   0  0  0  0  0  0  0  0  0  0  0  0
  -18.2163   15.0708  -18.1338 H   0  0  0  0  0  0  0  0  0  0  0  0
  -21.2587   17.9533  -22.6243 C   0  0  0  0  0  0  0  0  0  0  0  0
  -21.0973   17.5493  -21.3032 C   0  0  0  0  0  0  0  0  0  0  0  0
  -19.9270   16.8652  -21.2369 C   0  0  0  0  0  0  0  0  0  0  0  0
  -19.3751   16.8469  -22.4940 N   0  0  0  0  0  0  0  0  0  0  0  0
  -20.1868   17.4939  -23.2712 N   0  0  0  0  0  0  0  0  0  0  0  0
  -18.1359   16.2249  -22.8569 C   0  0  0  0  0  0  0  0  0  0  0  0
  -18.1119   14.9059  -23.1704 C   0  0  0  0  0  0  0  0  0  0  0  0
  -16.9250   14.2984  -23.5249 C   0  0  0  0  0  0  0  0  0  0  0  0
  -15.7335   15.0308  -23.5661 C   0  0  0  0  0  0  0  0  0  0  0  0
  -15.7523   16.3716  -23.2485 C   0  0  0  0  0  0  0  0  0  0  0  0
  -16.9559   16.9547  -22.8965 C   0  0  0  0  0  0  0  0  0  0  0  0
  -22.7765   18.2417  -24.5325 C   0  0  0  0  0  0  0  0  0  0  0  0
  -22.4159   18.7370  -23.1502 C   0  0  0  0  0  0  0  0  0  0  0  0
  -22.1364   20.2118  -23.2005 C   0  0  0  0  0  0  0  0  0  0  0  0
  -23.6365   18.4749  -22.2686 C   0  0  0  0  0  0  0  0  0  0  0  0
  -19.4919    9.0968  -16.7356 O   0  0  0  0  0  0  0  0  0  0  0  0
  -19.7536    8.7785  -15.4090 C   0  0  0  0  0  0  0  0  0  0  0  0
  -19.2504    9.5082  -14.3465 C   0  0  0  0  0  0  0  0  0  0  0  0
  -19.5714    9.1013  -13.0752 C   0  0  0  0  0  0  0  0  0  0  0  0
  -20.3437    8.0379  -12.8404 N   0  0  0  0  0  0  0  0  0  0  0  0
  -20.8549    7.2996  -13.8374 C   0  0  0  0  0  0  0  0  0  0  0  0
  -21.6327    6.2253  -13.5547 N   0  0  0  0  0  0  0  0  0  0  0  0
  -22.1362    5.4922  -14.5502 C   0  0  0  0  0  0  0  0  0  0  0  0
  -22.8643    4.4863  -14.2821 O   0  0  0  0  0  0  0  0  0  0  0  0
  -21.8564    5.8405  -15.8520 C   0  0  0  0  0  0  0  0  0  0  0  0
  -21.0783    6.9164  -16.1102 N   0  0  0  0  0  0  0  0  0  0  0  0
  -20.5499    7.6836  -15.1321 C   0  0  0  0  0  0  0  0  0  0  0  0
  -21.8079    6.0143  -12.5503 H   0  0  0  0  0  0  0  0  0  0  0  0
 28 29  1  0  0  0
 29 30  1  0  0  0
 29 31  1  0  0  0
 29 17  1  0  0  0
 17 18  1  0  0  0
 18 19  2  0  0  0
 19 11  1  0  0  0
 11 12  1  0  0  0
 12 13  2  0  0  0
 12 14  1  0  0  0
 14  1  1  0  0  0
  1  2  2  0  0  0
  2  3  1  0  0  0
  3  4  2  0  0  0
  4 32  1  0  0  0
 32 33  1  0  0  0
 33 34  2  0  0  0
 34 35  1  0  0  0
 35 36  2  0  0  0
 36 37  1  0  0  0
 37 38  1  0  0  0
 38 39  1  0  0  0
 39 40  2  0  0  0
 39 41  1  0  0  0
 41 42  2  0  0  0
 42 43  1  0  0  0
  4  5  1  0  0  0
  5  6  2  0  0  0
  6  7  1  0  0  0
  7  8  2  0  0  0
  8  9  1  0  0  0
  9 10  2  0  0  0
 19 20  1  0  0  0
 20 21  1  0  0  0
 20 22  1  0  0  0
 22 23  2  0  0  0
 23 24  1  0  0  0
 24 25  2  0  0  0
 25 26  1  0  0  0
 26 27  2  0  0  0
 21 17  2  0  0  0
 27 22  1  0  0  0
 10  1  1  0  0  0
 43 33  1  0  0  0
 10  5  1  0  0  0
 43 37  2  0  0  0
 11 15  1  0  0  0
 14 16  1  0  0  0
 38 44  1  0  0  0
M  END
> <minimizedAffinity>
-9.95440

> <CNNscore>
0.0451424606

> <CNNaffinity>
6.5535864830

> <CNN_VS>
0.2958450317

> <CNNaffinity_variance>
0.4209142625

$$$$
[H]c1c(N2C([H])([H])C([H])([H])N(C([H])([H])[H])C([H])([H])C2([H])[H])c([H])c2c(nc(-c3c(N([H])[H])c4c([H])c([H])c([H])c([H])c4n([H])c3=O)n2[H])c1[H]


 32 36  0  0  0  0  0  0  0  0999 V2000
  -19.5001    8.9421  -15.4160 C   0  0  0  0  0  0  0  0  0  0  0  0
  -20.2436   10.1017  -15.4247 C   0  0  0  0  0  0  0  0  0  0  0  0
  -20.1329   11.0630  -16.3943 C   0  0  0  0  0  0  0  0  0  0  0  0
  -19.2360   10.8937  -17.4368 C   0  0  0  0  0  0  0  0  0  0  0  0
  -18.8732   11.5852  -18.5081 N   0  0  0  0  0  0  0  0  0  0  0  0
  -17.9102   10.9390  -19.2290 C   0  0  0  0  0  0  0  0  0  0  0  0
  -17.6864    9.8100  -18.5591 N   0  0  0  0  0  0  0  0  0  0  0  0
  -18.4809    9.7432  -17.4511 C   0  0  0  0  0  0  0  0  0  0  0  0
  -18.6124    8.7839  -16.4555 C   0  0  0  0  0  0  0  0  0  0  0  0
  -17.0006    9.0695  -18.8326 H   0  0  0  0  0  0  0  0  0  0  0  0
  -17.3273   11.4747  -20.4572 C   0  0  0  0  0  0  0  0  0  0  0  0
  -17.8707   12.5790  -21.0857 C   0  0  0  0  0  0  0  0  0  0  0  0
  -19.0176   13.1769  -20.4962 N   0  0  0  0  0  0  0  0  0  0  0  0
  -17.3874   13.1461  -22.2392 C   0  0  0  0  0  0  0  0  0  0  0  0
  -17.9619   14.2446  -22.8270 C   0  0  0  0  0  0  0  0  0  0  0  0
  -17.4221   14.7513  -23.9748 C   0  0  0  0  0  0  0  0  0  0  0  0
  -16.3157   14.1677  -24.5353 C   0  0  0  0  0  0  0  0  0  0  0  0
  -15.7317   13.0667  -23.9554 C   0  0  0  0  0  0  0  0  0  0  0  0
  -16.2563   12.5319  -22.7930 C   0  0  0  0  0  0  0  0  0  0  0  0
  -15.7053   11.4563  -22.2045 N   0  0  0  0  0  0  0  0  0  0  0  0
  -16.2231   10.9283  -21.0565 C   0  0  0  0  0  0  0  0  0  0  0  0
  -15.6285    9.9283  -20.5991 O   0  0  0  0  0  0  0  0  0  0  0  0
  -19.9450   12.7638  -20.7527 H   0  0  0  0  0  0  0  0  0  0  0  0
  -18.9536   13.9890  -19.8378 H   0  0  0  0  0  0  0  0  0  0  0  0
  -14.8661   11.0412  -22.6601 H   0  0  0  0  0  0  0  0  0  0  0  0
  -21.3189    6.6418  -11.1862 C   0  0  0  0  0  0  0  0  0  0  0  0
  -20.3904    6.2865  -12.2417 N   0  0  0  0  0  0  0  0  0  0  0  0
  -19.1845    7.0478  -12.1790 C   0  0  0  0  0  0  0  0  0  0  0  0
  -19.1940    8.2607  -13.0746 C   0  0  0  0  0  0  0  0  0  0  0  0
  -19.5958    7.9403  -14.4274 N   0  0  0  0  0  0  0  0  0  0  0  0
  -20.0692    6.5964  -14.6468 C   0  0  0  0  0  0  0  0  0  0  0  0
  -21.0262    6.2682  -13.5191 C   0  0  0  0  0  0  0  0  0  0  0  0
 26 27  1  0  0  0
 27 28  1  0  0  0
 28 29  1  0  0  0
 29 30  1  0  0  0
 30 31  1  0  0  0
 31 32  1  0  0  0
 30  1  1  0  0  0
  1  2  2  0  0  0
  2  3  1  0  0  0
  3  4  2  0  0  0
  4  5  1  0  0  0
  5  6  2  0  0  0
  6  7  1  0  0  0
  7  8  1  0  0  0
  8  9  2  0  0  0
  6 11  1  0  0  0
 11 12  2  0  0  0
 12 13  1  0  0  0
 12 14  1  0  0  0
 14 15  2  0  0  0
 15 16  1  0  0  0
 16 17  2  0  0  0
 17 18  1  0  0  0
 18 19  2  0  0  0
 19 20  1  0  0  0
 20 21  1  0  0  0
 21 22  2  0  0  0
 32 27  1  0  0  0
  9  1  1  0  0  0
 21 11  1  0  0  0
  8  4  1  0  0  0
 19 14  1  0  0  0
  7 10  1  0  0  0
 13 23  1  0  0  0
 13 24  1  0  0  0
 20 25  1  0  0  0
M  END
> <minimizedAffinity>
-9.32240

> <CNNscore>
0.9789396524

> <CNNaffinity>
7.2293806076

> <CNN_VS>
7.0771274567

> <CNNaffinity_variance>
0.1174323335

$$$$
[H]c1c(N2C([H])([H])C([H])([H])N(C([H])([H])[H])C([H])([H])C2([H])[H])c([H])c2c(nc(-c3c(N([H])[H])c4c([H])c([H])c([H])c([H])c4n([H])c3=O)n2[H])c1[H]


 32 36  0  0  0  0  0  0  0  0999 V2000
  -19.6369   11.1042  -17.1960 C   0  0  0  0  0  0  0  0  0  0  0  0
  -20.2980   12.3041  -17.3400 C   0  0  0  0  0  0  0  0  0  0  0  0
  -20.0089   13.2128  -18.3235 C   0  0  0  0  0  0  0  0  0  0  0  0
  -19.0048   12.9443  -19.2398 C   0  0  0  0  0  0  0  0  0  0  0  0
  -18.4711   13.5643  -20.2829 N   0  0  0  0  0  0  0  0  0  0  0  0
  -17.4712   12.8307  -20.8543 C   0  0  0  0  0  0  0  0  0  0  0  0
  -17.4032   11.7216  -20.1203 N   0  0  0  0  0  0  0  0  0  0  0  0
  -18.3290   11.7516  -19.1175 C   0  0  0  0  0  0  0  0  0  0  0  0
  -18.6416   10.8474  -18.1109 C   0  0  0  0  0  0  0  0  0  0  0  0
  -16.7382   10.9304  -20.2789 H   0  0  0  0  0  0  0  0  0  0  0  0
  -16.7103   13.2754  -22.0199 C   0  0  0  0  0  0  0  0  0  0  0  0
  -16.7766   14.5829  -22.4624 C   0  0  0  0  0  0  0  0  0  0  0  0
  -17.6114   15.4819  -21.7443 N   0  0  0  0  0  0  0  0  0  0  0  0
  -16.0965   15.0836  -23.5452 C   0  0  0  0  0  0  0  0  0  0  0  0
  -16.1943   16.3918  -23.9468 C   0  0  0  0  0  0  0  0  0  0  0  0
  -15.4855   16.8149  -25.0350 C   0  0  0  0  0  0  0  0  0  0  0  0
  -14.6830   15.9403  -25.7206 C   0  0  0  0  0  0  0  0  0  0  0  0
  -14.5772   14.6274  -25.3275 C   0  0  0  0  0  0  0  0  0  0  0  0
  -15.2831   14.1707  -24.2295 C   0  0  0  0  0  0  0  0  0  0  0  0
  -15.1981   12.8922  -23.8229 N   0  0  0  0  0  0  0  0  0  0  0  0
  -15.8949   12.4413  -22.7385 C   0  0  0  0  0  0  0  0  0  0  0  0
  -15.7387   11.2344  -22.4528 O   0  0  0  0  0  0  0  0  0  0  0  0
  -18.6229   15.4989  -22.0147 H   0  0  0  0  0  0  0  0  0  0  0  0
  -17.2475   16.1011  -20.9820 H   0  0  0  0  0  0  0  0  0  0  0  0
  -14.5784   12.2585  -24.3692 H   0  0  0  0  0  0  0  0  0  0  0  0
  -18.9152    8.5431  -12.7903 C   0  0  0  0  0  0  0  0  0  0  0  0
  -19.9549    8.5974  -13.7996 N   0  0  0  0  0  0  0  0  0  0  0  0
  -19.5365    8.0226  -15.0374 C   0  0  0  0  0  0  0  0  0  0  0  0
  -19.0131    9.0368  -16.0228 C   0  0  0  0  0  0  0  0  0  0  0  0
  -19.9160   10.1551  -16.1903 N   0  0  0  0  0  0  0  0  0  0  0  0
  -21.0437   10.1996  -15.2933 C   0  0  0  0  0  0  0  0  0  0  0  0
  -20.5223    9.9027  -13.9021 C   0  0  0  0  0  0  0  0  0  0  0  0
 26 27  1  0  0  0
 27 28  1  0  0  0
 28 29  1  0  0  0
 29 30  1  0  0  0
 30 31  1  0  0  0
 31 32  1  0  0  0
 30  1  1  0  0  0
  1  2  2  0  0  0
  2  3  1  0  0  0
  3  4  2  0  0  0
  4  5  1  0  0  0
  5  6  2  0  0  0
  6  7  1  0  0  0
  7  8  1  0  0  0
  8  9  2  0  0  0
  6 11  1  0  0  0
 11 12  2  0  0  0
 12 13  1  0  0  0
 12 14  1  0  0  0
 14 15  2  0  0  0
 15 16  1  0  0  0
 16 17  2  0  0  0
 17 18  1  0  0  0
 18 19  2  0  0  0
 19 20  1  0  0  0
 20 21  1  0  0  0
 21 22  2  0  0  0
 32 27  1  0  0  0
  9  1  1  0  0  0
 21 11  1  0  0  0
  8  4  1  0  0  0
 19 14  1  0  0  0
  7 10  1  0  0  0
 13 23  1  0  0  0
 13 24  1  0  0  0
 20 25  1  0  0  0
M  END
> <minimizedAffinity>
-8.98466

> <CNNscore>
0.6200415492

> <CNNaffinity>
6.9271688461

> <CNN_VS>
4.2951326370

> <CNNaffinity_variance>
0.2663853765

$$$$
[H]c1c(N2C([H])([H])C([H])([H])N(C([H])([H])[H])C([H])([H])C2([H])[H])c([H])c2c(nc(-c3c(N([H])[H])c4c([H])c([H])c([H])c([H])c4n([H])c3=O)n2[H])c1[H]


 32 36  0  0  0  0  0  0  0  0999 V2000
  -19.9770   11.2845  -16.6950 C   0  0  0  0  0  0  0  0  0  0  0  0
  -20.6932   12.4282  -16.9721 C   0  0  0  0  0  0  0  0  0  0  0  0
  -20.4133   13.2585  -18.0250 C   0  0  0  0  0  0  0  0  0  0  0  0
  -19.3615   12.9640  -18.8774 C   0  0  0  0  0  0  0  0  0  0  0  0
  -18.8201   13.5155  -19.9545 N   0  0  0  0  0  0  0  0  0  0  0  0
  -17.7618   12.7895  -20.4210 C   0  0  0  0  0  0  0  0  0  0  0  0
  -17.6653   11.7569  -19.5855 N   0  0  0  0  0  0  0  0  0  0  0  0
  -18.6300   11.8264  -18.6222 C   0  0  0  0  0  0  0  0  0  0  0  0
  -18.9346   11.0012  -17.5475 C   0  0  0  0  0  0  0  0  0  0  0  0
  -16.9545   10.9925  -19.6473 H   0  0  0  0  0  0  0  0  0  0  0  0
  -16.9799   13.1681  -21.5959 C   0  0  0  0  0  0  0  0  0  0  0  0
  -16.9408   14.4764  -22.0392 C   0  0  0  0  0  0  0  0  0  0  0  0
  -17.6882   15.4428  -21.3125 N   0  0  0  0  0  0  0  0  0  0  0  0
  -16.2337   14.9177  -23.1305 C   0  0  0  0  0  0  0  0  0  0  0  0
  -16.2254   16.2293  -23.5326 C   0  0  0  0  0  0  0  0  0  0  0  0
  -15.4962   16.5908  -24.6296 C   0  0  0  0  0  0  0  0  0  0  0  0
  -14.7785   15.6514  -25.3234 C   0  0  0  0  0  0  0  0  0  0  0  0
  -14.7793   14.3343  -24.9300 C   0  0  0  0  0  0  0  0  0  0  0  0
  -15.5083   13.9391  -23.8232 C   0  0  0  0  0  0  0  0  0  0  0  0
  -15.5268   12.6582  -23.4160 N   0  0  0  0  0  0  0  0  0  0  0  0
  -16.2463   12.2680  -22.3230 C   0  0  0  0  0  0  0  0  0  0  0  0
  -16.1892   11.0522  -22.0377 O   0  0  0  0  0  0  0  0  0  0  0  0
  -18.6978   15.5451  -21.5711 H   0  0  0  0  0  0  0  0  0  0  0  0
  -17.2644   16.0293  -20.5553 H   0  0  0  0  0  0  0  0  0  0  0  0
  -14.9692   11.9743  -23.9687 H   0  0  0  0  0  0  0  0  0  0  0  0
  -22.8882    8.6603  -13.3590 C   0  0  0  0  0  0  0  0  0  0  0  0
  -21.4753    8.7187  -13.6797 N   0  0  0  0  0  0  0  0  0  0  0  0
  -20.8842    9.9586  -13.2914 C   0  0  0  0  0  0  0  0  0  0  0  0
  -20.8218   10.9690  -14.4089 C   0  0  0  0  0  0  0  0  0  0  0  0
  -20.2458   10.4165  -15.6160 N   0  0  0  0  0  0  0  0  0  0  0  0
  -19.9942    8.9970  -15.6065 C   0  0  0  0  0  0  0  0  0  0  0  0
  -21.2243    8.3273  -15.0288 C   0  0  0  0  0  0  0  0  0  0  0  0
 26 27  1  0  0  0
 27 28  1  0  0  0
 28 29  1  0  0  0
 29 30  1  0  0  0
 30 31  1  0  0  0
 31 32  1  0  0  0
 30  1  1  0  0  0
  1  2  2  0  0  0
  2  3  1  0  0  0
  3  4  2  0  0  0
  4  5  1  0  0  0
  5  6  2  0  0  0
  6  7  1  0  0  0
  7  8  1  0  0  0
  8  9  2  0  0  0
  6 11  1  0  0  0
 11 12  2  0  0  0
 12 13  1  0  0  0
 12 14  1  0  0  0
 14 15  2  0  0  0
 15 16  1  0  0  0
 16 17  2  0  0  0
 17 18  1  0  0  0
 18 19  2  0  0  0
 19 20  1  0  0  0
 20 21  1  0  0  0
 21 22  2  0  0  0
 32 27  1  0  0  0
  9  1  1  0  0  0
 21 11  1  0  0  0
  8  4  1  0  0  0
 19 14  1  0  0  0
  7 10  1  0  0  0
 13 23  1  0  0  0
 13 24  1  0  0  0
 20 25  1  0  0  0
M  END
> <minimizedAffinity>
-8.55751

> <CNNscore>
0.5601723790

> <CNNaffinity>
6.7515616417

> <CNN_VS>
3.7820384502

> <CNNaffinity_variance>
0.2194805443

$$$$
[H]c1c(N2C([H])([H])C([H])([H])N(C([H])([H])[H])C([H])([H])C2([H])[H])c([H])c2c(nc(-c3c(N([H])[H])c4c([H])c([H])c([H])c([H])c4n([H])c3=O)n2[H])c1[H]


 32 36  0  0  0  0  0  0  0  0999 V2000
  -16.4259   15.3337  -22.8873 C   0  0  0  0  0  0  0  0  0  0  0  0
  -16.6899   16.2175  -21.8641 C   0  0  0  0  0  0  0  0  0  0  0  0
  -17.1617   15.8334  -20.6368 C   0  0  0  0  0  0  0  0  0  0  0  0
  -17.3975   14.4934  -20.3749 C   0  0  0  0  0  0  0  0  0  0  0  0
  -17.8356   13.7828  -19.3450 N   0  0  0  0  0  0  0  0  0  0  0  0
  -17.8795   12.4480  -19.6294 C   0  0  0  0  0  0  0  0  0  0  0  0
  -17.4484   12.3552  -20.8860 N   0  0  0  0  0  0  0  0  0  0  0  0
  -17.1416   13.5899  -21.3811 C   0  0  0  0  0  0  0  0  0  0  0  0
  -16.6635   14.0055  -22.6169 C   0  0  0  0  0  0  0  0  0  0  0  0
  -17.3533   11.4670  -21.4295 H   0  0  0  0  0  0  0  0  0  0  0  0
  -18.3243   11.4348  -18.6751 C   0  0  0  0  0  0  0  0  0  0  0  0
  -19.4357   11.6390  -17.8794 C   0  0  0  0  0  0  0  0  0  0  0  0
  -20.1324   12.8699  -18.0210 N   0  0  0  0  0  0  0  0  0  0  0  0
  -19.9216   10.7425  -16.9596 C   0  0  0  0  0  0  0  0  0  0  0  0
  -21.0309   10.9903  -16.1914 C   0  0  0  0  0  0  0  0  0  0  0  0
  -21.4530   10.0477  -15.2976 C   0  0  0  0  0  0  0  0  0  0  0  0
  -20.7744    8.8637  -15.1688 C   0  0  0  0  0  0  0  0  0  0  0  0
  -19.6617    8.6043  -15.9331 C   0  0  0  0  0  0  0  0  0  0  0  0
  -19.2112    9.5400  -16.8462 C   0  0  0  0  0  0  0  0  0  0  0  0
  -18.1262    9.3126  -17.6066 N   0  0  0  0  0  0  0  0  0  0  0  0
  -17.6815   10.2365  -18.5086 C   0  0  0  0  0  0  0  0  0  0  0  0
  -16.6637    9.9168  -19.1603 O   0  0  0  0  0  0  0  0  0  0  0  0
  -19.7718   13.6789  -17.4623 H   0  0  0  0  0  0  0  0  0  0  0  0
  -20.9647   12.9769  -18.6477 H   0  0  0  0  0  0  0  0  0  0  0  0
  -17.6378    8.4018  -17.4800 H   0  0  0  0  0  0  0  0  0  0  0  0
  -15.5645   14.8517  -27.9387 C   0  0  0  0  0  0  0  0  0  0  0  0
  -15.3680   15.8921  -26.9481 N   0  0  0  0  0  0  0  0  0  0  0  0
  -14.3416   15.5606  -26.0130 C   0  0  0  0  0  0  0  0  0  0  0  0
  -14.8654   14.9371  -24.7440 C   0  0  0  0  0  0  0  0  0  0  0  0
  -15.9422   15.7067  -24.1589 N   0  0  0  0  0  0  0  0  0  0  0  0
  -16.4347   16.8090  -24.9468 C   0  0  0  0  0  0  0  0  0  0  0  0
  -16.6033   16.3059  -26.3659 C   0  0  0  0  0  0  0  0  0  0  0  0
 26 27  1  0  0  0
 27 28  1  0  0  0
 28 29  1  0  0  0
 29 30  1  0  0  0
 30 31  1  0  0  0
 31 32  1  0  0  0
 30  1  1  0  0  0
  1  2  2  0  0  0
  2  3  1  0  0  0
  3  4  2  0  0  0
  4  5  1  0  0  0
  5  6  2  0  0  0
  6  7  1  0  0  0
  7  8  1  0  0  0
  8  9  2  0  0  0
  6 11  1  0  0  0
 11 12  2  0  0  0
 12 13  1  0  0  0
 12 14  1  0  0  0
 14 15  2  0  0  0
 15 16  1  0  0  0
 16 17  2  0  0  0
 17 18  1  0  0  0
 18 19  2  0  0  0
 19 20  1  0  0  0
 20 21  1  0  0  0
 21 22  2  0  0  0
 32 27  1  0  0  0
  9  1  1  0  0  0
 21 11  1  0  0  0
  8  4  1  0  0  0
 19 14  1  0  0  0
  7 10  1  0  0  0
 13 23  1  0  0  0
 13 24  1  0  0  0
 20 25  1  0  0  0
M  END
> <minimizedAffinity>
-9.11930

> <CNNscore>
0.5400285721

> <CNNaffinity>
7.0388932228

> <CNN_VS>
3.8012034893

> <CNNaffinity_variance>
0.4603940845

$$$$
[H]c1c(N2C([H])([H])C([H])([H])N(C([H])([H])[H])C([H])([H])C2([H])[H])c([H])c2c(nc(-c3c(N([H])[H])c4c([H])c([H])c([H])c([H])c4n([H])c3=O)n2[H])c1[H]


 32 36  0  0  0  0  0  0  0  0999 V2000
  -18.6778   10.9391  -18.2233 C   0  0  0  0  0  0  0  0  0  0  0  0
  -17.7361   10.0422  -18.6776 C   0  0  0  0  0  0  0  0  0  0  0  0
  -16.9871   10.2403  -19.8073 C   0  0  0  0  0  0  0  0  0  0  0  0
  -17.1588   11.3924  -20.5577 C   0  0  0  0  0  0  0  0  0  0  0  0
  -16.6328   11.9010  -21.6632 N   0  0  0  0  0  0  0  0  0  0  0  0
  -17.1817   13.1110  -21.9782 C   0  0  0  0  0  0  0  0  0  0  0  0
  -18.0765   13.3370  -21.0181 N   0  0  0  0  0  0  0  0  0  0  0  0
  -18.0938   12.3048  -20.1248 C   0  0  0  0  0  0  0  0  0  0  0  0
  -18.8404   12.0798  -18.9757 C   0  0  0  0  0  0  0  0  0  0  0  0
  -18.6871   14.1827  -20.9464 H   0  0  0  0  0  0  0  0  0  0  0  0
  -16.7882   13.8949  -23.1468 C   0  0  0  0  0  0  0  0  0  0  0  0
  -17.0269   13.4383  -24.4292 C   0  0  0  0  0  0  0  0  0  0  0  0
  -17.6691   12.1783  -24.5730 N   0  0  0  0  0  0  0  0  0  0  0  0
  -16.6913   14.1090  -25.5795 C   0  0  0  0  0  0  0  0  0  0  0  0
  -16.9495   13.6145  -26.8329 C   0  0  0  0  0  0  0  0  0  0  0  0
  -16.5851   14.3419  -27.9300 C   0  0  0  0  0  0  0  0  0  0  0  0
  -15.9667   15.5560  -27.7807 C   0  0  0  0  0  0  0  0  0  0  0  0
  -15.7028   16.0616  -26.5300 C   0  0  0  0  0  0  0  0  0  0  0  0
  -16.0603   15.3474  -25.4011 C   0  0  0  0  0  0  0  0  0  0  0  0
  -15.8148   15.8179  -24.1661 N   0  0  0  0  0  0  0  0  0  0  0  0
  -16.1680   15.1128  -23.0513 C   0  0  0  0  0  0  0  0  0  0  0  0
  -15.8903   15.6481  -21.9563 O   0  0  0  0  0  0  0  0  0  0  0  0
  -17.0516   11.3328  -24.5498 H   0  0  0  0  0  0  0  0  0  0  0  0
  -18.7049   12.0852  -24.6966 H   0  0  0  0  0  0  0  0  0  0  0  0
  -15.3435   16.7436  -24.0937 H   0  0  0  0  0  0  0  0  0  0  0  0
  -19.6349   10.5783  -13.1791 C   0  0  0  0  0  0  0  0  0  0  0  0
  -20.4366   10.6071  -14.3870 N   0  0  0  0  0  0  0  0  0  0  0  0
  -20.2754    9.4248  -15.1703 C   0  0  0  0  0  0  0  0  0  0  0  0
  -19.2495    9.5669  -16.2662 C   0  0  0  0  0  0  0  0  0  0  0  0
  -19.4614   10.7550  -17.0648 N   0  0  0  0  0  0  0  0  0  0  0  0
  -20.4762   11.6637  -16.5928 C   0  0  0  0  0  0  0  0  0  0  0  0
  -20.2698   11.8311  -15.1013 C   0  0  0  0  0  0  0  0  0  0  0  0
 26 27  1  0  0  0
 27 28  1  0  0  0
 28 29  1  0  0  0
 29 30  1  0  0  0
 30 31  1  0  0  0
 31 32  1  0  0  0
 30  1  1  0  0  0
  1  2  2  0  0  0
  2  3  1  0  0  0
  3  4  2  0  0  0
  4  5  1  0  0  0
  5  6  2  0  0  0
  6  7  1  0  0  0
  7  8  1  0  0  0
  8  9  2  0  0  0
  6 11  1  0  0  0
 11 12  2  0  0  0
 12 13  1  0  0  0
 12 14  1  0  0  0
 14 15  2  0  0  0
 15 16  1  0  0  0
 16 17  2  0  0  0
 17 18  1  0  0  0
 18 19  2  0  0  0
 19 20  1  0  0  0
 20 21  1  0  0  0
 21 22  2  0  0  0
 32 27  1  0  0  0
  9  1  1  0  0  0
 21 11  1  0  0  0
  8  4  1  0  0  0
 19 14  1  0  0  0
  7 10  1  0  0  0
 13 23  1  0  0  0
 13 24  1  0  0  0
 20 25  1  0  0  0
M  END
> <minimizedAffinity>
-9.71581

> <CNNscore>
0.4354172647

> <CNNaffinity>
6.7801856995

> <CNN_VS>
2.9522099495

> <CNNaffinity_variance>
0.0494462922

$$$$
[H]c1c(N2C([H])([H])C([H])([H])N(C([H])([H])[H])C([H])([H])C2([H])[H])c([H])c2c(nc(-c3c(N([H])[H])c4c([H])c([H])c([H])c([H])c4n([H])c3=O)n2[H])c1[H]


 32 36  0  0  0  0  0  0  0  0999 V2000
  -16.3067   12.2030  -22.2999 C   0  0  0  0  0  0  0  0  0  0  0  0
  -15.6013   11.0810  -21.9242 C   0  0  0  0  0  0  0  0  0  0  0  0
  -15.8910   10.3460  -20.8051 C   0  0  0  0  0  0  0  0  0  0  0  0
  -16.9421   10.7212  -19.9841 C   0  0  0  0  0  0  0  0  0  0  0  0
  -17.4903   10.2688  -18.8650 N   0  0  0  0  0  0  0  0  0  0  0  0
  -18.5427   11.0415  -18.4651 C   0  0  0  0  0  0  0  0  0  0  0  0
  -18.6285   11.9995  -19.3861 N   0  0  0  0  0  0  0  0  0  0  0  0
  -17.6629   11.8391  -20.3376 C   0  0  0  0  0  0  0  0  0  0  0  0
  -17.3485   12.5671  -21.4777 C   0  0  0  0  0  0  0  0  0  0  0  0
  -19.3324   12.7727  -19.3918 H   0  0  0  0  0  0  0  0  0  0  0  0
  -19.3292   10.7726  -17.2633 C   0  0  0  0  0  0  0  0  0  0  0  0
  -19.1842    9.5907  -16.5618 C   0  0  0  0  0  0  0  0  0  0  0  0
  -18.2426    8.6442  -17.0497 N   0  0  0  0  0  0  0  0  0  0  0  0
  -19.8807    9.2582  -15.4260 C   0  0  0  0  0  0  0  0  0  0  0  0
  -19.7017    8.0706  -14.7629 C   0  0  0  0  0  0  0  0  0  0  0  0
  -20.4328    7.8125  -13.6384 C   0  0  0  0  0  0  0  0  0  0  0  0
  -21.3381    8.7320  -13.1758 C   0  0  0  0  0  0  0  0  0  0  0  0
  -21.5260    9.9252  -13.8319 C   0  0  0  0  0  0  0  0  0  0  0  0
  -20.7999   10.2138  -14.9729 C   0  0  0  0  0  0  0  0  0  0  0  0
  -20.9632   11.3728  -15.6340 N   0  0  0  0  0  0  0  0  0  0  0  0
  -20.2459   11.6579  -16.7606 C   0  0  0  0  0  0  0  0  0  0  0  0
  -20.4810   12.7650  -17.2914 O   0  0  0  0  0  0  0  0  0  0  0  0
  -18.5813    7.9861  -17.7905 H   0  0  0  0  0  0  0  0  0  0  0  0
  -17.2580    8.5957  -16.6960 H   0  0  0  0  0  0  0  0  0  0  0  0
  -21.6599   12.0455  -15.2518 H   0  0  0  0  0  0  0  0  0  0  0  0
  -16.5078   16.3169  -25.3862 C   0  0  0  0  0  0  0  0  0  0  0  0
  -15.7714   15.0680  -25.3701 N   0  0  0  0  0  0  0  0  0  0  0  0
  -16.6117   13.9423  -25.6237 C   0  0  0  0  0  0  0  0  0  0  0  0
  -17.1015   13.2650  -24.3687 C   0  0  0  0  0  0  0  0  0  0  0  0
  -16.0250   12.9759  -23.4458 N   0  0  0  0  0  0  0  0  0  0  0  0
  -14.7335   13.5172  -23.7884 C   0  0  0  0  0  0  0  0  0  0  0  0
  -14.9478   14.9565  -24.2101 C   0  0  0  0  0  0  0  0  0  0  0  0
 26 27  1  0  0  0
 27 28  1  0  0  0
 28 29  1  0  0  0
 29 30  1  0  0  0
 30 31  1  0  0  0
 31 32  1  0  0  0
 30  1  1  0  0  0
  1  2  2  0  0  0
  2  3  1  0  0  0
  3  4  2  0  0  0
  4  5  1  0  0  0
  5  6  2  0  0  0
  6  7  1  0  0  0
  7  8  1  0  0  0
  8  9  2  0  0  0
  6 11  1  0  0  0
 11 12  2  0  0  0
 12 13  1  0  0  0
 12 14  1  0  0  0
 14 15  2  0  0  0
 15 16  1  0  0  0
 16 17  2  0  0  0
 17 18  1  0  0  0
 18 19  2  0  0  0
 19 20  1  0  0  0
 20 21  1  0  0  0
 21 22  2  0  0  0
 32 27  1  0  0  0
  9  1  1  0  0  0
 21 11  1  0  0  0
  8  4  1  0  0  0
 19 14  1  0  0  0
  7 10  1  0  0  0
 13 23  1  0  0  0
 13 24  1  0  0  0
 20 25  1  0  0  0
M  END
> <minimizedAffinity>
-9.38009

> <CNNscore>
0.4241024852

> <CNNaffinity>
6.8306093216

> <CNN_VS>
2.8968784809

> <CNNaffinity_variance>
0.0419298597

$$$$
[H]c1c(N2C([H])([H])C([H])([H])N(C([H])([H])[H])C([H])([H])C2([H])[H])c([H])c2c(nc(-c3c(N([H])[H])c4c([H])c([H])c([H])c([H])c4n([H])c3=O)n2[H])c1[H]


 32 36  0  0  0  0  0  0  0  0999 V2000
  -18.5588   10.9211  -18.1262 C   0  0  0  0  0  0  0  0  0  0  0  0
  -17.6624   10.0128  -18.6448 C   0  0  0  0  0  0  0  0  0  0  0  0
  -16.9675   10.2166  -19.8076 C   0  0  0  0  0  0  0  0  0  0  0  0
  -17.1504   11.3867  -20.5266 C   0  0  0  0  0  0  0  0  0  0  0  0
  -16.6698   11.9053  -21.6480 N   0  0  0  0  0  0  0  0  0  0  0  0
  -17.2059   13.1331  -21.9119 C   0  0  0  0  0  0  0  0  0  0  0  0
  -18.0452   13.3598  -20.9031 N   0  0  0  0  0  0  0  0  0  0  0  0
  -18.0409   12.3108  -20.0295 C   0  0  0  0  0  0  0  0  0  0  0  0
  -18.7332   12.0797  -18.8480 C   0  0  0  0  0  0  0  0  0  0  0  0
  -18.6317   14.2173  -20.7845 H   0  0  0  0  0  0  0  0  0  0  0  0
  -16.8543   13.9311  -23.0844 C   0  0  0  0  0  0  0  0  0  0  0  0
  -17.0337   13.4414  -24.3642 C   0  0  0  0  0  0  0  0  0  0  0  0
  -17.5726   12.1332  -24.5015 N   0  0  0  0  0  0  0  0  0  0  0  0
  -16.7313   14.1222  -25.5178 C   0  0  0  0  0  0  0  0  0  0  0  0
  -16.9277   13.5935  -26.7684 C   0  0  0  0  0  0  0  0  0  0  0  0
  -16.6020   14.3337  -27.8692 C   0  0  0  0  0  0  0  0  0  0  0  0
  -16.0833   15.5944  -27.7262 C   0  0  0  0  0  0  0  0  0  0  0  0
  -15.8821   16.1346  -26.4783 C   0  0  0  0  0  0  0  0  0  0  0  0
  -16.2025   15.4084  -25.3458 C   0  0  0  0  0  0  0  0  0  0  0  0
  -16.0165   15.9119  -24.1134 N   0  0  0  0  0  0  0  0  0  0  0  0
  -16.3332   15.1950  -22.9951 C   0  0  0  0  0  0  0  0  0  0  0  0
  -16.1177   15.7639  -21.9030 O   0  0  0  0  0  0  0  0  0  0  0  0
  -16.8913   11.3392  -24.4565 H   0  0  0  0  0  0  0  0  0  0  0  0
  -18.5956   11.9575  -24.6411 H   0  0  0  0  0  0  0  0  0  0  0  0
  -15.6205   16.8725  -24.0458 H   0  0  0  0  0  0  0  0  0  0  0  0
  -22.7492   10.3791  -15.1873 C   0  0  0  0  0  0  0  0  0  0  0  0
  -21.3180   10.2685  -14.9827 N   0  0  0  0  0  0  0  0  0  0  0  0
  -20.6614   11.5334  -15.0651 C   0  0  0  0  0  0  0  0  0  0  0  0
  -20.0906   11.8246  -16.4300 C   0  0  0  0  0  0  0  0  0  0  0  0
  -19.2866   10.7315  -16.9327 N   0  0  0  0  0  0  0  0  0  0  0  0
  -19.3035    9.5201  -16.1513 C   0  0  0  0  0  0  0  0  0  0  0  0
  -20.7479    9.2394  -15.7902 C   0  0  0  0  0  0  0  0  0  0  0  0
 26 27  1  0  0  0
 27 28  1  0  0  0
 28 29  1  0  0  0
 29 30  1  0  0  0
 30 31  1  0  0  0
 31 32  1  0  0  0
 30  1  1  0  0  0
  1  2  2  0  0  0
  2  3  1  0  0  0
  3  4  2  0  0  0
  4  5  1  0  0  0
  5  6  2  0  0  0
  6  7  1  0  0  0
  7  8  1  0  0  0
  8  9  2  0  0  0
  6 11  1  0  0  0
 11 12  2  0  0  0
 12 13  1  0  0  0
 12 14  1  0  0  0
 14 15  2  0  0  0
 15 16  1  0  0  0
 16 17  2  0  0  0
 17 18  1  0  0  0
 18 19  2  0  0  0
 19 20  1  0  0  0
 20 21  1  0  0  0
 21 22  2  0  0  0
 32 27  1  0  0  0
  9  1  1  0  0  0
 21 11  1  0  0  0
  8  4  1  0  0  0
 19 14  1  0  0  0
  7 10  1  0  0  0
 13 23  1  0  0  0
 13 24  1  0  0  0
 20 25  1  0  0  0
M  END
> <minimizedAffinity>
-9.49414

> <CNNscore>
0.4071890116

> <CNNaffinity>
6.7454161644

> <CNN_VS>
2.7466592789

> <CNNaffinity_variance>
0.0393180363

$$$$
[H]c1c(N2C([H])([H])C([H])([H])N(C([H])([H])[H])C([H])([H])C2([H])[H])c([H])c2c(nc(-c3c(N([H])[H])c4c([H])c([H])c([H])c([H])c4n([H])c3=O)n2[H])c1[H]


 32 36  0  0  0  0  0  0  0  0999 V2000
  -16.2041   13.6267  -22.9743 C   0  0  0  0  0  0  0  0  0  0  0  0
  -15.7849   12.3170  -22.8938 C   0  0  0  0  0  0  0  0  0  0  0  0
  -16.2241   11.4405  -21.9370 C   0  0  0  0  0  0  0  0  0  0  0  0
  -17.1385   11.8586  -20.9836 C   0  0  0  0  0  0  0  0  0  0  0  0
  -17.7601   11.3099  -19.9492 N   0  0  0  0  0  0  0  0  0  0  0  0
  -18.5870   12.1978  -19.3227 C   0  0  0  0  0  0  0  0  0  0  0  0
  -18.4545   13.3289  -20.0130 N   0  0  0  0  0  0  0  0  0  0  0  0
  -17.5733   13.1631  -21.0424 C   0  0  0  0  0  0  0  0  0  0  0  0
  -17.1121   14.0317  -22.0229 C   0  0  0  0  0  0  0  0  0  0  0  0
  -18.9502   14.2260  -19.8063 H   0  0  0  0  0  0  0  0  0  0  0  0
  -19.3939   11.8600  -18.1522 C   0  0  0  0  0  0  0  0  0  0  0  0
  -19.1709   10.6971  -17.4398 C   0  0  0  0  0  0  0  0  0  0  0  0
  -18.1284    9.8393  -17.8848 N   0  0  0  0  0  0  0  0  0  0  0  0
  -19.8798   10.3040  -16.3313 C   0  0  0  0  0  0  0  0  0  0  0  0
  -19.6209    9.1383  -15.6558 C   0  0  0  0  0  0  0  0  0  0  0  0
  -20.3706    8.8162  -14.5604 C   0  0  0  0  0  0  0  0  0  0  0  0
  -21.3734    9.6503  -14.1390 C   0  0  0  0  0  0  0  0  0  0  0  0
  -21.6420   10.8207  -14.8079 C   0  0  0  0  0  0  0  0  0  0  0  0
  -20.8994   11.1728  -15.9201 C   0  0  0  0  0  0  0  0  0  0  0  0
  -21.1402   12.3113  -16.5929 N   0  0  0  0  0  0  0  0  0  0  0  0
  -20.4067   12.6591  -17.6911 C   0  0  0  0  0  0  0  0  0  0  0  0
  -20.7194   13.7397  -18.2363 O   0  0  0  0  0  0  0  0  0  0  0  0
  -18.3758    9.1523  -18.6354 H   0  0  0  0  0  0  0  0  0  0  0  0
  -17.1586    9.8808  -17.4915 H   0  0  0  0  0  0  0  0  0  0  0  0
  -21.9099   12.9185  -16.2423 H   0  0  0  0  0  0  0  0  0  0  0  0
  -15.5201   15.5215  -27.7106 C   0  0  0  0  0  0  0  0  0  0  0  0
  -15.2866   15.9959  -26.3605 N   0  0  0  0  0  0  0  0  0  0  0  0
  -14.2292   15.2873  -25.7144 C   0  0  0  0  0  0  0  0  0  0  0  0
  -14.7100   14.1451  -24.8555 C   0  0  0  0  0  0  0  0  0  0  0  0
  -15.7639   14.5468  -23.9488 N   0  0  0  0  0  0  0  0  0  0  0  0
  -16.2808   15.8806  -24.1284 C   0  0  0  0  0  0  0  0  0  0  0  0
  -16.4999   16.0804  -25.6142 C   0  0  0  0  0  0  0  0  0  0  0  0
 26 27  1  0  0  0
 27 28  1  0  0  0
 28 29  1  0  0  0
 29 30  1  0  0  0
 30 31  1  0  0  0
 31 32  1  0  0  0
 30  1  1  0  0  0
  1  2  2  0  0  0
  2  3  1  0  0  0
  3  4  2  0  0  0
  4  5  1  0  0  0
  5  6  2  0  0  0
  6  7  1  0  0  0
  7  8  1  0  0  0
  8  9  2  0  0  0
  6 11  1  0  0  0
 11 12  2  0  0  0
 12 13  1  0  0  0
 12 14  1  0  0  0
 14 15  2  0  0  0
 15 16  1  0  0  0
 16 17  2  0  0  0
 17 18  1  0  0  0
 18 19  2  0  0  0
 19 20  1  0  0  0
 20 21  1  0  0  0
 21 22  2  0  0  0
 32 27  1  0  0  0
  9  1  1  0  0  0
 21 11  1  0  0  0
  8  4  1  0  0  0
 19 14  1  0  0  0
  7 10  1  0  0  0
 13 23  1  0  0  0
 13 24  1  0  0  0
 20 25  1  0  0  0
M  END
> <minimizedAffinity>
-9.20313

> <CNNscore>
0.3387506902

> <CNNaffinity>
6.7798109055

> <CNN_VS>
2.2966656685

> <CNNaffinity_variance>
0.1805091500

$$$$
[H]c1c(N2C([H])([H])C([H])([H])N(C([H])([H])[H])C([H])([H])C2([H])[H])c([H])c2c(nc(-c3c(N([H])[H])c4c([H])c([H])c([H])c([H])c4n([H])c3=O)n2[H])c1[H]


 32 36  0  0  0  0  0  0  0  0999 V2000
  -16.9736   12.3124  -21.4964 C   0  0  0  0  0  0  0  0  0  0  0  0
  -16.2391   11.1623  -21.3080 C   0  0  0  0  0  0  0  0  0  0  0  0
  -16.4502   10.2923  -20.2712 C   0  0  0  0  0  0  0  0  0  0  0  0
  -17.4467   10.5504  -19.3437 C   0  0  0  0  0  0  0  0  0  0  0  0
  -17.9172    9.9574  -18.2554 N   0  0  0  0  0  0  0  0  0  0  0  0
  -18.9449   10.6614  -17.6961 C   0  0  0  0  0  0  0  0  0  0  0  0
  -19.0965   11.7235  -18.4849 N   0  0  0  0  0  0  0  0  0  0  0  0
  -18.1951   11.6934  -19.5097 C   0  0  0  0  0  0  0  0  0  0  0  0
  -17.9606   12.5593  -20.5698 C   0  0  0  0  0  0  0  0  0  0  0  0
  -19.8033   12.4821  -18.3498 H   0  0  0  0  0  0  0  0  0  0  0  0
  -19.6487   10.2372  -16.4878 C   0  0  0  0  0  0  0  0  0  0  0  0
  -19.3043    9.0717  -15.8300 C   0  0  0  0  0  0  0  0  0  0  0  0
  -18.2407    8.2982  -16.3694 N   0  0  0  0  0  0  0  0  0  0  0  0
  -19.9112    8.6006  -14.6918 C   0  0  0  0  0  0  0  0  0  0  0  0
  -19.5333    7.4358  -14.0732 C   0  0  0  0  0  0  0  0  0  0  0  0
  -20.1862    7.0333  -12.9430 C   0  0  0  0  0  0  0  0  0  0  0  0
  -21.2104    7.7864  -12.4305 C   0  0  0  0  0  0  0  0  0  0  0  0
  -21.5978    8.9551  -13.0416 C   0  0  0  0  0  0  0  0  0  0  0  0
  -20.9550    9.3876  -14.1872 C   0  0  0  0  0  0  0  0  0  0  0  0
  -21.3128   10.5265  -14.8051 N   0  0  0  0  0  0  0  0  0  0  0  0
  -20.6780   10.9537  -15.9361 C   0  0  0  0  0  0  0  0  0  0  0  0
  -21.0952   12.0263  -16.4241 O   0  0  0  0  0  0  0  0  0  0  0  0
  -18.4927    7.6181  -17.1248 H   0  0  0  0  0  0  0  0  0  0  0  0
  -17.2516    8.3928  -16.0384 H   0  0  0  0  0  0  0  0  0  0  0  0
  -22.0951   11.0709  -14.3857 H   0  0  0  0  0  0  0  0  0  0  0  0
  -16.8614   13.9202  -26.3844 C   0  0  0  0  0  0  0  0  0  0  0  0
  -16.6937   14.5409  -25.0848 N   0  0  0  0  0  0  0  0  0  0  0  0
  -15.4889   14.1276  -24.4403 C   0  0  0  0  0  0  0  0  0  0  0  0
  -15.6855   12.9825  -23.4792 C   0  0  0  0  0  0  0  0  0  0  0  0
  -16.7725   13.2232  -22.5547 N   0  0  0  0  0  0  0  0  0  0  0  0
  -17.5699   14.3978  -22.8054 C   0  0  0  0  0  0  0  0  0  0  0  0
  -17.8730   14.4258  -24.2896 C   0  0  0  0  0  0  0  0  0  0  0  0
 26 27  1  0  0  0
 27 28  1  0  0  0
 28 29  1  0  0  0
 29 30  1  0  0  0
 30 31  1  0  0  0
 31 32  1  0  0  0
 30  1  1  0  0  0
  1  2  2  0  0  0
  2  3  1  0  0  0
  3  4  2  0  0  0
  4  5  1  0  0  0
  5  6  2  0  0  0
  6  7  1  0  0  0
  7  8  1  0  0  0
  8  9  2  0  0  0
  6 11  1  0  0  0
 11 12  2  0  0  0
 12 13  1  0  0  0
 12 14  1  0  0  0
 14 15  2  0  0  0
 15 16  1  0  0  0
 16 17  2  0  0  0
 17 18  1  0  0  0
 18 19  2  0  0  0
 19 20  1  0  0  0
 20 21  1  0  0  0
 21 22  2  0  0  0
 32 27  1  0  0  0
  9  1  1  0  0  0
 21 11  1  0  0  0
  8  4  1  0  0  0
 19 14  1  0  0  0
  7 10  1  0  0  0
 13 23  1  0  0  0
 13 24  1  0  0  0
 20 25  1  0  0  0
M  END
> <minimizedAffinity>
-9.18689

> <CNNscore>
0.3057210743

> <CNNaffinity>
6.4472017288

> <CNN_VS>
1.9710454941

> <CNNaffinity_variance>
0.0082217837

$$$$
[H]c1c([H])c([H])c2c(c1[H])c1c3c(c4c5c([H])c([H])c([H])c([H])c5n5c4c1n2[C@@]1([H])O[C@]5(C([H])([H])[H])[C@@]([H])(OC([H])([H])[H])[C@@]([H])(N([H])C([H])([H])[H])C1([H])[H])C([H])([H])N([H])C3=O


 37 44  0  0  0  0  0  0  0  0999 V2000
  -18.4885   17.6628  -20.0214 C   0  0  0  0  0  0  0  0  0  0  0  0
  -18.1780   17.2273  -21.3938 C   0  0  0  0  0  0  0  0  0  0  0  0
  -19.0877   16.1821  -21.9513 C   0  0  0  0  0  0  0  0  0  0  0  0
  -20.2116   15.9130  -21.3432 O   0  0  0  0  0  0  0  0  0  0  0  0
  -20.3989   15.9881  -19.9822 C   0  0  0  0  0  0  0  0  0  0  0  0
  -21.9380   16.0626  -19.9064 C   0  0  0  0  0  0  0  0  0  0  0  0
  -19.8389   17.2429  -19.4855 C   0  0  0  0  0  0  0  0  0  0  0  0
  -19.9124   14.7568  -19.3827 N   0  0  0  0  0  0  0  0  0  0  0  0
  -20.2858   14.1845  -18.2337 C   0  0  0  0  0  0  0  0  0  0  0  0
  -21.1738   14.5599  -17.2704 C   0  0  0  0  0  0  0  0  0  0  0  0
  -21.3743   13.7648  -16.1519 C   0  0  0  0  0  0  0  0  0  0  0  0
  -20.7063   12.5812  -15.9535 C   0  0  0  0  0  0  0  0  0  0  0  0
  -19.7932   12.1846  -16.9324 C   0  0  0  0  0  0  0  0  0  0  0  0
  -19.6154   12.9934  -18.0307 C   0  0  0  0  0  0  0  0  0  0  0  0
  -18.7806   12.8283  -19.1215 C   0  0  0  0  0  0  0  0  0  0  0  0
  -17.8791   11.8397  -19.4908 C   0  0  0  0  0  0  0  0  0  0  0  0
  -17.5090   10.5862  -18.7661 C   0  0  0  0  0  0  0  0  0  0  0  0
  -16.5505    9.9260  -19.6051 N   0  0  0  0  0  0  0  0  0  0  0  0
  -16.3082   10.7157  -20.7665 C   0  0  0  0  0  0  0  0  0  0  0  0
  -15.5061   10.3595  -21.6333 O   0  0  0  0  0  0  0  0  0  0  0  0
  -17.1499   11.8936  -20.6607 C   0  0  0  0  0  0  0  0  0  0  0  0
  -17.3640   12.9991  -21.4574 C   0  0  0  0  0  0  0  0  0  0  0  0
  -16.8391   13.4196  -22.6610 C   0  0  0  0  0  0  0  0  0  0  0  0
  -15.9206   12.9005  -23.5286 C   0  0  0  0  0  0  0  0  0  0  0  0
  -15.6183   13.6119  -24.6892 C   0  0  0  0  0  0  0  0  0  0  0  0
  -16.2075   14.8183  -24.9987 C   0  0  0  0  0  0  0  0  0  0  0  0
  -17.1346   15.3407  -24.1209 C   0  0  0  0  0  0  0  0  0  0  0  0
  -17.4297   14.6484  -22.9901 C   0  0  0  0  0  0  0  0  0  0  0  0
  -18.2824   14.9494  -22.0088 N   0  0  0  0  0  0  0  0  0  0  0  0
  -18.2629   13.9832  -21.0864 C   0  0  0  0  0  0  0  0  0  0  0  0
  -18.9816   13.8998  -19.9092 C   0  0  0  0  0  0  0  0  0  0  0  0
  -16.0993    8.9910  -19.3800 H   0  0  0  0  0  0  0  0  0  0  0  0
  -16.2466   17.0286  -19.8199 C   0  0  0  0  0  0  0  0  0  0  0  0
  -17.4624   17.2362  -19.0609 N   0  0  0  0  0  0  0  0  0  0  0  0
  -17.2656   17.9423  -18.3458 H   0  0  0  0  0  0  0  0  0  0  0  0
  -19.7267   17.4096  -18.1140 O   0  0  0  0  0  0  0  0  0  0  0  0
  -20.4321   18.4536  -17.5843 C   0  0  0  0  0  0  0  0  0  0  0  0
 33 34  1  0  0  0
 34  1  1  0  0  0
  1  2  1  0  0  0
  2  3  1  0  0  0
  3  4  1  0  0  0
  4  5  1  0  0  0
  5  6  1  0  0  0
  5  7  1  0  0  0
  7 36  1  0  0  0
 36 37  1  0  0  0
  5  8  1  0  0  0
  8  9  1  0  0  0
  9 10  2  0  0  0
 10 11  1  0  0  0
 11 12  2  0  0  0
 12 13  1  0  0  0
 13 14  2  0  0  0
 14 15  1  0  0  0
 15 16  2  0  0  0
 16 17  1  0  0  0
 17 18  1  0  0  0
 18 19  1  0  0  0
 19 20  2  0  0  0
 19 21  1  0  0  0
 21 22  2  0  0  0
 22 23  1  0  0  0
 23 24  2  0  0  0
 24 25  1  0  0  0
 25 26  2  0  0  0
 26 27  1  0  0  0
 27 28  2  0  0  0
 28 29  1  0  0  0
 29 30  1  0  0  0
 30 31  2  0  0  0
  7  1  1  0  0  0
 31  8  1  0  0  0
 29  3  1  0  0  0
 14  9  1  0  0  0
 31 15  1  0  0  0
 21 16  1  0  0  0
 30 22  1  0  0  0
 28 23  1  0  0  0
 34 35  1  0  0  0
 18 32  1  0  0  0
M  END
> <minimizedAffinity>
-10.84376

> <CNNscore>
0.7799381614

> <CNNaffinity>
7.3111748695

> <CNN_VS>
5.7022643089

> <CNNaffinity_variance>
0.1290091127

$$$$
[H]c1c([H])c([H])c2c(c1[H])c1c3c(c4c5c([H])c([H])c([H])c([H])c5n5c4c1n2[C@@]1([H])O[C@]5(C([H])([H])[H])[C@@]([H])(OC([H])([H])[H])[C@@]([H])(N([H])C([H])([H])[H])C1([H])[H])C([H])([H])N([H])C3=O


 37 44  0  0  0  0  0  0  0  0999 V2000
  -18.4503   17.7394  -20.0108 C   0  0  0  0  0  0  0  0  0  0  0  0
  -18.1675   17.6138  -21.4508 C   0  0  0  0  0  0  0  0  0  0  0  0
  -18.9999   16.6092  -22.1779 C   0  0  0  0  0  0  0  0  0  0  0  0
  -20.0619   16.1127  -21.6027 O   0  0  0  0  0  0  0  0  0  0  0  0
  -20.1885   15.9016  -20.2490 C   0  0  0  0  0  0  0  0  0  0  0  0
  -21.7221   15.8011  -20.1148 C   0  0  0  0  0  0  0  0  0  0  0  0
  -19.7266   17.0865  -19.5296 C   0  0  0  0  0  0  0  0  0  0  0  0
  -19.5583   14.6338  -19.9206 N   0  0  0  0  0  0  0  0  0  0  0  0
  -19.8188   13.8135  -18.8977 C   0  0  0  0  0  0  0  0  0  0  0  0
  -20.6901   13.9007  -17.8534 C   0  0  0  0  0  0  0  0  0  0  0  0
  -20.7590   12.8868  -16.9097 C   0  0  0  0  0  0  0  0  0  0  0  0
  -19.9725   11.7623  -16.9701 C   0  0  0  0  0  0  0  0  0  0  0  0
  -19.0749   11.6600  -18.0346 C   0  0  0  0  0  0  0  0  0  0  0  0
  -19.0289   12.6811  -18.9551 C   0  0  0  0  0  0  0  0  0  0  0  0
  -18.2368   12.8183  -20.0810 C   0  0  0  0  0  0  0  0  0  0  0  0
  -17.2645   12.0187  -20.6656 C   0  0  0  0  0  0  0  0  0  0  0  0
  -16.7418   10.6929  -20.2154 C   0  0  0  0  0  0  0  0  0  0  0  0
  -15.7672   10.3109  -21.1966 N   0  0  0  0  0  0  0  0  0  0  0  0
  -15.6583   11.3323  -22.1846 C   0  0  0  0  0  0  0  0  0  0  0  0
  -14.8696   11.2362  -23.1281 O   0  0  0  0  0  0  0  0  0  0  0  0
  -16.6021   12.3741  -21.8224 C   0  0  0  0  0  0  0  0  0  0  0  0
  -16.9591   13.5855  -22.3769 C   0  0  0  0  0  0  0  0  0  0  0  0
  -16.5363   14.2841  -23.4879 C   0  0  0  0  0  0  0  0  0  0  0  0
  -15.6163   14.0412  -24.4679 C   0  0  0  0  0  0  0  0  0  0  0  0
  -15.4403   14.9922  -25.4724 C   0  0  0  0  0  0  0  0  0  0  0  0
  -16.1560   16.1686  -25.5186 C   0  0  0  0  0  0  0  0  0  0  0  0
  -17.0844   16.4119  -24.5277 C   0  0  0  0  0  0  0  0  0  0  0  0
  -17.2565   15.4860  -23.5489 C   0  0  0  0  0  0  0  0  0  0  0  0
  -18.0848   15.5008  -22.5028 N   0  0  0  0  0  0  0  0  0  0  0  0
  -17.9283   14.3807  -21.7916 C   0  0  0  0  0  0  0  0  0  0  0  0
  -18.5771   13.9962  -20.6339 C   0  0  0  0  0  0  0  0  0  0  0  0
  -15.2186    9.4014  -21.1750 H   0  0  0  0  0  0  0  0  0  0  0  0
  -16.1605   17.2643  -20.0214 C   0  0  0  0  0  0  0  0  0  0  0  0
  -17.3423   17.2419  -19.1846 N   0  0  0  0  0  0  0  0  0  0  0  0
  -17.1563   17.8310  -18.3680 H   0  0  0  0  0  0  0  0  0  0  0  0
  -19.5638   16.9937  -18.1562 O   0  0  0  0  0  0  0  0  0  0  0  0
  -20.3298   17.8445  -17.4097 C   0  0  0  0  0  0  0  0  0  0  0  0
 33 34  1  0  0  0
 34  1  1  0  0  0
  1  2  1  0  0  0
  2  3  1  0  0  0
  3  4  1  0  0  0
  4  5  1  0  0  0
  5  6  1  0  0  0
  5  7  1  0  0  0
  7 36  1  0  0  0
 36 37  1  0  0  0
  5  8  1  0  0  0
  8  9  1  0  0  0
  9 10  2  0  0  0
 10 11  1  0  0  0
 11 12  2  0  0  0
 12 13  1  0  0  0
 13 14  2  0  0  0
 14 15  1  0  0  0
 15 16  2  0  0  0
 16 17  1  0  0  0
 17 18  1  0  0  0
 18 19  1  0  0  0
 19 20  2  0  0  0
 19 21  1  0  0  0
 21 22  2  0  0  0
 22 23  1  0  0  0
 23 24  2  0  0  0
 24 25  1  0  0  0
 25 26  2  0  0  0
 26 27  1  0  0  0
 27 28  2  0  0  0
 28 29  1  0  0  0
 29 30  1  0  0  0
 30 31  2  0  0  0
  7  1  1  0  0  0
 31  8  1  0  0  0
 29  3  1  0  0  0
 14  9  1  0  0  0
 31 15  1  0  0  0
 21 16  1  0  0  0
 30 22  1  0  0  0
 28 23  1  0  0  0
 34 35  1  0  0  0
 18 32  1  0  0  0
M  END
> <minimizedAffinity>
-10.84579

> <CNNscore>
0.6823404431

> <CNNaffinity>
7.2208418846

> <CNN_VS>
4.9270725250

> <CNNaffinity_variance>
0.1495412290

$$$$
[H]c1c([H])c([H])c2c(c1[H])c1c3c(c4c5c([H])c([H])c([H])c([H])c5n5c4c1n2[C@@]1([H])O[C@]5(C([H])([H])[H])[C@@]([H])(OC([H])([H])[H])[C@@]([H])(N([H])C([H])([H])[H])C1([H])[H])C([H])([H])N([H])C3=O


 37 44  0  0  0  0  0  0  0  0999 V2000
  -18.2873   18.5909  -20.7620 C   0  0  0  0  0  0  0  0  0  0  0  0
  -17.9092   18.2882  -22.1530 C   0  0  0  0  0  0  0  0  0  0  0  0
  -18.8004   17.3195  -22.8588 C   0  0  0  0  0  0  0  0  0  0  0  0
  -19.9583   17.0112  -22.3399 O   0  0  0  0  0  0  0  0  0  0  0  0
  -20.2173   16.9542  -20.9899 C   0  0  0  0  0  0  0  0  0  0  0  0
  -21.7573   17.0477  -20.9873 C   0  0  0  0  0  0  0  0  0  0  0  0
  -19.6695   18.1436  -20.3419 C   0  0  0  0  0  0  0  0  0  0  0  0
  -19.7788   15.6612  -20.4919 N   0  0  0  0  0  0  0  0  0  0  0  0
  -20.2201   14.9845  -19.4268 C   0  0  0  0  0  0  0  0  0  0  0  0
  -21.1537   15.2780  -18.4784 C   0  0  0  0  0  0  0  0  0  0  0  0
  -21.4236   14.3796  -17.4568 C   0  0  0  0  0  0  0  0  0  0  0  0
  -20.7816   13.1707  -17.3432 C   0  0  0  0  0  0  0  0  0  0  0  0
  -19.8223   12.8572  -18.3080 C   0  0  0  0  0  0  0  0  0  0  0  0
  -19.5761   13.7676  -19.3092 C   0  0  0  0  0  0  0  0  0  0  0  0
  -18.6862   13.6968  -20.3661 C   0  0  0  0  0  0  0  0  0  0  0  0
  -17.7783   12.7341  -20.7849 C   0  0  0  0  0  0  0  0  0  0  0  0
  -17.4629   11.4087  -20.1707 C   0  0  0  0  0  0  0  0  0  0  0  0
  -16.4689   10.8183  -21.0203 N   0  0  0  0  0  0  0  0  0  0  0  0
  -16.1551   11.7148  -22.0829 C   0  0  0  0  0  0  0  0  0  0  0  0
  -15.3122   11.4324  -22.9380 O   0  0  0  0  0  0  0  0  0  0  0  0
  -16.9869   12.8910  -21.9040 C   0  0  0  0  0  0  0  0  0  0  0  0
  -17.1445   14.0736  -22.5962 C   0  0  0  0  0  0  0  0  0  0  0  0
  -16.5508   14.6021  -23.7228 C   0  0  0  0  0  0  0  0  0  0  0  0
  -15.5936   14.1556  -24.5890 C   0  0  0  0  0  0  0  0  0  0  0  0
  -15.2209   14.9731  -25.6553 C   0  0  0  0  0  0  0  0  0  0  0  0
  -15.7779   16.2143  -25.8730 C   0  0  0  0  0  0  0  0  0  0  0  0
  -16.7442   16.6633  -24.9969 C   0  0  0  0  0  0  0  0  0  0  0  0
  -17.1079   15.8676  -23.9579 C   0  0  0  0  0  0  0  0  0  0  0  0
  -18.0082   16.0847  -22.9971 N   0  0  0  0  0  0  0  0  0  0  0  0
  -18.0499   15.0316  -22.1761 C   0  0  0  0  0  0  0  0  0  0  0  0
  -18.8316   14.8445  -21.0521 C   0  0  0  0  0  0  0  0  0  0  0  0
  -16.0419    9.8578  -20.8666 H   0  0  0  0  0  0  0  0  0  0  0  0
  -16.0754   17.8727  -20.5160 C   0  0  0  0  0  0  0  0  0  0  0  0
  -17.3194   18.0534  -19.7968 N   0  0  0  0  0  0  0  0  0  0  0  0
  -17.1373   18.6903  -19.0159 H   0  0  0  0  0  0  0  0  0  0  0  0
  -19.6290   18.1716  -18.9565 O   0  0  0  0  0  0  0  0  0  0  0  0
  -20.3939   19.1348  -18.3607 C   0  0  0  0  0  0  0  0  0  0  0  0
 33 34  1  0  0  0
 34  1  1  0  0  0
  1  2  1  0  0  0
  2  3  1  0  0  0
  3  4  1  0  0  0
  4  5  1  0  0  0
  5  6  1  0  0  0
  5  7  1  0  0  0
  7 36  1  0  0  0
 36 37  1  0  0  0
  5  8  1  0  0  0
  8  9  1  0  0  0
  9 10  2  0  0  0
 10 11  1  0  0  0
 11 12  2  0  0  0
 12 13  1  0  0  0
 13 14  2  0  0  0
 14 15  1  0  0  0
 15 16  2  0  0  0
 16 17  1  0  0  0
 17 18  1  0  0  0
 18 19  1  0  0  0
 19 20  2  0  0  0
 19 21  1  0  0  0
 21 22  2  0  0  0
 22 23  1  0  0  0
 23 24  2  0  0  0
 24 25  1  0  0  0
 25 26  2  0  0  0
 26 27  1  0  0  0
 27 28  2  0  0  0
 28 29  1  0  0  0
 29 30  1  0  0  0
 30 31  2  0  0  0
  7  1  1  0  0  0
 31  8  1  0  0  0
 29  3  1  0  0  0
 14  9  1  0  0  0
 31 15  1  0  0  0
 21 16  1  0  0  0
 30 22  1  0  0  0
 28 23  1  0  0  0
 34 35  1  0  0  0
 18 32  1  0  0  0
M  END
> <minimizedAffinity>
-10.66349

> <CNNscore>
0.5659241080

> <CNNaffinity>
6.9780435562

> <CNN_VS>
3.9490430355

> <CNNaffinity_variance>
0.1541037560

$$$$
[H]c1c([H])c([H])c2c(c1[H])c1c3c(c4c5c([H])c([H])c([H])c([H])c5n5c4c1n2[C@@]1([H])O[C@]5(C([H])([H])[H])[C@@]([H])(OC([H])([H])[H])[C@@]([H])(N([H])C([H])([H])[H])C1([H])[H])C([H])([H])N([H])C3=O


 37 44  0  0  0  0  0  0  0  0999 V2000
  -21.5674   15.5230  -18.7314 C   0  0  0  0  0  0  0  0  0  0  0  0
  -21.2110   14.4715  -17.7637 C   0  0  0  0  0  0  0  0  0  0  0  0
  -19.8057   14.5194  -17.2599 C   0  0  0  0  0  0  0  0  0  0  0  0
  -19.0792   15.5833  -17.4732 O   0  0  0  0  0  0  0  0  0  0  0  0
  -19.1830   16.3882  -18.5843 C   0  0  0  0  0  0  0  0  0  0  0  0
  -18.4987   17.6735  -18.0744 C   0  0  0  0  0  0  0  0  0  0  0  0
  -20.5921   16.6731  -18.8450 C   0  0  0  0  0  0  0  0  0  0  0  0
  -18.4135   15.7871  -19.6608 N   0  0  0  0  0  0  0  0  0  0  0  0
  -17.8450   16.3838  -20.7134 C   0  0  0  0  0  0  0  0  0  0  0  0
  -17.8265   17.6812  -21.1303 C   0  0  0  0  0  0  0  0  0  0  0  0
  -17.1471   18.0379  -22.2856 C   0  0  0  0  0  0  0  0  0  0  0  0
  -16.4696   17.1272  -23.0590 C   0  0  0  0  0  0  0  0  0  0  0  0
  -16.4807   15.7942  -22.6437 C   0  0  0  0  0  0  0  0  0  0  0  0
  -17.1627   15.4704  -21.4940 C   0  0  0  0  0  0  0  0  0  0  0  0
  -17.3249   14.2404  -20.8818 C   0  0  0  0  0  0  0  0  0  0  0  0
  -16.8764   12.9610  -21.1793 C   0  0  0  0  0  0  0  0  0  0  0  0
  -16.0426   12.5010  -22.3312 C   0  0  0  0  0  0  0  0  0  0  0  0
  -15.8612   11.0913  -22.1354 N   0  0  0  0  0  0  0  0  0  0  0  0
  -16.5523   10.6796  -20.9589 C   0  0  0  0  0  0  0  0  0  0  0  0
  -16.5546    9.5025  -20.5904 O   0  0  0  0  0  0  0  0  0  0  0  0
  -17.1688   11.8658  -20.3931 C   0  0  0  0  0  0  0  0  0  0  0  0
  -17.9442   12.1099  -19.2788 C   0  0  0  0  0  0  0  0  0  0  0  0
  -18.4504   11.3074  -18.2784 C   0  0  0  0  0  0  0  0  0  0  0  0
  -18.3688    9.9725  -18.0003 C   0  0  0  0  0  0  0  0  0  0  0  0
  -19.0216    9.4824  -16.8698 C   0  0  0  0  0  0  0  0  0  0  0  0
  -19.7469   10.2885  -16.0198 C   0  0  0  0  0  0  0  0  0  0  0  0
  -19.8282   11.6362  -16.3028 C   0  0  0  0  0  0  0  0  0  0  0  0
  -19.1925   12.1145  -17.4038 C   0  0  0  0  0  0  0  0  0  0  0  0
  -19.1285   13.3625  -17.8718 N   0  0  0  0  0  0  0  0  0  0  0  0
  -18.3903   13.3861  -18.9850 C   0  0  0  0  0  0  0  0  0  0  0  0
  -18.0782   14.4647  -19.7904 C   0  0  0  0  0  0  0  0  0  0  0  0
  -15.2949   10.4641  -22.7792 H   0  0  0  0  0  0  0  0  0  0  0  0
  -21.3193   13.6131  -20.0580 C   0  0  0  0  0  0  0  0  0  0  0  0
  -21.7944   14.9811  -20.0777 N   0  0  0  0  0  0  0  0  0  0  0  0
  -22.7841   14.9627  -20.3399 H   0  0  0  0  0  0  0  0  0  0  0  0
  -20.9233   17.2820  -20.0455 O   0  0  0  0  0  0  0  0  0  0  0  0
  -21.4927   18.5204  -19.9446 C   0  0  0  0  0  0  0  0  0  0  0  0
 33 34  1  0  0  0
 34  1  1  0  0  0
  1  2  1  0  0  0
  2  3  1  0  0  0
  3  4  1  0  0  0
  4  5  1  0  0  0
  5  6  1  0  0  0
  5  7  1  0  0  0
  7 36  1  0  0  0
 36 37  1  0  0  0
  5  8  1  0  0  0
  8  9  1  0  0  0
  9 10  2  0  0  0
 10 11  1  0  0  0
 11 12  2  0  0  0
 12 13  1  0  0  0
 13 14  2  0  0  0
 14 15  1  0  0  0
 15 16  2  0  0  0
 16 17  1  0  0  0
 17 18  1  0  0  0
 18 19  1  0  0  0
 19 20  2  0  0  0
 19 21  1  0  0  0
 21 22  2  0  0  0
 22 23  1  0  0  0
 23 24  2  0  0  0
 24 25  1  0  0  0
 25 26  2  0  0  0
 26 27  1  0  0  0
 27 28  2  0  0  0
 28 29  1  0  0  0
 29 30  1  0  0  0
 30 31  2  0  0  0
  7  1  1  0  0  0
 31  8  1  0  0  0
 29  3  1  0  0  0
 14  9  1  0  0  0
 31 15  1  0  0  0
 21 16  1  0  0  0
 30 22  1  0  0  0
 28 23  1  0  0  0
 34 35  1  0  0  0
 18 32  1  0  0  0
M  END
> <minimizedAffinity>
-9.14351

> <CNNscore>
0.5162002444

> <CNNaffinity>
6.9085526466

> <CNN_VS>
3.5661966801

> <CNNaffinity_variance>
0.0680173188

$$$$
[H]c1c([H])c([H])c2c(c1[H])c1c3c(c4c5c([H])c([H])c([H])c([H])c5n5c4c1n2[C@@]1([H])O[C@]5(C([H])([H])[H])[C@@]([H])(OC([H])([H])[H])[C@@]([H])(N([H])C([H])([H])[H])C1([H])[H])C([H])([H])N([H])C3=O


 37 44  0  0  0  0  0  0  0  0999 V2000
  -18.0142   19.0405  -21.1220 C   0  0  0  0  0  0  0  0  0  0  0  0
  -17.9368   18.2055  -22.3329 C   0  0  0  0  0  0  0  0  0  0  0  0
  -19.1364   17.3561  -22.5984 C   0  0  0  0  0  0  0  0  0  0  0  0
  -20.2429   17.5780  -21.9415 O   0  0  0  0  0  0  0  0  0  0  0  0
  -20.3016   18.0416  -20.6475 C   0  0  0  0  0  0  0  0  0  0  0  0
  -21.7517   18.5658  -20.5943 C   0  0  0  0  0  0  0  0  0  0  0  0
  -19.3846   19.1688  -20.4955 C   0  0  0  0  0  0  0  0  0  0  0  0
  -20.1280   16.9141  -19.7470 N   0  0  0  0  0  0  0  0  0  0  0  0
  -20.5580   16.7781  -18.4885 C   0  0  0  0  0  0  0  0  0  0  0  0
  -21.2358   17.6187  -17.6570 C   0  0  0  0  0  0  0  0  0  0  0  0
  -21.5633   17.2199  -16.3697 C   0  0  0  0  0  0  0  0  0  0  0  0
  -21.2320   15.9846  -15.8689 C   0  0  0  0  0  0  0  0  0  0  0  0
  -20.5371   15.1133  -16.7099 C   0  0  0  0  0  0  0  0  0  0  0  0
  -20.2262   15.5364  -17.9812 C   0  0  0  0  0  0  0  0  0  0  0  0
  -19.5513   14.8736  -18.9908 C   0  0  0  0  0  0  0  0  0  0  0  0
  -18.9845   13.6104  -19.0887 C   0  0  0  0  0  0  0  0  0  0  0  0
  -18.9193   12.5267  -18.0616 C   0  0  0  0  0  0  0  0  0  0  0  0
  -18.2427   11.4337  -18.6987 N   0  0  0  0  0  0  0  0  0  0  0  0
  -17.8798   11.8050  -20.0260 C   0  0  0  0  0  0  0  0  0  0  0  0
  -17.2721   11.0307  -20.7694 O   0  0  0  0  0  0  0  0  0  0  0  0
  -18.3568   13.1604  -20.2319 C   0  0  0  0  0  0  0  0  0  0  0  0
  -18.3182   14.0448  -21.2896 C   0  0  0  0  0  0  0  0  0  0  0  0
  -17.7884   13.9837  -22.5611 C   0  0  0  0  0  0  0  0  0  0  0  0
  -17.1137   13.0255  -23.2628 C   0  0  0  0  0  0  0  0  0  0  0  0
  -16.7146   13.3074  -24.5688 C   0  0  0  0  0  0  0  0  0  0  0  0
  -16.9723   14.5136  -25.1828 C   0  0  0  0  0  0  0  0  0  0  0  0
  -17.6536   15.4800  -24.4722 C   0  0  0  0  0  0  0  0  0  0  0  0
  -18.0427   15.2061  -23.2000 C   0  0  0  0  0  0  0  0  0  0  0  0
  -18.7058   15.9724  -22.3317 N   0  0  0  0  0  0  0  0  0  0  0  0
  -18.8835   15.3036  -21.1889 C   0  0  0  0  0  0  0  0  0  0  0  0
  -19.5087   15.7251  -20.0310 C   0  0  0  0  0  0  0  0  0  0  0  0
  -18.0494   10.4967  -18.2370 H   0  0  0  0  0  0  0  0  0  0  0  0
  -16.0746   17.7883  -20.7488 C   0  0  0  0  0  0  0  0  0  0  0  0
  -17.0761   18.5954  -20.0830 N   0  0  0  0  0  0  0  0  0  0  0  0
  -16.5932   19.3713  -19.6211 H   0  0  0  0  0  0  0  0  0  0  0  0
  -19.1303   19.6351  -19.2151 O   0  0  0  0  0  0  0  0  0  0  0  0
  -19.5539   20.9077  -18.9529 C   0  0  0  0  0  0  0  0  0  0  0  0
 33 34  1  0  0  0
 34  1  1  0  0  0
  1  2  1  0  0  0
  2  3  1  0  0  0
  3  4  1  0  0  0
  4  5  1  0  0  0
  5  6  1  0  0  0
  5  7  1  0  0  0
  7 36  1  0  0  0
 36 37  1  0  0  0
  5  8  1  0  0  0
  8  9  1  0  0  0
  9 10  2  0  0  0
 10 11  1  0  0  0
 11 12  2  0  0  0
 12 13  1  0  0  0
 13 14  2  0  0  0
 14 15  1  0  0  0
 15 16  2  0  0  0
 16 17  1  0  0  0
 17 18  1  0  0  0
 18 19  1  0  0  0
 19 20  2  0  0  0
 19 21  1  0  0  0
 21 22  2  0  0  0
 22 23  1  0  0  0
 23 24  2  0  0  0
 24 25  1  0  0  0
 25 26  2  0  0  0
 26 27  1  0  0  0
 27 28  2  0  0  0
 28 29  1  0  0  0
 29 30  1  0  0  0
 30 31  2  0  0  0
  7  1  1  0  0  0
 31  8  1  0  0  0
 29  3  1  0  0  0
 14  9  1  0  0  0
 31 15  1  0  0  0
 21 16  1  0  0  0
 30 22  1  0  0  0
 28 23  1  0  0  0
 34 35  1  0  0  0
 18 32  1  0  0  0
M  END
> <minimizedAffinity>
-9.94783

> <CNNscore>
0.3144780993

> <CNNaffinity>
6.3648033142

> <CNN_VS>
2.0015912056

> <CNNaffinity_variance>
0.3398123682

$$$$
[H]c1c([H])c([H])c2c(c1[H])c1c3c(c4c5c([H])c([H])c([H])c([H])c5n5c4c1n2[C@@]1([H])O[C@]5(C([H])([H])[H])[C@@]([H])(OC([H])([H])[H])[C@@]([H])(N([H])C([H])([H])[H])C1([H])[H])C([H])([H])N([H])C3=O


 37 44  0  0  0  0  0  0  0  0999 V2000
  -19.9770   17.6842  -17.5204 C   0  0  0  0  0  0  0  0  0  0  0  0
  -19.9812   17.7352  -18.9924 C   0  0  0  0  0  0  0  0  0  0  0  0
  -20.8972   16.7629  -19.6606 C   0  0  0  0  0  0  0  0  0  0  0  0
  -21.8009   16.1375  -18.9553 O   0  0  0  0  0  0  0  0  0  0  0  0
  -21.6463   15.7724  -17.6378 C   0  0  0  0  0  0  0  0  0  0  0  0
  -23.1167   15.5566  -17.2238 C   0  0  0  0  0  0  0  0  0  0  0  0
  -21.1025   16.8997  -16.8842 C   0  0  0  0  0  0  0  0  0  0  0  0
  -20.9090   14.5208  -17.5912 N   0  0  0  0  0  0  0  0  0  0  0  0
  -20.9248   13.5784  -16.6432 C   0  0  0  0  0  0  0  0  0  0  0  0
  -21.5738   13.4936  -15.4479 C   0  0  0  0  0  0  0  0  0  0  0  0
  -21.4095   12.3805  -14.6370 C   0  0  0  0  0  0  0  0  0  0  0  0
  -20.6027   11.3238  -14.9821 C   0  0  0  0  0  0  0  0  0  0  0  0
  -19.9313   11.3977  -16.2040 C   0  0  0  0  0  0  0  0  0  0  0  0
  -20.1138   12.5138  -16.9869 C   0  0  0  0  0  0  0  0  0  0  0  0
  -19.5683   12.8250  -18.2196 C   0  0  0  0  0  0  0  0  0  0  0  0
  -18.6979   12.1599  -19.0721 C   0  0  0  0  0  0  0  0  0  0  0  0
  -18.0390   10.8304  -18.8933 C   0  0  0  0  0  0  0  0  0  0  0  0
  -17.2635   10.6229  -20.0823 N   0  0  0  0  0  0  0  0  0  0  0  0
  -17.3979   11.7509  -20.9432 C   0  0  0  0  0  0  0  0  0  0  0  0
  -16.8092   11.8105  -22.0255 O   0  0  0  0  0  0  0  0  0  0  0  0
  -18.2950   12.6822  -20.2837 C   0  0  0  0  0  0  0  0  0  0  0  0
  -18.8075   13.9206  -20.6098 C   0  0  0  0  0  0  0  0  0  0  0  0
  -18.6449   14.7625  -21.6896 C   0  0  0  0  0  0  0  0  0  0  0  0
  -17.9287   14.6892  -22.8504 C   0  0  0  0  0  0  0  0  0  0  0  0
  -17.9975   15.7535  -23.7486 C   0  0  0  0  0  0  0  0  0  0  0  0
  -18.7586   16.8780  -23.5148 C   0  0  0  0  0  0  0  0  0  0  0  0
  -19.4809   16.9500  -22.3418 C   0  0  0  0  0  0  0  0  0  0  0  0
  -19.4144   15.9136  -21.4663 C   0  0  0  0  0  0  0  0  0  0  0  0
  -20.0178   15.7595  -20.2861 N   0  0  0  0  0  0  0  0  0  0  0  0
  -19.6744   14.5814  -19.7579 C   0  0  0  0  0  0  0  0  0  0  0  0
  -20.0626   14.0310  -18.5514 C   0  0  0  0  0  0  0  0  0  0  0  0
  -16.6826    9.7548  -20.2760 H   0  0  0  0  0  0  0  0  0  0  0  0
  -17.8261   16.9931  -18.1246 C   0  0  0  0  0  0  0  0  0  0  0  0
  -18.7063   17.1739  -16.9888 N   0  0  0  0  0  0  0  0  0  0  0  0
  -18.2515   17.8266  -16.3440 H   0  0  0  0  0  0  0  0  0  0  0  0
  -20.6657   16.6688  -15.5890 O   0  0  0  0  0  0  0  0  0  0  0  0
  -21.3064   17.3781  -14.6122 C   0  0  0  0  0  0  0  0  0  0  0  0
 33 34  1  0  0  0
 34  1  1  0  0  0
  1  2  1  0  0  0
  2  3  1  0  0  0
  3  4  1  0  0  0
  4  5  1  0  0  0
  5  6  1  0  0  0
  5  7  1  0  0  0
  7 36  1  0  0  0
 36 37  1  0  0  0
  5  8  1  0  0  0
  8  9  1  0  0  0
  9 10  2  0  0  0
 10 11  1  0  0  0
 11 12  2  0  0  0
 12 13  1  0  0  0
 13 14  2  0  0  0
 14 15  1  0  0  0
 15 16  2  0  0  0
 16 17  1  0  0  0
 17 18  1  0  0  0
 18 19  1  0  0  0
 19 20  2  0  0  0
 19 21  1  0  0  0
 21 22  2  0  0  0
 22 23  1  0  0  0
 23 24  2  0  0  0
 24 25  1  0  0  0
 25 26  2  0  0  0
 26 27  1  0  0  0
 27 28  2  0  0  0
 28 29  1  0  0  0
 29 30  1  0  0  0
 30 31  2  0  0  0
  7  1  1  0  0  0
 31  8  1  0  0  0
 29  3  1  0  0  0
 14  9  1  0  0  0
 31 15  1  0  0  0
 21 16  1  0  0  0
 30 22  1  0  0  0
 28 23  1  0  0  0
 34 35  1  0  0  0
 18 32  1  0  0  0
M  END
> <minimizedAffinity>
-8.91967

> <CNNscore>
0.2950108647

> <CNNaffinity>
6.3248510361

> <CNN_VS>
1.8658998013

> <CNNaffinity_variance>
0.1483257115

$$$$
[H]c1c([H])c([H])c2c(c1[H])c1c3c(c4c5c([H])c([H])c([H])c([H])c5n5c4c1n2[C@@]1([H])O[C@]5(C([H])([H])[H])[C@@]([H])(OC([H])([H])[H])[C@@]([H])(N([H])C([H])([H])[H])C1([H])[H])C([H])([H])N([H])C3=O


 37 44  0  0  0  0  0  0  0  0999 V2000
  -18.1224   17.9814  -20.7421 C   0  0  0  0  0  0  0  0  0  0  0  0
  -17.7000   16.9171  -21.6686 C   0  0  0  0  0  0  0  0  0  0  0  0
  -18.7887   16.0036  -22.1280 C   0  0  0  0  0  0  0  0  0  0  0  0
  -20.0359   16.3300  -21.9208 O   0  0  0  0  0  0  0  0  0  0  0  0
  -20.4839   17.0484  -20.8363 C   0  0  0  0  0  0  0  0  0  0  0  0
  -21.8502   17.5384  -21.3591 C   0  0  0  0  0  0  0  0  0  0  0  0
  -19.6140   18.2038  -20.6289 C   0  0  0  0  0  0  0  0  0  0  0  0
  -20.6571   16.1347  -19.7194 N   0  0  0  0  0  0  0  0  0  0  0  0
  -21.4718   16.2506  -18.6659 C   0  0  0  0  0  0  0  0  0  0  0  0
  -22.3414   17.2282  -18.2845 C   0  0  0  0  0  0  0  0  0  0  0  0
  -23.0800   17.0952  -17.1182 C   0  0  0  0  0  0  0  0  0  0  0  0
  -22.9813   15.9975  -16.2986 C   0  0  0  0  0  0  0  0  0  0  0  0
  -22.0938   14.9883  -16.6771 C   0  0  0  0  0  0  0  0  0  0  0  0
  -21.3749   15.1478  -17.8388 C   0  0  0  0  0  0  0  0  0  0  0  0
  -20.4434   14.3074  -18.4219 C   0  0  0  0  0  0  0  0  0  0  0  0
  -19.9318   13.0647  -18.0749 C   0  0  0  0  0  0  0  0  0  0  0  0
  -20.2462   12.2174  -16.8846 C   0  0  0  0  0  0  0  0  0  0  0  0
  -19.4510   11.0327  -17.0355 N   0  0  0  0  0  0  0  0  0  0  0  0
  -18.6673   11.1313  -18.2218 C   0  0  0  0  0  0  0  0  0  0  0  0
  -17.8892   10.2351  -18.5576 O   0  0  0  0  0  0  0  0  0  0  0  0
  -18.9928   12.4039  -18.8396 C   0  0  0  0  0  0  0  0  0  0  0  0
  -18.5793   13.0524  -19.9846 C   0  0  0  0  0  0  0  0  0  0  0  0
  -17.6747   12.7434  -20.9783 C   0  0  0  0  0  0  0  0  0  0  0  0
  -16.8548   11.6773  -21.2167 C   0  0  0  0  0  0  0  0  0  0  0  0
  -16.0476   11.6937  -22.3537 C   0  0  0  0  0  0  0  0  0  0  0  0
  -16.0418   12.7414  -23.2484 C   0  0  0  0  0  0  0  0  0  0  0  0
  -16.8705   13.8171  -23.0055 C   0  0  0  0  0  0  0  0  0  0  0  0
  -17.6571   13.8019  -21.8982 C   0  0  0  0  0  0  0  0  0  0  0  0
  -18.5278   14.7147  -21.4630 N   0  0  0  0  0  0  0  0  0  0  0  0
  -19.0905   14.2914  -20.3277 C   0  0  0  0  0  0  0  0  0  0  0  0
  -20.0331   14.9274  -19.5427 C   0  0  0  0  0  0  0  0  0  0  0  0
  -19.4571   10.2155  -16.3568 H   0  0  0  0  0  0  0  0  0  0  0  0
  -16.4368   16.9105  -19.5252 C   0  0  0  0  0  0  0  0  0  0  0  0
  -17.5858   17.7816  -19.3894 N   0  0  0  0  0  0  0  0  0  0  0  0
  -17.2667   18.6513  -18.9532 H   0  0  0  0  0  0  0  0  0  0  0  0
  -19.7611   18.9294  -19.4570 O   0  0  0  0  0  0  0  0  0  0  0  0
  -20.1533   20.2296  -19.6102 C   0  0  0  0  0  0  0  0  0  0  0  0
 33 34  1  0  0  0
 34  1  1  0  0  0
  1  2  1  0  0  0
  2  3  1  0  0  0
  3  4  1  0  0  0
  4  5  1  0  0  0
  5  6  1  0  0  0
  5  7  1  0  0  0
  7 36  1  0  0  0
 36 37  1  0  0  0
  5  8  1  0  0  0
  8  9  1  0  0  0
  9 10  2  0  0  0
 10 11  1  0  0  0
 11 12  2  0  0  0
 12 13  1  0  0  0
 13 14  2  0  0  0
 14 15  1  0  0  0
 15 16  2  0  0  0
 16 17  1  0  0  0
 17 18  1  0  0  0
 18 19  1  0  0  0
 19 20  2  0  0  0
 19 21  1  0  0  0
 21 22  2  0  0  0
 22 23  1  0  0  0
 23 24  2  0  0  0
 24 25  1  0  0  0
 25 26  2  0  0  0
 26 27  1  0  0  0
 27 28  2  0  0  0
 28 29  1  0  0  0
 29 30  1  0  0  0
 30 31  2  0  0  0
  7  1  1  0  0  0
 31  8  1  0  0  0
 29  3  1  0  0  0
 14  9  1  0  0  0
 31 15  1  0  0  0
 21 16  1  0  0  0
 30 22  1  0  0  0
 28 23  1  0  0  0
 34 35  1  0  0  0
 18 32  1  0  0  0
M  END
> <minimizedAffinity>
-9.06581

> <CNNscore>
0.2765382826

> <CNNaffinity>
6.4150490761

> <CNN_VS>
1.7740066051

> <CNNaffinity_variance>
0.1430190504

$$$$
[H]c1c([H])c([H])c2c(c1[H])c1c3c(c4c5c([H])c([H])c([H])c([H])c5n5c4c1n2[C@@]1([H])O[C@]5(C([H])([H])[H])[C@@]([H])(OC([H])([H])[H])[C@@]([H])(N([H])C([H])([H])[H])C1([H])[H])C([H])([H])N([H])C3=O


 37 44  0  0  0  0  0  0  0  0999 V2000
  -18.7494   16.9603  -19.5196 C   0  0  0  0  0  0  0  0  0  0  0  0
  -18.3538   15.6679  -20.1048 C   0  0  0  0  0  0  0  0  0  0  0  0
  -19.4824   14.7498  -20.4428 C   0  0  0  0  0  0  0  0  0  0  0  0
  -20.7049   15.2084  -20.4601 O   0  0  0  0  0  0  0  0  0  0  0  0
  -21.1736   16.2093  -19.6407 C   0  0  0  0  0  0  0  0  0  0  0  0
  -22.4339   16.6491  -20.4143 C   0  0  0  0  0  0  0  0  0  0  0  0
  -20.2160   17.3127  -19.6288 C   0  0  0  0  0  0  0  0  0  0  0  0
  -21.5333   15.6241  -18.3599 N   0  0  0  0  0  0  0  0  0  0  0  0
  -22.4221   16.0628  -17.4628 C   0  0  0  0  0  0  0  0  0  0  0  0
  -23.2215   17.1661  -17.4305 C   0  0  0  0  0  0  0  0  0  0  0  0
  -24.0693   17.3878  -16.3555 C   0  0  0  0  0  0  0  0  0  0  0  0
  -24.1513   16.5298  -15.2860 C   0  0  0  0  0  0  0  0  0  0  0  0
  -23.3375   15.3955  -15.3059 C   0  0  0  0  0  0  0  0  0  0  0  0
  -22.5071   15.2020  -16.3852 C   0  0  0  0  0  0  0  0  0  0  0  0
  -21.6150   14.1754  -16.6386 C   0  0  0  0  0  0  0  0  0  0  0  0
  -21.2606   13.0274  -15.9436 C   0  0  0  0  0  0  0  0  0  0  0  0
  -21.7600   12.5352  -14.6238 C   0  0  0  0  0  0  0  0  0  0  0  0
  -21.0750   11.2962  -14.3915 N   0  0  0  0  0  0  0  0  0  0  0  0
  -20.1842   11.0330  -15.4725 C   0  0  0  0  0  0  0  0  0  0  0  0
  -19.4714   10.0264  -15.4909 O   0  0  0  0  0  0  0  0  0  0  0  0
  -20.3275   12.1274  -16.4153 C   0  0  0  0  0  0  0  0  0  0  0  0
  -19.7532   12.4320  -17.6318 C   0  0  0  0  0  0  0  0  0  0  0  0
  -18.7996   11.8156  -18.4140 C   0  0  0  0  0  0  0  0  0  0  0  0
  -18.0706   10.6669  -18.2924 C   0  0  0  0  0  0  0  0  0  0  0  0
  -17.1689   10.3353  -19.3030 C   0  0  0  0  0  0  0  0  0  0  0  0
  -16.9816   11.1183  -20.4211 C   0  0  0  0  0  0  0  0  0  0  0  0
  -17.7188   12.2780  -20.5417 C   0  0  0  0  0  0  0  0  0  0  0  0
  -18.5973   12.6018  -19.5577 C   0  0  0  0  0  0  0  0  0  0  0  0
  -19.4089   13.6564  -19.4577 N   0  0  0  0  0  0  0  0  0  0  0  0
  -20.1081   13.5773  -18.3221 C   0  0  0  0  0  0  0  0  0  0  0  0
  -21.0490   14.4589  -17.8253 C   0  0  0  0  0  0  0  0  0  0  0  0
  -21.2209   10.6807  -13.5381 H   0  0  0  0  0  0  0  0  0  0  0  0
  -17.5588   15.9005  -17.8085 C   0  0  0  0  0  0  0  0  0  0  0  0
  -18.3560   17.0717  -18.1088 N   0  0  0  0  0  0  0  0  0  0  0  0
  -17.7804   17.8968  -17.9180 H   0  0  0  0  0  0  0  0  0  0  0  0
  -20.3936   18.3206  -18.6939 O   0  0  0  0  0  0  0  0  0  0  0  0
  -20.6526   19.5622  -19.2030 C   0  0  0  0  0  0  0  0  0  0  0  0
 33 34  1  0  0  0
 34  1  1  0  0  0
  1  2  1  0  0  0
  2  3  1  0  0  0
  3  4  1  0  0  0
  4  5  1  0  0  0
  5  6  1  0  0  0
  5  7  1  0  0  0
  7 36  1  0  0  0
 36 37  1  0  0  0
  5  8  1  0  0  0
  8  9  1  0  0  0
  9 10  2  0  0  0
 10 11  1  0  0  0
 11 12  2  0  0  0
 12 13  1  0  0  0
 13 14  2  0  0  0
 14 15  1  0  0  0
 15 16  2  0  0  0
 16 17  1  0  0  0
 17 18  1  0  0  0
 18 19  1  0  0  0
 19 20  2  0  0  0
 19 21  1  0  0  0
 21 22  2  0  0  0
 22 23  1  0  0  0
 23 24  2  0  0  0
 24 25  1  0  0  0
 25 26  2  0  0  0
 26 27  1  0  0  0
 27 28  2  0  0  0
 28 29  1  0  0  0
 29 30  1  0  0  0
 30 31  2  0  0  0
  7  1  1  0  0  0
 31  8  1  0  0  0
 29  3  1  0  0  0
 14  9  1  0  0  0
 31 15  1  0  0  0
 21 16  1  0  0  0
 30 22  1  0  0  0
 28 23  1  0  0  0
 34 35  1  0  0  0
 18 32  1  0  0  0
M  END
> <minimizedAffinity>
-8.73610

> <CNNscore>
0.2139101177

> <CNNaffinity>
5.5164809227

> <CNN_VS>
1.1800310612

> <CNNaffinity_variance>
1.2625894547

$$$$
[H]c1c([H])c([H])c2c(c1[H])c1c3c(c4c5c([H])c([H])c([H])c([H])c5n5c4c1n2[C@@]1([H])O[C@]5(C([H])([H])[H])[C@@]([H])(OC([H])([H])[H])[C@@]([H])(N([H])C([H])([H])[H])C1([H])[H])C([H])([H])N([H])C3=O


 37 44  0  0  0  0  0  0  0  0999 V2000
  -17.4204   18.3876  -22.1498 C   0  0  0  0  0  0  0  0  0  0  0  0
  -17.0552   17.0804  -22.7217 C   0  0  0  0  0  0  0  0  0  0  0  0
  -18.2026   16.2488  -23.1936 C   0  0  0  0  0  0  0  0  0  0  0  0
  -19.3831   16.7917  -23.3240 O   0  0  0  0  0  0  0  0  0  0  0  0
  -19.8646   17.8095  -22.5333 C   0  0  0  0  0  0  0  0  0  0  0  0
  -21.0061   18.3485  -23.4201 C   0  0  0  0  0  0  0  0  0  0  0  0
  -18.8408   18.8431  -22.3988 C   0  0  0  0  0  0  0  0  0  0  0  0
  -20.3927   17.2301  -21.3094 N   0  0  0  0  0  0  0  0  0  0  0  0
  -21.3372   17.7151  -20.4971 C   0  0  0  0  0  0  0  0  0  0  0  0
  -22.0592   18.8708  -20.5204 C   0  0  0  0  0  0  0  0  0  0  0  0
  -22.9958   19.1336  -19.5319 C   0  0  0  0  0  0  0  0  0  0  0  0
  -23.2452   18.2662  -18.4965 C   0  0  0  0  0  0  0  0  0  0  0  0
  -22.5123   17.0784  -18.4601 C   0  0  0  0  0  0  0  0  0  0  0  0
  -21.5904   16.8450  -19.4539 C   0  0  0  0  0  0  0  0  0  0  0  0
  -20.7486   15.7629  -19.6394 C   0  0  0  0  0  0  0  0  0  0  0  0
  -20.5459   14.5820  -18.9389 C   0  0  0  0  0  0  0  0  0  0  0  0
  -21.2104   14.1045  -17.6883 C   0  0  0  0  0  0  0  0  0  0  0  0
  -20.6383   12.8171  -17.4166 N   0  0  0  0  0  0  0  0  0  0  0  0
  -19.6610   12.5099  -18.4076 C   0  0  0  0  0  0  0  0  0  0  0  0
  -19.0200   11.4566  -18.3771 O   0  0  0  0  0  0  0  0  0  0  0  0
  -19.6324   13.6268  -19.3344 C   0  0  0  0  0  0  0  0  0  0  0  0
  -18.9169   13.9103  -20.4791 C   0  0  0  0  0  0  0  0  0  0  0  0
  -17.9320   13.2417  -21.1747 C   0  0  0  0  0  0  0  0  0  0  0  0
  -17.2987   12.0432  -21.0065 C   0  0  0  0  0  0  0  0  0  0  0  0
  -16.3226   11.6659  -21.9281 C   0  0  0  0  0  0  0  0  0  0  0  0
  -15.9689   12.4519  -23.0029 C   0  0  0  0  0  0  0  0  0  0  0  0
  -16.6095   13.6620  -23.1706 C   0  0  0  0  0  0  0  0  0  0  0  0
  -17.5605   14.0303  -22.2734 C   0  0  0  0  0  0  0  0  0  0  0  0
  -18.3049   15.1371  -22.2318 N   0  0  0  0  0  0  0  0  0  0  0  0
  -19.1207   15.0886  -21.1750 C   0  0  0  0  0  0  0  0  0  0  0  0
  -20.0458   16.0255  -20.7557 C   0  0  0  0  0  0  0  0  0  0  0  0
  -20.9124   12.1996  -16.5969 H   0  0  0  0  0  0  0  0  0  0  0  0
  -16.0630   17.5495  -20.4398 C   0  0  0  0  0  0  0  0  0  0  0  0
  -17.1673   18.4484  -20.7042 N   0  0  0  0  0  0  0  0  0  0  0  0
  -16.8916   19.3816  -20.3852 H   0  0  0  0  0  0  0  0  0  0  0  0
  -19.0448   19.8457  -21.4635 O   0  0  0  0  0  0  0  0  0  0  0  0
  -19.0821   21.1191  -21.9584 C   0  0  0  0  0  0  0  0  0  0  0  0
 33 34  1  0  0  0
 34  1  1  0  0  0
  1  2  1  0  0  0
  2  3  1  0  0  0
  3  4  1  0  0  0
  4  5  1  0  0  0
  5  6  1  0  0  0
  5  7  1  0  0  0
  7 36  1  0  0  0
 36 37  1  0  0  0
  5  8  1  0  0  0
  8  9  1  0  0  0
  9 10  2  0  0  0
 10 11  1  0  0  0
 11 12  2  0  0  0
 12 13  1  0  0  0
 13 14  2  0  0  0
 14 15  1  0  0  0
 15 16  2  0  0  0
 16 17  1  0  0  0
 17 18  1  0  0  0
 18 19  1  0  0  0
 19 20  2  0  0  0
 19 21  1  0  0  0
 21 22  2  0  0  0
 22 23  1  0  0  0
 23 24  2  0  0  0
 24 25  1  0  0  0
 25 26  2  0  0  0
 26 27  1  0  0  0
 27 28  2  0  0  0
 28 29  1  0  0  0
 29 30  1  0  0  0
 30 31  2  0  0  0
  7  1  1  0  0  0
 31  8  1  0  0  0
 29  3  1  0  0  0
 14  9  1  0  0  0
 31 15  1  0  0  0
 21 16  1  0  0  0
 30 22  1  0  0  0
 28 23  1  0  0  0
 34 35  1  0  0  0
 18 32  1  0  0  0
M  END
> <minimizedAffinity>
-9.30859

> <CNNscore>
0.1605347991

> <CNNaffinity>
5.9636340141

> <CNN_VS>
0.9573708177

> <CNNaffinity_variance>
0.5189958811

$$$$
[H]c1nc(C([H])([H])[H])oc1-c1c([H])c([H])c([H])c(C(=O)N([H])c2c([H])c([H])c(C([H])([H])[H])c(N([H])c3nc4c([H])c([H])c([H])c([H])c4n3-n3c([H])nc([H])c3[H])c2[H])c1[H]


 39 44  0  0  0  0  0  0  0  0999 V2000
  -18.1879   11.3804  -18.7961 C   0  0  0  0  0  0  0  0  0  0  0  0
  -17.0834   10.5273  -18.8153 C   0  0  0  0  0  0  0  0  0  0  0  0
  -16.2146   10.4883  -19.8956 C   0  0  0  0  0  0  0  0  0  0  0  0
  -16.4334   11.3039  -20.9815 C   0  0  0  0  0  0  0  0  0  0  0  0
  -15.4713   11.2146  -22.1005 C   0  0  0  0  0  0  0  0  0  0  0  0
  -17.5234   12.1777  -21.0161 C   0  0  0  0  0  0  0  0  0  0  0  0
  -18.3527   12.1680  -19.9057 C   0  0  0  0  0  0  0  0  0  0  0  0
  -19.4373   10.2238  -16.9248 C   0  0  0  0  0  0  0  0  0  0  0  0
  -19.1493    9.0310  -17.1583 O   0  0  0  0  0  0  0  0  0  0  0  0
  -19.0166   11.3505  -17.6534 N   0  0  0  0  0  0  0  0  0  0  0  0
  -19.3478   12.3079  -17.3167 H   0  0  0  0  0  0  0  0  0  0  0  0
  -20.6721   10.7080  -13.3884 C   0  0  0  0  0  0  0  0  0  0  0  0
  -22.0199   10.8529  -13.6285 C   0  0  0  0  0  0  0  0  0  0  0  0
  -22.5256   10.7928  -14.9170 C   0  0  0  0  0  0  0  0  0  0  0  0
  -21.6553   10.5835  -15.9767 C   0  0  0  0  0  0  0  0  0  0  0  0
  -20.3126   10.4375  -15.7533 C   0  0  0  0  0  0  0  0  0  0  0  0
  -19.8151   10.4993  -14.4598 C   0  0  0  0  0  0  0  0  0  0  0  0
  -17.6233   10.2318   -9.4809 C   0  0  0  0  0  0  0  0  0  0  0  0
  -18.8069   10.5602  -10.3348 C   0  0  0  0  0  0  0  0  0  0  0  0
  -19.9420   11.1486   -9.8926 N   0  0  0  0  0  0  0  0  0  0  0  0
  -20.7911   11.2920  -10.9308 C   0  0  0  0  0  0  0  0  0  0  0  0
  -20.1372   10.7713  -12.0250 C   0  0  0  0  0  0  0  0  0  0  0  0
  -18.9718   10.3570  -11.6033 O   0  0  0  0  0  0  0  0  0  0  0  0
  -17.6883   12.9854  -22.1593 N   0  0  0  0  0  0  0  0  0  0  0  0
  -17.4989   12.4680  -23.0898 H   0  0  0  0  0  0  0  0  0  0  0  0
  -18.0603   14.3415  -22.1912 C   0  0  0  0  0  0  0  0  0  0  0  0
  -18.9794   15.0565  -21.5419 N   0  0  0  0  0  0  0  0  0  0  0  0
  -18.9900   16.3352  -21.8849 C   0  0  0  0  0  0  0  0  0  0  0  0
  -19.6883   17.4725  -21.5555 C   0  0  0  0  0  0  0  0  0  0  0  0
  -19.4189   18.6879  -22.1390 C   0  0  0  0  0  0  0  0  0  0  0  0
  -18.4170   18.7779  -23.0865 C   0  0  0  0  0  0  0  0  0  0  0  0
  -17.7007   17.6662  -23.4396 C   0  0  0  0  0  0  0  0  0  0  0  0
  -17.9886   16.4609  -22.8420 C   0  0  0  0  0  0  0  0  0  0  0  0
  -17.4405   15.2475  -23.0119 N   0  0  0  0  0  0  0  0  0  0  0  0
  -16.3962   14.9754  -23.8983 N   0  0  0  0  0  0  0  0  0  0  0  0
  -15.0739   14.9491  -23.6694 C   0  0  0  0  0  0  0  0  0  0  0  0
  -14.4268   14.6342  -24.8390 C   0  0  0  0  0  0  0  0  0  0  0  0
  -15.3808   14.4724  -25.7712 N   0  0  0  0  0  0  0  0  0  0  0  0
  -16.5733   14.6819  -25.1893 C   0  0  0  0  0  0  0  0  0  0  0  0
 18 19  1  0  0  0
 19 20  2  0  0  0
 20 21  1  0  0  0
 21 22  2  0  0  0
 22 23  1  0  0  0
 22 12  1  0  0  0
 12 13  2  0  0  0
 13 14  1  0  0  0
 14 15  2  0  0  0
 15 16  1  0  0  0
 16 17  2  0  0  0
 16  8  1  0  0  0
  8  9  2  0  0  0
  8 10  1  0  0  0
 10  1  1  0  0  0
  1  2  2  0  0  0
  2  3  1  0  0  0
  3  4  2  0  0  0
  4  5  1  0  0  0
  4  6  1  0  0  0
  6 24  1  0  0  0
 24 26  1  0  0  0
 26 27  2  0  0  0
 27 28  1  0  0  0
 28 29  2  0  0  0
 29 30  1  0  0  0
 30 31  2  0  0  0
 31 32  1  0  0  0
 32 33  2  0  0  0
 33 34  1  0  0  0
 34 35  1  0  0  0
 35 36  1  0  0  0
 36 37  2  0  0  0
 37 38  1  0  0  0
 38 39  2  0  0  0
  6  7  2  0  0  0
 23 19  1  0  0  0
 17 12  1  0  0  0
  7  1  1  0  0  0
 34 26  1  0  0  0
 39 35  1  0  0  0
 33 28  1  0  0  0
 10 11  1  0  0  0
 24 25  1  0  0  0
M  END
> <minimizedAffinity>
-9.79339

> <CNNscore>
0.2245771438

> <CNNaffinity>
6.5674338341

> <CNN_VS>
1.4748954773

> <CNNaffinity_variance>
0.2658852637

$$$$
[H]c1nc(C([H])([H])[H])oc1-c1c([H])c([H])c([H])c(C(=O)N([H])c2c([H])c([H])c(C([H])([H])[H])c(N([H])c3nc4c([H])c([H])c([H])c([H])c4n3-n3c([H])nc([H])c3[H])c2[H])c1[H]


 39 44  0  0  0  0  0  0  0  0999 V2000
  -17.7432   11.0187  -19.4660 C   0  0  0  0  0  0  0  0  0  0  0  0
  -16.5411   10.3185  -19.5793 C   0  0  0  0  0  0  0  0  0  0  0  0
  -15.6838   10.5164  -20.6513 C   0  0  0  0  0  0  0  0  0  0  0  0
  -16.0122   11.4211  -21.6342 C   0  0  0  0  0  0  0  0  0  0  0  0
  -15.0563   11.5857  -22.7501 C   0  0  0  0  0  0  0  0  0  0  0  0
  -17.2029   12.1497  -21.5718 C   0  0  0  0  0  0  0  0  0  0  0  0
  -18.0147   11.9052  -20.4755 C   0  0  0  0  0  0  0  0  0  0  0  0
  -19.0921   11.6752  -17.4288 C   0  0  0  0  0  0  0  0  0  0  0  0
  -18.9546   12.9165  -17.4517 O   0  0  0  0  0  0  0  0  0  0  0  0
  -18.5517   10.7505  -18.3400 N   0  0  0  0  0  0  0  0  0  0  0  0
  -18.7704    9.7175  -18.1830 H   0  0  0  0  0  0  0  0  0  0  0  0
  -21.1352    9.4019  -15.2101 C   0  0  0  0  0  0  0  0  0  0  0  0
  -21.4340   10.2766  -14.1898 C   0  0  0  0  0  0  0  0  0  0  0  0
  -20.9832   11.5864  -14.2181 C   0  0  0  0  0  0  0  0  0  0  0  0
  -20.2197   12.0165  -15.2934 C   0  0  0  0  0  0  0  0  0  0  0  0
  -19.9148   11.1580  -16.3152 C   0  0  0  0  0  0  0  0  0  0  0  0
  -20.3703    9.8482  -16.2784 C   0  0  0  0  0  0  0  0  0  0  0  0
  -21.6850    4.5688  -16.2727 C   0  0  0  0  0  0  0  0  0  0  0  0
  -21.8440    5.9190  -15.6486 C   0  0  0  0  0  0  0  0  0  0  0  0
  -22.7050    6.2132  -14.6475 N   0  0  0  0  0  0  0  0  0  0  0  0
  -22.5800    7.5196  -14.3356 C   0  0  0  0  0  0  0  0  0  0  0  0
  -21.6125    8.0161  -15.1802 C   0  0  0  0  0  0  0  0  0  0  0  0
  -21.2205    7.0192  -15.9285 O   0  0  0  0  0  0  0  0  0  0  0  0
  -17.4773   13.0600  -22.6123 N   0  0  0  0  0  0  0  0  0  0  0  0
  -17.3357   12.6470  -23.6016 H   0  0  0  0  0  0  0  0  0  0  0  0
  -17.8994   14.3952  -22.4796 C   0  0  0  0  0  0  0  0  0  0  0  0
  -18.7957   15.0012  -21.7006 N   0  0  0  0  0  0  0  0  0  0  0  0
  -18.8766   16.3062  -21.9086 C   0  0  0  0  0  0  0  0  0  0  0  0
  -19.5906   17.3736  -21.4183 C   0  0  0  0  0  0  0  0  0  0  0  0
  -19.4069   18.6519  -21.8900 C   0  0  0  0  0  0  0  0  0  0  0  0
  -18.4781   18.8795  -22.8876 C   0  0  0  0  0  0  0  0  0  0  0  0
  -17.7487   17.8407  -23.4000 C   0  0  0  0  0  0  0  0  0  0  0  0
  -17.9502   16.5703  -22.9119 C   0  0  0  0  0  0  0  0  0  0  0  0
  -17.3719   15.4047  -23.2420 N   0  0  0  0  0  0  0  0  0  0  0  0
  -16.3835   15.2682  -24.2189 N   0  0  0  0  0  0  0  0  0  0  0  0
  -15.0487   15.3241  -24.0892 C   0  0  0  0  0  0  0  0  0  0  0  0
  -14.4743   15.1342  -25.3221 C   0  0  0  0  0  0  0  0  0  0  0  0
  -15.4845   14.9638  -26.1915 N   0  0  0  0  0  0  0  0  0  0  0  0
  -16.6397   15.0470  -25.5111 C   0  0  0  0  0  0  0  0  0  0  0  0
 18 19  1  0  0  0
 19 20  2  0  0  0
 20 21  1  0  0  0
 21 22  2  0  0  0
 22 23  1  0  0  0
 22 12  1  0  0  0
 12 13  2  0  0  0
 13 14  1  0  0  0
 14 15  2  0  0  0
 15 16  1  0  0  0
 16 17  2  0  0  0
 16  8  1  0  0  0
  8  9  2  0  0  0
  8 10  1  0  0  0
 10  1  1  0  0  0
  1  2  2  0  0  0
  2  3  1  0  0  0
  3  4  2  0  0  0
  4  5  1  0  0  0
  4  6  1  0  0  0
  6 24  1  0  0  0
 24 26  1  0  0  0
 26 27  2  0  0  0
 27 28  1  0  0  0
 28 29  2  0  0  0
 29 30  1  0  0  0
 30 31  2  0  0  0
 31 32  1  0  0  0
 32 33  2  0  0  0
 33 34  1  0  0  0
 34 35  1  0  0  0
 35 36  1  0  0  0
 36 37  2  0  0  0
 37 38  1  0  0  0
 38 39  2  0  0  0
  6  7  2  0  0  0
 23 19  1  0  0  0
 17 12  1  0  0  0
  7  1  1  0  0  0
 34 26  1  0  0  0
 39 35  1  0  0  0
 33 28  1  0  0  0
 10 11  1  0  0  0
 24 25  1  0  0  0
M  END
> <minimizedAffinity>
-9.15017

> <CNNscore>
0.1592588723

> <CNNaffinity>
6.6315140724

> <CNN_VS>
1.0561274290

> <CNNaffinity_variance>
0.4687743187

$$$$
[H]c1nc(C([H])([H])[H])oc1-c1c([H])c([H])c([H])c(C(=O)N([H])c2c([H])c([H])c(C([H])([H])[H])c(N([H])c3nc4c([H])c([H])c([H])c([H])c4n3-n3c([H])nc([H])c3[H])c2[H])c1[H]


 39 44  0  0  0  0  0  0  0  0999 V2000
  -19.8321   17.7995  -19.2595 C   0  0  0  0  0  0  0  0  0  0  0  0
  -20.4912   18.6534  -20.1452 C   0  0  0  0  0  0  0  0  0  0  0  0
  -20.4235   18.4686  -21.5181 C   0  0  0  0  0  0  0  0  0  0  0  0
  -19.6934   17.4232  -22.0342 C   0  0  0  0  0  0  0  0  0  0  0  0
  -19.6610   17.2808  -23.5055 C   0  0  0  0  0  0  0  0  0  0  0  0
  -19.0135   16.5374  -21.1941 C   0  0  0  0  0  0  0  0  0  0  0  0
  -19.1216   16.7775  -19.8334 C   0  0  0  0  0  0  0  0  0  0  0  0
  -20.6796   17.3303  -16.9224 C   0  0  0  0  0  0  0  0  0  0  0  0
  -21.3460   16.2930  -17.1229 O   0  0  0  0  0  0  0  0  0  0  0  0
  -19.9583   18.0666  -17.8789 N   0  0  0  0  0  0  0  0  0  0  0  0
  -19.4320   18.9319  -17.5414 H   0  0  0  0  0  0  0  0  0  0  0  0
  -21.7281   18.1666  -13.3916 C   0  0  0  0  0  0  0  0  0  0  0  0
  -20.5527   18.7062  -12.9196 C   0  0  0  0  0  0  0  0  0  0  0  0
  -19.4345   18.8013  -13.7320 C   0  0  0  0  0  0  0  0  0  0  0  0
  -19.5069   18.3442  -15.0397 C   0  0  0  0  0  0  0  0  0  0  0  0
  -20.6689   17.8054  -15.5229 C   0  0  0  0  0  0  0  0  0  0  0  0
  -21.7835   17.7139  -14.7022 C   0  0  0  0  0  0  0  0  0  0  0  0
  -25.0765   16.4244  -10.1446 C   0  0  0  0  0  0  0  0  0  0  0  0
  -24.3592   17.3014  -11.1215 C   0  0  0  0  0  0  0  0  0  0  0  0
  -24.7796   18.5244  -11.5185 N   0  0  0  0  0  0  0  0  0  0  0  0
  -23.8910   19.0248  -12.4014 C   0  0  0  0  0  0  0  0  0  0  0  0
  -22.9112   18.0662  -12.5319 C   0  0  0  0  0  0  0  0  0  0  0  0
  -23.2492   17.0756  -11.7495 O   0  0  0  0  0  0  0  0  0  0  0  0
  -18.2844   15.4882  -21.7892 N   0  0  0  0  0  0  0  0  0  0  0  0
  -17.9311   15.7134  -22.7860 H   0  0  0  0  0  0  0  0  0  0  0  0
  -17.9917   14.2339  -21.2239 C   0  0  0  0  0  0  0  0  0  0  0  0
  -18.3144   13.6496  -20.0698 N   0  0  0  0  0  0  0  0  0  0  0  0
  -17.8143   12.4307  -19.9394 C   0  0  0  0  0  0  0  0  0  0  0  0
  -17.8239   11.4199  -19.0078 C   0  0  0  0  0  0  0  0  0  0  0  0
  -17.1642   10.2315  -19.2149 C   0  0  0  0  0  0  0  0  0  0  0  0
  -16.4679   10.0389  -20.3929 C   0  0  0  0  0  0  0  0  0  0  0  0
  -16.4363   11.0234  -21.3435 C   0  0  0  0  0  0  0  0  0  0  0  0
  -17.1040   12.2040  -21.1136 C   0  0  0  0  0  0  0  0  0  0  0  0
  -17.2238   13.3034  -21.8744 N   0  0  0  0  0  0  0  0  0  0  0  0
  -16.6433   13.4517  -23.1358 N   0  0  0  0  0  0  0  0  0  0  0  0
  -15.4889   14.0472  -23.4740 C   0  0  0  0  0  0  0  0  0  0  0  0
  -15.3217   13.9517  -24.8337 C   0  0  0  0  0  0  0  0  0  0  0  0
  -16.3925   13.2906  -25.3044 N   0  0  0  0  0  0  0  0  0  0  0  0
  -17.1890   12.9916  -24.2648 C   0  0  0  0  0  0  0  0  0  0  0  0
 18 19  1  0  0  0
 19 20  2  0  0  0
 20 21  1  0  0  0
 21 22  2  0  0  0
 22 23  1  0  0  0
 22 12  1  0  0  0
 12 13  2  0  0  0
 13 14  1  0  0  0
 14 15  2  0  0  0
 15 16  1  0  0  0
 16 17  2  0  0  0
 16  8  1  0  0  0
  8  9  2  0  0  0
  8 10  1  0  0  0
 10  1  1  0  0  0
  1  2  2  0  0  0
  2  3  1  0  0  0
  3  4  2  0  0  0
  4  5  1  0  0  0
  4  6  1  0  0  0
  6 24  1  0  0  0
 24 26  1  0  0  0
 26 27  2  0  0  0
 27 28  1  0  0  0
 28 29  2  0  0  0
 29 30  1  0  0  0
 30 31  2  0  0  0
 31 32  1  0  0  0
 32 33  2  0  0  0
 33 34  1  0  0  0
 34 35  1  0  0  0
 35 36  1  0  0  0
 36 37  2  0  0  0
 37 38  1  0  0  0
 38 39  2  0  0  0
  6  7  2  0  0  0
 23 19  1  0  0  0
 17 12  1  0  0  0
  7  1  1  0  0  0
 34 26  1  0  0  0
 39 35  1  0  0  0
 33 28  1  0  0  0
 10 11  1  0  0  0
 24 25  1  0  0  0
M  END
> <minimizedAffinity>
-8.35888

> <CNNscore>
0.1572372913

> <CNNaffinity>
6.3791213036

> <CNN_VS>
1.0030357838

> <CNNaffinity_variance>
0.1081798524

$$$$
[H]c1nc(C([H])([H])[H])oc1-c1c([H])c([H])c([H])c(C(=O)N([H])c2c([H])c([H])c(C([H])([H])[H])c(N([H])c3nc4c([H])c([H])c([H])c([H])c4n3-n3c([H])nc([H])c3[H])c2[H])c1[H]


 39 44  0  0  0  0  0  0  0  0999 V2000
  -18.2711   11.8927  -18.5817 C   0  0  0  0  0  0  0  0  0  0  0  0
  -17.1389   11.1565  -18.2295 C   0  0  0  0  0  0  0  0  0  0  0  0
  -16.2339   10.7153  -19.1834 C   0  0  0  0  0  0  0  0  0  0  0  0
  -16.4435   11.0025  -20.5122 C   0  0  0  0  0  0  0  0  0  0  0  0
  -15.4423   10.5037  -21.4791 C   0  0  0  0  0  0  0  0  0  0  0  0
  -17.5601   11.7360  -20.9217 C   0  0  0  0  0  0  0  0  0  0  0  0
  -18.4251   12.1468  -19.9198 C   0  0  0  0  0  0  0  0  0  0  0  0
  -20.3154   13.0563  -17.6502 C   0  0  0  0  0  0  0  0  0  0  0  0
  -20.8189   13.5119  -18.6987 O   0  0  0  0  0  0  0  0  0  0  0  0
  -19.1359   12.2985  -17.5420 N   0  0  0  0  0  0  0  0  0  0  0  0
  -18.8435   11.9770  -16.5669 H   0  0  0  0  0  0  0  0  0  0  0  0
  -22.1526   14.8988  -14.9126 C   0  0  0  0  0  0  0  0  0  0  0  0
  -22.4680   13.8415  -14.0891 C   0  0  0  0  0  0  0  0  0  0  0  0
  -22.0902   12.5483  -14.4123 C   0  0  0  0  0  0  0  0  0  0  0  0
  -21.3839   12.3222  -15.5845 C   0  0  0  0  0  0  0  0  0  0  0  0
  -21.0631   13.3637  -16.4130 C   0  0  0  0  0  0  0  0  0  0  0  0
  -21.4457   14.6554  -16.0816 C   0  0  0  0  0  0  0  0  0  0  0  0
  -24.8454   18.7859  -13.3538 C   0  0  0  0  0  0  0  0  0  0  0  0
  -23.7289   17.9482  -13.8918 C   0  0  0  0  0  0  0  0  0  0  0  0
  -22.5225   18.4217  -14.2798 N   0  0  0  0  0  0  0  0  0  0  0  0
  -21.7671   17.3898  -14.7088 C   0  0  0  0  0  0  0  0  0  0  0  0
  -22.5522   16.2671  -14.5704 C   0  0  0  0  0  0  0  0  0  0  0  0
  -23.6967   16.6676  -14.0833 O   0  0  0  0  0  0  0  0  0  0  0  0
  -17.7138   11.9946  -22.2987 N   0  0  0  0  0  0  0  0  0  0  0  0
  -18.4909   11.4076  -22.7685 H   0  0  0  0  0  0  0  0  0  0  0  0
  -16.9777   12.9072  -23.0759 C   0  0  0  0  0  0  0  0  0  0  0  0
  -16.1384   12.7702  -24.1026 N   0  0  0  0  0  0  0  0  0  0  0  0
  -15.6568   13.9213  -24.5454 C   0  0  0  0  0  0  0  0  0  0  0  0
  -14.7983   14.3562  -25.5270 C   0  0  0  0  0  0  0  0  0  0  0  0
  -14.5151   15.6892  -25.7094 C   0  0  0  0  0  0  0  0  0  0  0  0
  -15.1071   16.6271  -24.8850 C   0  0  0  0  0  0  0  0  0  0  0  0
  -15.9672   16.2307  -23.8967 C   0  0  0  0  0  0  0  0  0  0  0  0
  -16.2352   14.8912  -23.7335 C   0  0  0  0  0  0  0  0  0  0  0  0
  -17.0281   14.2588  -22.8543 N   0  0  0  0  0  0  0  0  0  0  0  0
  -17.7811   14.9044  -21.8712 N   0  0  0  0  0  0  0  0  0  0  0  0
  -19.0856   15.2207  -21.8727 C   0  0  0  0  0  0  0  0  0  0  0  0
  -19.3912   15.8505  -20.6913 C   0  0  0  0  0  0  0  0  0  0  0  0
  -18.2509   15.9066  -19.9827 N   0  0  0  0  0  0  0  0  0  0  0  0
  -17.2792   15.3292  -20.7086 C   0  0  0  0  0  0  0  0  0  0  0  0
 18 19  1  0  0  0
 19 20  2  0  0  0
 20 21  1  0  0  0
 21 22  2  0  0  0
 22 23  1  0  0  0
 22 12  1  0  0  0
 12 13  2  0  0  0
 13 14  1  0  0  0
 14 15  2  0  0  0
 15 16  1  0  0  0
 16 17  2  0  0  0
 16  8  1  0  0  0
  8  9  2  0  0  0
  8 10  1  0  0  0
 10  1  1  0  0  0
  1  2  2  0  0  0
  2  3  1  0  0  0
  3  4  2  0  0  0
  4  5  1  0  0  0
  4  6  1  0  0  0
  6 24  1  0  0  0
 24 26  1  0  0  0
 26 27  2  0  0  0
 27 28  1  0  0  0
 28 29  2  0  0  0
 29 30  1  0  0  0
 30 31  2  0  0  0
 31 32  1  0  0  0
 32 33  2  0  0  0
 33 34  1  0  0  0
 34 35  1  0  0  0
 35 36  1  0  0  0
 36 37  2  0  0  0
 37 38  1  0  0  0
 38 39  2  0  0  0
  6  7  2  0  0  0
 23 19  1  0  0  0
 17 12  1  0  0  0
  7  1  1  0  0  0
 34 26  1  0  0  0
 39 35  1  0  0  0
 33 28  1  0  0  0
 10 11  1  0  0  0
 24 25  1  0  0  0
M  END
> <minimizedAffinity>
-8.77225

> <CNNscore>
0.1533949673

> <CNNaffinity>
6.7084312439

> <CNN_VS>
1.0290396214

> <CNNaffinity_variance>
0.2686906159

$$$$
[H]c1nc(C([H])([H])[H])oc1-c1c([H])c([H])c([H])c(C(=O)N([H])c2c([H])c([H])c(C([H])([H])[H])c(N([H])c3nc4c([H])c([H])c([H])c([H])c4n3-n3c([H])nc([H])c3[H])c2[H])c1[H]


 39 44  0  0  0  0  0  0  0  0999 V2000
  -18.1411   11.1604  -18.8467 C   0  0  0  0  0  0  0  0  0  0  0  0
  -16.9943   10.3755  -18.9766 C   0  0  0  0  0  0  0  0  0  0  0  0
  -16.1799   10.4594  -20.0961 C   0  0  0  0  0  0  0  0  0  0  0  0
  -16.4967   11.3324  -21.1108 C   0  0  0  0  0  0  0  0  0  0  0  0
  -15.5885   11.3742  -22.2767 C   0  0  0  0  0  0  0  0  0  0  0  0
  -17.6328   12.1423  -21.0337 C   0  0  0  0  0  0  0  0  0  0  0  0
  -18.4037   12.0101  -19.8896 C   0  0  0  0  0  0  0  0  0  0  0  0
  -19.2070    9.8132  -16.9894 C   0  0  0  0  0  0  0  0  0  0  0  0
  -18.8410    8.6605  -17.3018 O   0  0  0  0  0  0  0  0  0  0  0  0
  -18.9087   11.0060  -17.6718 N   0  0  0  0  0  0  0  0  0  0  0  0
  -19.2948   11.9155  -17.2677 H   0  0  0  0  0  0  0  0  0  0  0  0
  -22.1430   10.2254  -14.6496 C   0  0  0  0  0  0  0  0  0  0  0  0
  -21.5123   10.0194  -13.4433 C   0  0  0  0  0  0  0  0  0  0  0  0
  -20.1539    9.7525  -13.3850 C   0  0  0  0  0  0  0  0  0  0  0  0
  -19.4244    9.6933  -14.5633 C   0  0  0  0  0  0  0  0  0  0  0  0
  -20.0380    9.8962  -15.7701 C   0  0  0  0  0  0  0  0  0  0  0  0
  -21.3986   10.1626  -15.8190 C   0  0  0  0  0  0  0  0  0  0  0  0
  -26.5566   12.4371  -14.0023 C   0  0  0  0  0  0  0  0  0  0  0  0
  -25.4915   11.4754  -14.4248 C   0  0  0  0  0  0  0  0  0  0  0  0
  -25.7031   10.3570  -15.1559 N   0  0  0  0  0  0  0  0  0  0  0  0
  -24.5229    9.7333  -15.3491 C   0  0  0  0  0  0  0  0  0  0  0  0
  -23.5801   10.5080  -14.7111 C   0  0  0  0  0  0  0  0  0  0  0  0
  -24.2191   11.5201  -14.1867 O   0  0  0  0  0  0  0  0  0  0  0  0
  -17.8984   13.0143  -22.1088 N   0  0  0  0  0  0  0  0  0  0  0  0
  -17.8688   12.5342  -23.0772 H   0  0  0  0  0  0  0  0  0  0  0  0
  -18.1848   14.3893  -22.0325 C   0  0  0  0  0  0  0  0  0  0  0  0
  -19.0010   15.1157  -21.2686 N   0  0  0  0  0  0  0  0  0  0  0  0
  -18.9579   16.4115  -21.5368 C   0  0  0  0  0  0  0  0  0  0  0  0
  -19.5536   17.5654  -21.0860 C   0  0  0  0  0  0  0  0  0  0  0  0
  -19.2555   18.7966  -21.6206 C   0  0  0  0  0  0  0  0  0  0  0  0
  -18.3298   18.8856  -22.6428 C   0  0  0  0  0  0  0  0  0  0  0  0
  -17.7166   17.7576  -23.1173 C   0  0  0  0  0  0  0  0  0  0  0  0
  -18.0312   16.5368  -22.5664 C   0  0  0  0  0  0  0  0  0  0  0  0
  -17.5769   15.3061  -22.8503 N   0  0  0  0  0  0  0  0  0  0  0  0
  -16.6272   15.0282  -23.8356 N   0  0  0  0  0  0  0  0  0  0  0  0
  -15.2877   15.0477  -23.7527 C   0  0  0  0  0  0  0  0  0  0  0  0
  -14.7620   14.7048  -24.9741 C   0  0  0  0  0  0  0  0  0  0  0  0
  -15.8061   14.4796  -25.7893 N   0  0  0  0  0  0  0  0  0  0  0  0
  -16.9343   14.6789  -25.0878 C   0  0  0  0  0  0  0  0  0  0  0  0
 18 19  1  0  0  0
 19 20  2  0  0  0
 20 21  1  0  0  0
 21 22  2  0  0  0
 22 23  1  0  0  0
 22 12  1  0  0  0
 12 13  2  0  0  0
 13 14  1  0  0  0
 14 15  2  0  0  0
 15 16  1  0  0  0
 16 17  2  0  0  0
 16  8  1  0  0  0
  8  9  2  0  0  0
  8 10  1  0  0  0
 10  1  1  0  0  0
  1  2  2  0  0  0
  2  3  1  0  0  0
  3  4  2  0  0  0
  4  5  1  0  0  0
  4  6  1  0  0  0
  6 24  1  0  0  0
 24 26  1  0  0  0
 26 27  2  0  0  0
 27 28  1  0  0  0
 28 29  2  0  0  0
 29 30  1  0  0  0
 30 31  2  0  0  0
 31 32  1  0  0  0
 32 33  2  0  0  0
 33 34  1  0  0  0
 34 35  1  0  0  0
 35 36  1  0  0  0
 36 37  2  0  0  0
 37 38  1  0  0  0
 38 39  2  0  0  0
  6  7  2  0  0  0
 23 19  1  0  0  0
 17 12  1  0  0  0
  7  1  1  0  0  0
 34 26  1  0  0  0
 39 35  1  0  0  0
 33 28  1  0  0  0
 10 11  1  0  0  0
 24 25  1  0  0  0
M  END
> <minimizedAffinity>
-8.85491

> <CNNscore>
0.1496616304

> <CNNaffinity>
6.5899605751

> <CNN_VS>
0.9862642288

> <CNNaffinity_variance>
0.1697164178

$$$$
[H]c1nc(C([H])([H])[H])oc1-c1c([H])c([H])c([H])c(C(=O)N([H])c2c([H])c([H])c(C([H])([H])[H])c(N([H])c3nc4c([H])c([H])c([H])c([H])c4n3-n3c([H])nc([H])c3[H])c2[H])c1[H]


 39 44  0  0  0  0  0  0  0  0999 V2000
  -17.3013   10.8633  -19.7778 C   0  0  0  0  0  0  0  0  0  0  0  0
  -16.0396   10.3232  -20.0320 C   0  0  0  0  0  0  0  0  0  0  0  0
  -15.3089   10.6820  -21.1549 C   0  0  0  0  0  0  0  0  0  0  0  0
  -15.8266   11.5908  -22.0485 C   0  0  0  0  0  0  0  0  0  0  0  0
  -14.9983   11.9311  -23.2250 C   0  0  0  0  0  0  0  0  0  0  0  0
  -17.0848   12.1632  -21.8439 C   0  0  0  0  0  0  0  0  0  0  0  0
  -17.7629   11.7625  -20.7036 C   0  0  0  0  0  0  0  0  0  0  0  0
  -18.9735   11.1182  -17.8965 C   0  0  0  0  0  0  0  0  0  0  0  0
  -19.4612   12.2348  -18.1716 O   0  0  0  0  0  0  0  0  0  0  0  0
  -17.9706   10.4379  -18.6097 N   0  0  0  0  0  0  0  0  0  0  0  0
  -17.6674    9.4818  -18.2443 H   0  0  0  0  0  0  0  0  0  0  0  0
  -20.6377   10.5533  -14.5534 C   0  0  0  0  0  0  0  0  0  0  0  0
  -20.5594    9.1807  -14.4815 C   0  0  0  0  0  0  0  0  0  0  0  0
  -19.9741    8.4452  -15.4994 C   0  0  0  0  0  0  0  0  0  0  0  0
  -19.4613    9.1079  -16.6048 C   0  0  0  0  0  0  0  0  0  0  0  0
  -19.5319   10.4724  -16.6901 C   0  0  0  0  0  0  0  0  0  0  0  0
  -20.1200   11.2007  -15.6663 C   0  0  0  0  0  0  0  0  0  0  0  0
  -21.5608   12.5221  -10.0744 C   0  0  0  0  0  0  0  0  0  0  0  0
  -21.6496   12.1809  -11.5282 C   0  0  0  0  0  0  0  0  0  0  0  0
  -22.5853   12.6588  -12.3804 N   0  0  0  0  0  0  0  0  0  0  0  0
  -22.3620   12.1424  -13.6063 C   0  0  0  0  0  0  0  0  0  0  0  0
  -21.2568   11.3314  -13.4763 C   0  0  0  0  0  0  0  0  0  0  0  0
  -20.8868   11.3997  -12.2249 O   0  0  0  0  0  0  0  0  0  0  0  0
  -17.5549   13.0872  -22.7988 N   0  0  0  0  0  0  0  0  0  0  0  0
  -17.6063   12.6887  -23.8027 H   0  0  0  0  0  0  0  0  0  0  0  0
  -17.9438   14.4191  -22.5679 C   0  0  0  0  0  0  0  0  0  0  0  0
  -18.8220   14.9886  -21.7422 N   0  0  0  0  0  0  0  0  0  0  0  0
  -18.8721   16.3068  -21.8554 C   0  0  0  0  0  0  0  0  0  0  0  0
  -19.5580   17.3529  -21.2854 C   0  0  0  0  0  0  0  0  0  0  0  0
  -19.3453   18.6571  -21.6651 C   0  0  0  0  0  0  0  0  0  0  0  0
  -18.4154   18.9337  -22.6491 C   0  0  0  0  0  0  0  0  0  0  0  0
  -17.7136   17.9173  -23.2392 C   0  0  0  0  0  0  0  0  0  0  0  0
  -17.9437   16.6203  -22.8425 C   0  0  0  0  0  0  0  0  0  0  0  0
  -17.3952   15.4680  -23.2589 N   0  0  0  0  0  0  0  0  0  0  0  0
  -16.4145   15.3786  -24.2489 N   0  0  0  0  0  0  0  0  0  0  0  0
  -15.0814   15.4864  -24.1350 C   0  0  0  0  0  0  0  0  0  0  0  0
  -14.5154   15.3293  -25.3763 C   0  0  0  0  0  0  0  0  0  0  0  0
  -15.5288   15.1259  -26.2348 N   0  0  0  0  0  0  0  0  0  0  0  0
  -16.6779   15.1578  -25.5396 C   0  0  0  0  0  0  0  0  0  0  0  0
 18 19  1  0  0  0
 19 20  2  0  0  0
 20 21  1  0  0  0
 21 22  2  0  0  0
 22 23  1  0  0  0
 22 12  1  0  0  0
 12 13  2  0  0  0
 13 14  1  0  0  0
 14 15  2  0  0  0
 15 16  1  0  0  0
 16 17  2  0  0  0
 16  8  1  0  0  0
  8  9  2  0  0  0
  8 10  1  0  0  0
 10  1  1  0  0  0
  1  2  2  0  0  0
  2  3  1  0  0  0
  3  4  2  0  0  0
  4  5  1  0  0  0
  4  6  1  0  0  0
  6 24  1  0  0  0
 24 26  1  0  0  0
 26 27  2  0  0  0
 27 28  1  0  0  0
 28 29  2  0  0  0
 29 30  1  0  0  0
 30 31  2  0  0  0
 31 32  1  0  0  0
 32 33  2  0  0  0
 33 34  1  0  0  0
 34 35  1  0  0  0
 35 36  1  0  0  0
 36 37  2  0  0  0
 37 38  1  0  0  0
 38 39  2  0  0  0
  6  7  2  0  0  0
 23 19  1  0  0  0
 17 12  1  0  0  0
  7  1  1  0  0  0
 34 26  1  0  0  0
 39 35  1  0  0  0
 33 28  1  0  0  0
 10 11  1  0  0  0
 24 25  1  0  0  0
M  END
> <minimizedAffinity>
-9.12720

> <CNNscore>
0.1461793333

> <CNNaffinity>
6.7901864052

> <CNN_VS>
0.9925849438

> <CNNaffinity_variance>
0.1499475539

$$$$
[H]c1nc(C([H])([H])[H])oc1-c1c([H])c([H])c([H])c(C(=O)N([H])c2c([H])c([H])c(C([H])([H])[H])c(N([H])c3nc4c([H])c([H])c([H])c([H])c4n3-n3c([H])nc([H])c3[H])c2[H])c1[H]


 39 44  0  0  0  0  0  0  0  0999 V2000
  -17.9894   14.1943  -21.3371 C   0  0  0  0  0  0  0  0  0  0  0  0
  -17.6612   13.3636  -22.4097 C   0  0  0  0  0  0  0  0  0  0  0  0
  -17.2143   12.0656  -22.2126 C   0  0  0  0  0  0  0  0  0  0  0  0
  -17.0865   11.5707  -20.9355 C   0  0  0  0  0  0  0  0  0  0  0  0
  -16.6052   10.1800  -20.7929 C   0  0  0  0  0  0  0  0  0  0  0  0
  -17.4010   12.3580  -19.8247 C   0  0  0  0  0  0  0  0  0  0  0  0
  -17.8415   13.6450  -20.0901 C   0  0  0  0  0  0  0  0  0  0  0  0
  -17.8090   16.7177  -21.3131 C   0  0  0  0  0  0  0  0  0  0  0  0
  -16.7313   16.8657  -20.6993 O   0  0  0  0  0  0  0  0  0  0  0  0
  -18.4351   15.5004  -21.6351 N   0  0  0  0  0  0  0  0  0  0  0  0
  -19.3560   15.5463  -22.1731 H   0  0  0  0  0  0  0  0  0  0  0  0
  -20.1247   19.1906  -22.9826 C   0  0  0  0  0  0  0  0  0  0  0  0
  -19.6450   20.3626  -22.4424 C   0  0  0  0  0  0  0  0  0  0  0  0
  -18.5845   20.3556  -21.5509 C   0  0  0  0  0  0  0  0  0  0  0  0
  -18.0018   19.1463  -21.2014 C   0  0  0  0  0  0  0  0  0  0  0  0
  -18.4681   17.9730  -21.7305 C   0  0  0  0  0  0  0  0  0  0  0  0
  -19.5305   17.9895  -22.6224 C   0  0  0  0  0  0  0  0  0  0  0  0
  -23.7484   17.6481  -26.0288 C   0  0  0  0  0  0  0  0  0  0  0  0
  -22.8172   18.5189  -25.2464 C   0  0  0  0  0  0  0  0  0  0  0  0
  -22.8287   19.8717  -25.2569 N   0  0  0  0  0  0  0  0  0  0  0  0
  -21.8554   20.3218  -24.4387 C   0  0  0  0  0  0  0  0  0  0  0  0
  -21.2466   19.1982  -23.9261 C   0  0  0  0  0  0  0  0  0  0  0  0
  -21.8629   18.1687  -24.4437 O   0  0  0  0  0  0  0  0  0  0  0  0
  -17.2471   11.7885  -18.5446 N   0  0  0  0  0  0  0  0  0  0  0  0
  -16.2851   11.9861  -18.0922 H   0  0  0  0  0  0  0  0  0  0  0  0
  -18.1929   11.0220  -17.8400 C   0  0  0  0  0  0  0  0  0  0  0  0
  -18.2747    9.7293  -17.5240 N   0  0  0  0  0  0  0  0  0  0  0  0
  -19.3623    9.4245  -16.8333 C   0  0  0  0  0  0  0  0  0  0  0  0
  -19.9326    8.3068  -16.2720 C   0  0  0  0  0  0  0  0  0  0  0  0
  -21.1275    8.3605  -15.5940 C   0  0  0  0  0  0  0  0  0  0  0  0
  -21.7819    9.5711  -15.4684 C   0  0  0  0  0  0  0  0  0  0  0  0
  -21.2439   10.7051  -16.0145 C   0  0  0  0  0  0  0  0  0  0  0  0
  -20.0471   10.6264  -16.6884 C   0  0  0  0  0  0  0  0  0  0  0  0
  -19.3251   11.5769  -17.3025 N   0  0  0  0  0  0  0  0  0  0  0  0
  -19.6940   12.9221  -17.3692 N   0  0  0  0  0  0  0  0  0  0  0  0
  -20.6723   13.4993  -18.0843 C   0  0  0  0  0  0  0  0  0  0  0  0
  -20.6664   14.8499  -17.8360 C   0  0  0  0  0  0  0  0  0  0  0  0
  -19.6705   15.0728  -16.9619 N   0  0  0  0  0  0  0  0  0  0  0  0
  -19.0864   13.8952  -16.6851 C   0  0  0  0  0  0  0  0  0  0  0  0
 18 19  1  0  0  0
 19 20  2  0  0  0
 20 21  1  0  0  0
 21 22  2  0  0  0
 22 23  1  0  0  0
 22 12  1  0  0  0
 12 13  2  0  0  0
 13 14  1  0  0  0
 14 15  2  0  0  0
 15 16  1  0  0  0
 16 17  2  0  0  0
 16  8  1  0  0  0
  8  9  2  0  0  0
  8 10  1  0  0  0
 10  1  1  0  0  0
  1  2  2  0  0  0
  2  3  1  0  0  0
  3  4  2  0  0  0
  4  5  1  0  0  0
  4  6  1  0  0  0
  6 24  1  0  0  0
 24 26  1  0  0  0
 26 27  2  0  0  0
 27 28  1  0  0  0
 28 29  2  0  0  0
 29 30  1  0  0  0
 30 31  2  0  0  0
 31 32  1  0  0  0
 32 33  2  0  0  0
 33 34  1  0  0  0
 34 35  1  0  0  0
 35 36  1  0  0  0
 36 37  2  0  0  0
 37 38  1  0  0  0
 38 39  2  0  0  0
  6  7  2  0  0  0
 23 19  1  0  0  0
 17 12  1  0  0  0
  7  1  1  0  0  0
 34 26  1  0  0  0
 39 35  1  0  0  0
 33 28  1  0  0  0
 10 11  1  0  0  0
 24 25  1  0  0  0
M  END
> <minimizedAffinity>
-9.13936

> <CNNscore>
0.1441888809

> <CNNaffinity>
6.7779297829

> <CNN_VS>
0.9773021340

> <CNNaffinity_variance>
0.1583442390

$$$$
[H]c1nc(C([H])([H])[H])oc1-c1c([H])c([H])c([H])c(C(=O)N([H])c2c([H])c([H])c(C([H])([H])[H])c(N([H])c3nc4c([H])c([H])c([H])c([H])c4n3-n3c([H])nc([H])c3[H])c2[H])c1[H]


 39 44  0  0  0  0  0  0  0  0999 V2000
  -18.5439   11.0357  -18.1546 C   0  0  0  0  0  0  0  0  0  0  0  0
  -17.4564   10.2773  -18.5910 C   0  0  0  0  0  0  0  0  0  0  0  0
  -16.8319   10.5335  -19.8025 C   0  0  0  0  0  0  0  0  0  0  0  0
  -17.2835   11.5561  -20.6042 C   0  0  0  0  0  0  0  0  0  0  0  0
  -16.5752   11.7777  -21.8829 C   0  0  0  0  0  0  0  0  0  0  0  0
  -18.3683   12.3473  -20.2171 C   0  0  0  0  0  0  0  0  0  0  0  0
  -18.9473   12.0395  -18.9962 C   0  0  0  0  0  0  0  0  0  0  0  0
  -19.3935    9.4173  -16.4054 C   0  0  0  0  0  0  0  0  0  0  0  0
  -19.1814    8.3274  -16.9776 O   0  0  0  0  0  0  0  0  0  0  0  0
  -19.1152   10.7009  -16.9076 N   0  0  0  0  0  0  0  0  0  0  0  0
  -19.3520   11.5360  -16.2862 H   0  0  0  0  0  0  0  0  0  0  0  0
  -19.8676    9.3579  -12.6588 C   0  0  0  0  0  0  0  0  0  0  0  0
  -21.2198    9.1069  -12.5975 C   0  0  0  0  0  0  0  0  0  0  0  0
  -21.9705    8.9562  -13.7522 C   0  0  0  0  0  0  0  0  0  0  0  0
  -21.3441    9.0610  -14.9854 C   0  0  0  0  0  0  0  0  0  0  0  0
  -20.0001    9.3102  -15.0619 C   0  0  0  0  0  0  0  0  0  0  0  0
  -19.2564    9.4599  -13.9004 C   0  0  0  0  0  0  0  0  0  0  0  0
  -16.4519    8.6184   -9.1125 C   0  0  0  0  0  0  0  0  0  0  0  0
  -17.5872    9.1880   -9.9026 C   0  0  0  0  0  0  0  0  0  0  0  0
  -18.3134   10.2719   -9.5447 N   0  0  0  0  0  0  0  0  0  0  0  0
  -19.2503   10.4991  -10.4881 C   0  0  0  0  0  0  0  0  0  0  0  0
  -19.0734    9.5171  -11.4369 C   0  0  0  0  0  0  0  0  0  0  0  0
  -18.0760    8.7775  -11.0297 O   0  0  0  0  0  0  0  0  0  0  0  0
  -18.7792   13.3782  -21.0861 N   0  0  0  0  0  0  0  0  0  0  0  0
  -19.1692   13.0232  -22.0301 H   0  0  0  0  0  0  0  0  0  0  0  0
  -18.7275   14.7624  -20.8414 C   0  0  0  0  0  0  0  0  0  0  0  0
  -19.1030   15.5278  -19.8164 N   0  0  0  0  0  0  0  0  0  0  0  0
  -18.8646   16.8161  -20.0070 C   0  0  0  0  0  0  0  0  0  0  0  0
  -19.0365   17.9959  -19.3228 C   0  0  0  0  0  0  0  0  0  0  0  0
  -18.6541   19.2067  -19.8503 C   0  0  0  0  0  0  0  0  0  0  0  0
  -18.0787   19.2478  -21.1060 C   0  0  0  0  0  0  0  0  0  0  0  0
  -17.8920   18.0929  -21.8166 C   0  0  0  0  0  0  0  0  0  0  0  0
  -18.2827   16.8933  -21.2679 C   0  0  0  0  0  0  0  0  0  0  0  0
  -18.2091   15.6442  -21.7538 N   0  0  0  0  0  0  0  0  0  0  0  0
  -17.6791   15.3186  -23.0040 N   0  0  0  0  0  0  0  0  0  0  0  0
  -18.3129   15.1371  -24.1732 C   0  0  0  0  0  0  0  0  0  0  0  0
  -17.3854   14.8296  -25.1381 C   0  0  0  0  0  0  0  0  0  0  0  0
  -16.1874   14.8296  -24.5297 N   0  0  0  0  0  0  0  0  0  0  0  0
  -16.3771   15.1278  -23.2337 C   0  0  0  0  0  0  0  0  0  0  0  0
 18 19  1  0  0  0
 19 20  2  0  0  0
 20 21  1  0  0  0
 21 22  2  0  0  0
 22 23  1  0  0  0
 22 12  1  0  0  0
 12 13  2  0  0  0
 13 14  1  0  0  0
 14 15  2  0  0  0
 15 16  1  0  0  0
 16 17  2  0  0  0
 16  8  1  0  0  0
  8  9  2  0  0  0
  8 10  1  0  0  0
 10  1  1  0  0  0
  1  2  2  0  0  0
  2  3  1  0  0  0
  3  4  2  0  0  0
  4  5  1  0  0  0
  4  6  1  0  0  0
  6 24  1  0  0  0
 24 26  1  0  0  0
 26 27  2  0  0  0
 27 28  1  0  0  0
 28 29  2  0  0  0
 29 30  1  0  0  0
 30 31  2  0  0  0
 31 32  1  0  0  0
 32 33  2  0  0  0
 33 34  1  0  0  0
 34 35  1  0  0  0
 35 36  1  0  0  0
 36 37  2  0  0  0
 37 38  1  0  0  0
 38 39  2  0  0  0
  6  7  2  0  0  0
 23 19  1  0  0  0
 17 12  1  0  0  0
  7  1  1  0  0  0
 34 26  1  0  0  0
 39 35  1  0  0  0
 33 28  1  0  0  0
 10 11  1  0  0  0
 24 25  1  0  0  0
M  END
> <minimizedAffinity>
-9.33669

> <CNNscore>
0.1275609583

> <CNNaffinity>
6.4454002380

> <CNN_VS>
0.8221814036

> <CNNaffinity_variance>
0.1827866286

$$$$
[H]c1nc(C([H])([H])[H])oc1-c1c([H])c([H])c([H])c(C(=O)N([H])c2c([H])c([H])c(C([H])([H])[H])c(N([H])c3nc4c([H])c([H])c([H])c([H])c4n3-n3c([H])nc([H])c3[H])c2[H])c1[H]


 39 44  0  0  0  0  0  0  0  0999 V2000
  -18.3026   11.5193  -18.8701 C   0  0  0  0  0  0  0  0  0  0  0  0
  -17.2950   10.5536  -18.8507 C   0  0  0  0  0  0  0  0  0  0  0  0
  -16.3987   10.4183  -19.9004 C   0  0  0  0  0  0  0  0  0  0  0  0
  -16.4921   11.2482  -20.9934 C   0  0  0  0  0  0  0  0  0  0  0  0
  -15.5070   11.0528  -22.0785 C   0  0  0  0  0  0  0  0  0  0  0  0
  -17.4812   12.2326  -21.0660 C   0  0  0  0  0  0  0  0  0  0  0  0
  -18.3445   12.3155  -19.9850 C   0  0  0  0  0  0  0  0  0  0  0  0
  -19.2643   12.6060  -16.7977 C   0  0  0  0  0  0  0  0  0  0  0  0
  -18.5938   13.6591  -16.7576 O   0  0  0  0  0  0  0  0  0  0  0  0
  -19.1685   11.5820  -17.7567 N   0  0  0  0  0  0  0  0  0  0  0  0
  -19.8229   10.7451  -17.6521 H   0  0  0  0  0  0  0  0  0  0  0  0
  -22.2977   13.0574  -14.5932 C   0  0  0  0  0  0  0  0  0  0  0  0
  -22.0486   12.0862  -13.6498 C   0  0  0  0  0  0  0  0  0  0  0  0
  -20.9131   11.2956  -13.7225 C   0  0  0  0  0  0  0  0  0  0  0  0
  -20.0180   11.4905  -14.7641 C   0  0  0  0  0  0  0  0  0  0  0  0
  -20.2525   12.4525  -15.7095 C   0  0  0  0  0  0  0  0  0  0  0  0
  -21.3922   13.2393  -15.6289 C   0  0  0  0  0  0  0  0  0  0  0  0
  -25.4725   16.8390  -15.2340 C   0  0  0  0  0  0  0  0  0  0  0  0
  -24.8702   15.5404  -14.7998 C   0  0  0  0  0  0  0  0  0  0  0  0
  -25.4914   14.6169  -14.0307 N   0  0  0  0  0  0  0  0  0  0  0  0
  -24.6548   13.5765  -13.8382 C   0  0  0  0  0  0  0  0  0  0  0  0
  -23.4990   13.8940  -14.5160 C   0  0  0  0  0  0  0  0  0  0  0  0
  -23.6936   15.0657  -15.0607 O   0  0  0  0  0  0  0  0  0  0  0  0
  -17.5200   13.0487  -22.2145 N   0  0  0  0  0  0  0  0  0  0  0  0
  -17.1767   12.5541  -23.1127 H   0  0  0  0  0  0  0  0  0  0  0  0
  -17.9466   14.3871  -22.2879 C   0  0  0  0  0  0  0  0  0  0  0  0
  -18.9266   15.0715  -21.6975 N   0  0  0  0  0  0  0  0  0  0  0  0
  -18.9737   16.3434  -22.0624 C   0  0  0  0  0  0  0  0  0  0  0  0
  -19.7350   17.4544  -21.7876 C   0  0  0  0  0  0  0  0  0  0  0  0
  -19.4878   18.6715  -22.3776 C   0  0  0  0  0  0  0  0  0  0  0  0
  -18.4441   18.7902  -23.2755 C   0  0  0  0  0  0  0  0  0  0  0  0
  -17.6647   17.7050  -23.5734 C   0  0  0  0  0  0  0  0  0  0  0  0
  -17.9314   16.4976  -22.9704 C   0  0  0  0  0  0  0  0  0  0  0  0
  -17.3248   15.3064  -23.0922 N   0  0  0  0  0  0  0  0  0  0  0  0
  -16.2267   15.0662  -23.9207 N   0  0  0  0  0  0  0  0  0  0  0  0
  -16.1992   14.7826  -25.2323 C   0  0  0  0  0  0  0  0  0  0  0  0
  -14.8929   14.6245  -25.6253 C   0  0  0  0  0  0  0  0  0  0  0  0
  -14.1389   14.8175  -24.5300 N   0  0  0  0  0  0  0  0  0  0  0  0
  -14.9590   15.0850  -23.5002 C   0  0  0  0  0  0  0  0  0  0  0  0
 18 19  1  0  0  0
 19 20  2  0  0  0
 20 21  1  0  0  0
 21 22  2  0  0  0
 22 23  1  0  0  0
 22 12  1  0  0  0
 12 13  2  0  0  0
 13 14  1  0  0  0
 14 15  2  0  0  0
 15 16  1  0  0  0
 16 17  2  0  0  0
 16  8  1  0  0  0
  8  9  2  0  0  0
  8 10  1  0  0  0
 10  1  1  0  0  0
  1  2  2  0  0  0
  2  3  1  0  0  0
  3  4  2  0  0  0
  4  5  1  0  0  0
  4  6  1  0  0  0
  6 24  1  0  0  0
 24 26  1  0  0  0
 26 27  2  0  0  0
 27 28  1  0  0  0
 28 29  2  0  0  0
 29 30  1  0  0  0
 30 31  2  0  0  0
 31 32  1  0  0  0
 32 33  2  0  0  0
 33 34  1  0  0  0
 34 35  1  0  0  0
 35 36  1  0  0  0
 36 37  2  0  0  0
 37 38  1  0  0  0
 38 39  2  0  0  0
  6  7  2  0  0  0
 23 19  1  0  0  0
 17 12  1  0  0  0
  7  1  1  0  0  0
 34 26  1  0  0  0
 39 35  1  0  0  0
 33 28  1  0  0  0
 10 11  1  0  0  0
 24 25  1  0  0  0
M  END
> <minimizedAffinity>
-8.55534

> <CNNscore>
0.0966826901

> <CNNaffinity>
6.4385423660

> <CNN_VS>
0.6224955916

> <CNNaffinity_variance>
0.2992612720

$$$$
