[H]OC([H])([H])C([H])([H])N1C([H])([H])C([H])([H])N(c2c([H])c([H])c(N([H])C(=O)c3c(Cl)c([H])c([H])c([H])c3Cl)c(F)c2[H])C([H])([H])C1([H])[H]


 29 31  0  0  0  0  0  0  0  0999 V2000
  -18.5053   11.3610  -18.5913 C   0  0  0  0  0  0  0  0  0  0  0  0
  -19.0718   12.5333  -19.0796 C   0  0  0  0  0  0  0  0  0  0  0  0
  -18.5985   13.1305  -20.2532 C   0  0  0  0  0  0  0  0  0  0  0  0
  -17.5673   12.5575  -20.9306 C   0  0  0  0  0  0  0  0  0  0  0  0
  -17.0077   11.3856  -20.4343 C   0  0  0  0  0  0  0  0  0  0  0  0
  -15.9593   10.7596  -21.0805 F   0  0  0  0  0  0  0  0  0  0  0  0
  -17.4698   10.7985  -19.2839 C   0  0  0  0  0  0  0  0  0  0  0  0
  -20.6119    9.3660  -15.6324 N   0  0  0  0  0  0  0  0  0  0  0  0
  -19.7602    8.6262  -16.5071 C   0  0  0  0  0  0  0  0  0  0  0  0
  -18.5609    9.4071  -17.0117 C   0  0  0  0  0  0  0  0  0  0  0  0
  -18.9655   10.7594  -17.3970 N   0  0  0  0  0  0  0  0  0  0  0  0
  -19.8298   11.4433  -16.4981 C   0  0  0  0  0  0  0  0  0  0  0  0
  -21.0753   10.6304  -16.1666 C   0  0  0  0  0  0  0  0  0  0  0  0
  -21.6655    8.5252  -15.1735 C   0  0  0  0  0  0  0  0  0  0  0  0
  -23.8046    7.8596  -15.8363 O   0  0  0  0  0  0  0  0  0  0  0  0
  -23.0377    9.0077  -15.5317 C   0  0  0  0  0  0  0  0  0  0  0  0
  -24.7032    8.1022  -16.1654 H   0  0  0  0  0  0  0  0  0  0  0  0
  -17.0248   13.0798  -22.1134 N   0  0  0  0  0  0  0  0  0  0  0  0
  -17.5214   14.0817  -22.9407 C   0  0  0  0  0  0  0  0  0  0  0  0
  -18.6253   14.6592  -22.6168 O   0  0  0  0  0  0  0  0  0  0  0  0
  -16.0779   12.6630  -22.3924 H   0  0  0  0  0  0  0  0  0  0  0  0
  -16.9239   14.5820  -24.1718 C   0  0  0  0  0  0  0  0  0  0  0  0
  -16.9610   14.0137  -25.4050 C   0  0  0  0  0  0  0  0  0  0  0  0
  -17.9497   12.5802  -25.6673 Cl  0  0  0  0  0  0  0  0  0  0  0  0
  -16.2797   14.5533  -26.5139 C   0  0  0  0  0  0  0  0  0  0  0  0
  -15.5409   15.7022  -26.3729 C   0  0  0  0  0  0  0  0  0  0  0  0
  -15.4848   16.3042  -25.1350 C   0  0  0  0  0  0  0  0  0  0  0  0
  -16.1597   15.7550  -24.0670 C   0  0  0  0  0  0  0  0  0  0  0  0
  -16.0531   16.5585  -22.5117 Cl  0  0  0  0  0  0  0  0  0  0  0  0
 15 16  1  0  0  0
 16 14  1  0  0  0
 14  8  1  0  0  0
  8  9  1  0  0  0
  9 10  1  0  0  0
 10 11  1  0  0  0
 11 12  1  0  0  0
 12 13  1  0  0  0
 11  1  1  0  0  0
  1  2  2  0  0  0
  2  3  1  0  0  0
  3  4  2  0  0  0
  4 18  1  0  0  0
 18 19  1  0  0  0
 19 20  2  0  0  0
 19 22  1  0  0  0
 22 23  2  0  0  0
 23 24  1  0  0  0
 23 25  1  0  0  0
 25 26  2  0  0  0
 26 27  1  0  0  0
 27 28  2  0  0  0
 28 29  1  0  0  0
  4  5  1  0  0  0
  5  6  1  0  0  0
  5  7  2  0  0  0
 13  8  1  0  0  0
  7  1  1  0  0  0
 28 22  1  0  0  0
 15 17  1  0  0  0
 18 21  1  0  0  0
M  END
> <minimizedAffinity>
-8.43656

> <CNNscore>
0.6508625746

> <CNNaffinity>
6.7867307663

> <CNN_VS>
4.4172291756

> <CNNaffinity_variance>
0.0119632604

$$$$
[H]OC([H])([H])C([H])([H])N1C([H])([H])C([H])([H])N(c2c([H])c([H])c(N([H])C(=O)c3c(Cl)c([H])c([H])c([H])c3Cl)c(F)c2[H])C([H])([H])C1([H])[H]


 29 31  0  0  0  0  0  0  0  0999 V2000
  -18.1855   11.7601  -19.3925 C   0  0  0  0  0  0  0  0  0  0  0  0
  -17.2274   11.2089  -20.2361 C   0  0  0  0  0  0  0  0  0  0  0  0
  -16.9491   11.7784  -21.4836 C   0  0  0  0  0  0  0  0  0  0  0  0
  -17.6250   12.8901  -21.8810 C   0  0  0  0  0  0  0  0  0  0  0  0
  -18.5811   13.4336  -21.0305 C   0  0  0  0  0  0  0  0  0  0  0  0
  -19.2975   14.5616  -21.3814 F   0  0  0  0  0  0  0  0  0  0  0  0
  -18.8557   12.8769  -19.8073 C   0  0  0  0  0  0  0  0  0  0  0  0
  -19.8397    9.7365  -16.1767 N   0  0  0  0  0  0  0  0  0  0  0  0
  -18.9954    9.0338  -17.0884 C   0  0  0  0  0  0  0  0  0  0  0  0
  -17.9226    9.8946  -17.7292 C   0  0  0  0  0  0  0  0  0  0  0  0
  -18.4858   11.1818  -18.1374 N   0  0  0  0  0  0  0  0  0  0  0  0
  -19.3351   11.8291  -17.1979 C   0  0  0  0  0  0  0  0  0  0  0  0
  -20.4650   10.9232  -16.7240 C   0  0  0  0  0  0  0  0  0  0  0  0
  -20.7660    8.8272  -15.5913 C   0  0  0  0  0  0  0  0  0  0  0  0
  -20.8818    6.5223  -15.9550 O   0  0  0  0  0  0  0  0  0  0  0  0
  -20.1751    7.5016  -15.2198 C   0  0  0  0  0  0  0  0  0  0  0  0
  -20.6053    5.6096  -15.6998 H   0  0  0  0  0  0  0  0  0  0  0  0
  -17.4169   13.5319  -23.1102 N   0  0  0  0  0  0  0  0  0  0  0  0
  -16.4121   13.3266  -24.0500 C   0  0  0  0  0  0  0  0  0  0  0  0
  -15.5276   12.4200  -23.8200 O   0  0  0  0  0  0  0  0  0  0  0  0
  -18.1614   14.2590  -23.3659 H   0  0  0  0  0  0  0  0  0  0  0  0
  -16.2311   14.0319  -25.3120 C   0  0  0  0  0  0  0  0  0  0  0  0
  -15.5394   15.1801  -25.5312 C   0  0  0  0  0  0  0  0  0  0  0  0
  -14.5976   15.8860  -24.2212 Cl  0  0  0  0  0  0  0  0  0  0  0  0
  -15.4944   15.8149  -26.7882 C   0  0  0  0  0  0  0  0  0  0  0  0
  -16.1666   15.2722  -27.8556 C   0  0  0  0  0  0  0  0  0  0  0  0
  -16.8761   14.1065  -27.6664 C   0  0  0  0  0  0  0  0  0  0  0  0
  -16.9043   13.5068  -26.4265 C   0  0  0  0  0  0  0  0  0  0  0  0
  -17.8251   12.0261  -26.2379 Cl  0  0  0  0  0  0  0  0  0  0  0  0
 15 16  1  0  0  0
 16 14  1  0  0  0
 14  8  1  0  0  0
  8  9  1  0  0  0
  9 10  1  0  0  0
 10 11  1  0  0  0
 11 12  1  0  0  0
 12 13  1  0  0  0
 11  1  1  0  0  0
  1  2  2  0  0  0
  2  3  1  0  0  0
  3  4  2  0  0  0
  4 18  1  0  0  0
 18 19  1  0  0  0
 19 20  2  0  0  0
 19 22  1  0  0  0
 22 23  2  0  0  0
 23 24  1  0  0  0
 23 25  1  0  0  0
 25 26  2  0  0  0
 26 27  1  0  0  0
 27 28  2  0  0  0
 28 29  1  0  0  0
  4  5  1  0  0  0
  5  6  1  0  0  0
  5  7  2  0  0  0
 13  8  1  0  0  0
  7  1  1  0  0  0
 28 22  1  0  0  0
 15 17  1  0  0  0
 18 21  1  0  0  0
M  END
> <minimizedAffinity>
-8.86672

> <CNNscore>
0.5725594759

> <CNNaffinity>
6.7127428055

> <CNN_VS>
3.8434445858

> <CNNaffinity_variance>
0.0364954099

$$$$
[H]OC([H])([H])C([H])([H])N1C([H])([H])C([H])([H])N(c2c([H])c([H])c(N([H])C(=O)c3c(Cl)c([H])c([H])c([H])c3Cl)c(F)c2[H])C([H])([H])C1([H])[H]


 29 31  0  0  0  0  0  0  0  0999 V2000
  -18.2903   11.7877  -19.2609 C   0  0  0  0  0  0  0  0  0  0  0  0
  -17.3429   11.2418  -20.1201 C   0  0  0  0  0  0  0  0  0  0  0  0
  -17.0902   11.8111  -21.3731 C   0  0  0  0  0  0  0  0  0  0  0  0
  -17.7808   12.9172  -21.7607 C   0  0  0  0  0  0  0  0  0  0  0  0
  -18.7260   13.4554  -20.8947 C   0  0  0  0  0  0  0  0  0  0  0  0
  -19.4564   14.5775  -21.2350 F   0  0  0  0  0  0  0  0  0  0  0  0
  -18.9755   12.8989  -19.6660 C   0  0  0  0  0  0  0  0  0  0  0  0
  -19.9052    9.8122  -15.9957 N   0  0  0  0  0  0  0  0  0  0  0  0
  -19.1414    9.0777  -16.9524 C   0  0  0  0  0  0  0  0  0  0  0  0
  -18.0537    9.8888  -17.6318 C   0  0  0  0  0  0  0  0  0  0  0  0
  -18.5647   11.2095  -17.9999 N   0  0  0  0  0  0  0  0  0  0  0  0
  -19.3352   11.8884  -17.0158 C   0  0  0  0  0  0  0  0  0  0  0  0
  -20.4898   11.0375  -16.5011 C   0  0  0  0  0  0  0  0  0  0  0  0
  -20.8518    8.9456  -15.3788 C   0  0  0  0  0  0  0  0  0  0  0  0
  -19.4936    9.3102  -13.5133 O   0  0  0  0  0  0  0  0  0  0  0  0
  -20.4036    8.3800  -14.0660 C   0  0  0  0  0  0  0  0  0  0  0  0
  -19.0870    8.9674  -12.6815 H   0  0  0  0  0  0  0  0  0  0  0  0
  -17.5986   13.5583  -22.9943 N   0  0  0  0  0  0  0  0  0  0  0  0
  -16.5656   13.4155  -23.9149 C   0  0  0  0  0  0  0  0  0  0  0  0
  -15.6219   12.5781  -23.6591 O   0  0  0  0  0  0  0  0  0  0  0  0
  -18.3892   14.2265  -23.2713 H   0  0  0  0  0  0  0  0  0  0  0  0
  -16.4144   14.1176  -25.1826 C   0  0  0  0  0  0  0  0  0  0  0  0
  -16.7598   13.6808  -26.4215 C   0  0  0  0  0  0  0  0  0  0  0  0
  -17.6337   12.1612  -26.5903 Cl  0  0  0  0  0  0  0  0  0  0  0  0
  -16.4967   14.4204  -27.5915 C   0  0  0  0  0  0  0  0  0  0  0  0
  -15.8678   15.6382  -27.5067 C   0  0  0  0  0  0  0  0  0  0  0  0
  -15.5064   16.1104  -26.2640 C   0  0  0  0  0  0  0  0  0  0  0  0
  -15.7746   15.3665  -25.1360 C   0  0  0  0  0  0  0  0  0  0  0  0
  -15.2908   16.0110  -23.5783 Cl  0  0  0  0  0  0  0  0  0  0  0  0
 15 16  1  0  0  0
 16 14  1  0  0  0
 14  8  1  0  0  0
  8  9  1  0  0  0
  9 10  1  0  0  0
 10 11  1  0  0  0
 11 12  1  0  0  0
 12 13  1  0  0  0
 11  1  1  0  0  0
  1  2  2  0  0  0
  2  3  1  0  0  0
  3  4  2  0  0  0
  4 18  1  0  0  0
 18 19  1  0  0  0
 19 20  2  0  0  0
 19 22  1  0  0  0
 22 23  2  0  0  0
 23 24  1  0  0  0
 23 25  1  0  0  0
 25 26  2  0  0  0
 26 27  1  0  0  0
 27 28  2  0  0  0
 28 29  1  0  0  0
  4  5  1  0  0  0
  5  6  1  0  0  0
  5  7  2  0  0  0
 13  8  1  0  0  0
  7  1  1  0  0  0
 28 22  1  0  0  0
 15 17  1  0  0  0
 18 21  1  0  0  0
M  END
> <minimizedAffinity>
-8.64971

> <CNNscore>
0.5353329182

> <CNNaffinity>
6.6167564392

> <CNN_VS>
3.5421674252

> <CNNaffinity_variance>
0.0224754661

$$$$
[H]OC([H])([H])C([H])([H])N1C([H])([H])C([H])([H])N(c2c([H])c([H])c(N([H])C(=O)c3c(Cl)c([H])c([H])c([H])c3Cl)c(F)c2[H])C([H])([H])C1([H])[H]


 29 31  0  0  0  0  0  0  0  0999 V2000
  -19.2428   10.6898  -17.3196 C   0  0  0  0  0  0  0  0  0  0  0  0
  -19.6047   12.0311  -17.3801 C   0  0  0  0  0  0  0  0  0  0  0  0
  -18.9755   12.9102  -18.2685 C   0  0  0  0  0  0  0  0  0  0  0  0
  -17.9930   12.4486  -19.0883 C   0  0  0  0  0  0  0  0  0  0  0  0
  -17.6382   11.1061  -19.0202 C   0  0  0  0  0  0  0  0  0  0  0  0
  -16.6481   10.5821  -19.8288 F   0  0  0  0  0  0  0  0  0  0  0  0
  -18.2534   10.2425  -18.1500 C   0  0  0  0  0  0  0  0  0  0  0  0
  -20.5951    8.6019  -14.0053 N   0  0  0  0  0  0  0  0  0  0  0  0
  -21.3040    9.7620  -14.4407 C   0  0  0  0  0  0  0  0  0  0  0  0
  -21.2275   10.0106  -15.9356 C   0  0  0  0  0  0  0  0  0  0  0  0
  -19.8610    9.7976  -16.4131 N   0  0  0  0  0  0  0  0  0  0  0  0
  -19.1950    8.6363  -15.9327 C   0  0  0  0  0  0  0  0  0  0  0  0
  -19.2052    8.5552  -14.4111 C   0  0  0  0  0  0  0  0  0  0  0  0
  -20.7819    8.4302  -12.6042 C   0  0  0  0  0  0  0  0  0  0  0  0
  -20.4791    6.1711  -12.0918 O   0  0  0  0  0  0  0  0  0  0  0  0
  -19.8546    7.4343  -11.9777 C   0  0  0  0  0  0  0  0  0  0  0  0
  -19.9647    5.4702  -11.6240 H   0  0  0  0  0  0  0  0  0  0  0  0
  -17.3053   13.2506  -20.0103 N   0  0  0  0  0  0  0  0  0  0  0  0
  -17.8127   14.0604  -21.0211 C   0  0  0  0  0  0  0  0  0  0  0  0
  -19.0892   14.1363  -21.1691 O   0  0  0  0  0  0  0  0  0  0  0  0
  -16.2406   13.2577  -19.8890 H   0  0  0  0  0  0  0  0  0  0  0  0
  -17.0522   14.8679  -21.9659 C   0  0  0  0  0  0  0  0  0  0  0  0
  -16.6689   16.1641  -21.8320 C   0  0  0  0  0  0  0  0  0  0  0  0
  -16.9544   16.9973  -20.3070 Cl  0  0  0  0  0  0  0  0  0  0  0  0
  -15.9962   16.8692  -22.8495 C   0  0  0  0  0  0  0  0  0  0  0  0
  -15.7004   16.2452  -24.0365 C   0  0  0  0  0  0  0  0  0  0  0  0
  -16.0740   14.9297  -24.2028 C   0  0  0  0  0  0  0  0  0  0  0  0
  -16.7317   14.2638  -23.1920 C   0  0  0  0  0  0  0  0  0  0  0  0
  -17.1884   12.5912  -23.4556 Cl  0  0  0  0  0  0  0  0  0  0  0  0
 15 16  1  0  0  0
 16 14  1  0  0  0
 14  8  1  0  0  0
  8  9  1  0  0  0
  9 10  1  0  0  0
 10 11  1  0  0  0
 11 12  1  0  0  0
 12 13  1  0  0  0
 11  1  1  0  0  0
  1  2  2  0  0  0
  2  3  1  0  0  0
  3  4  2  0  0  0
  4 18  1  0  0  0
 18 19  1  0  0  0
 19 20  2  0  0  0
 19 22  1  0  0  0
 22 23  2  0  0  0
 23 24  1  0  0  0
 23 25  1  0  0  0
 25 26  2  0  0  0
 26 27  1  0  0  0
 27 28  2  0  0  0
 28 29  1  0  0  0
  4  5  1  0  0  0
  5  6  1  0  0  0
  5  7  2  0  0  0
 13  8  1  0  0  0
  7  1  1  0  0  0
 28 22  1  0  0  0
 15 17  1  0  0  0
 18 21  1  0  0  0
M  END
> <minimizedAffinity>
-7.23202

> <CNNscore>
0.3851777315

> <CNNaffinity>
6.2188038826

> <CNN_VS>
2.3953447342

> <CNNaffinity_variance>
0.1242584214

$$$$
[H]OC([H])([H])C([H])([H])N1C([H])([H])C([H])([H])N(c2c([H])c([H])c(N([H])C(=O)c3c(Cl)c([H])c([H])c([H])c3Cl)c(F)c2[H])C([H])([H])C1([H])[H]


 29 31  0  0  0  0  0  0  0  0999 V2000
  -18.8646   11.2720  -18.2623 C   0  0  0  0  0  0  0  0  0  0  0  0
  -19.4674   12.4793  -18.5977 C   0  0  0  0  0  0  0  0  0  0  0  0
  -18.9208   13.3116  -19.5807 C   0  0  0  0  0  0  0  0  0  0  0  0
  -17.7807   12.9367  -20.2213 C   0  0  0  0  0  0  0  0  0  0  0  0
  -17.1855   11.7279  -19.8787 C   0  0  0  0  0  0  0  0  0  0  0  0
  -16.0275   11.2962  -20.4961 F   0  0  0  0  0  0  0  0  0  0  0  0
  -17.7194   10.9105  -18.9152 C   0  0  0  0  0  0  0  0  0  0  0  0
  -19.6058    9.0036  -14.8743 N   0  0  0  0  0  0  0  0  0  0  0  0
  -19.9310   10.3937  -14.8727 C   0  0  0  0  0  0  0  0  0  0  0  0
  -20.3127   10.9427  -16.2348 C   0  0  0  0  0  0  0  0  0  0  0  0
  -19.4001   10.4323  -17.2583 N   0  0  0  0  0  0  0  0  0  0  0  0
  -19.0956    9.0441  -17.2012 C   0  0  0  0  0  0  0  0  0  0  0  0
  -18.5846    8.6229  -15.8288 C   0  0  0  0  0  0  0  0  0  0  0  0
  -19.3231    8.5814  -13.5442 C   0  0  0  0  0  0  0  0  0  0  0  0
  -18.3974    9.2569  -11.5083 O   0  0  0  0  0  0  0  0  0  0  0  0
  -19.2489    9.6973  -12.5475 C   0  0  0  0  0  0  0  0  0  0  0  0
  -18.3647    9.9085  -10.7673 H   0  0  0  0  0  0  0  0  0  0  0  0
  -17.1585   13.7014  -21.2184 N   0  0  0  0  0  0  0  0  0  0  0  0
  -17.1274   13.4946  -22.5936 C   0  0  0  0  0  0  0  0  0  0  0  0
  -17.7549   12.4812  -23.0799 O   0  0  0  0  0  0  0  0  0  0  0  0
  -16.6676   14.5849  -20.8623 H   0  0  0  0  0  0  0  0  0  0  0  0
  -16.4526   14.3148  -23.5910 C   0  0  0  0  0  0  0  0  0  0  0  0
  -16.9474   15.3914  -24.2552 C   0  0  0  0  0  0  0  0  0  0  0  0
  -18.5285   16.0286  -23.8134 Cl  0  0  0  0  0  0  0  0  0  0  0  0
  -16.2246   16.0662  -25.2589 C   0  0  0  0  0  0  0  0  0  0  0  0
  -14.9639   15.6417  -25.5998 C   0  0  0  0  0  0  0  0  0  0  0  0
  -14.4327   14.5534  -24.9429 C   0  0  0  0  0  0  0  0  0  0  0  0
  -15.1613   13.9112  -23.9660 C   0  0  0  0  0  0  0  0  0  0  0  0
  -14.4407   12.5288  -23.1625 Cl  0  0  0  0  0  0  0  0  0  0  0  0
 15 16  1  0  0  0
 16 14  1  0  0  0
 14  8  1  0  0  0
  8  9  1  0  0  0
  9 10  1  0  0  0
 10 11  1  0  0  0
 11 12  1  0  0  0
 12 13  1  0  0  0
 11  1  1  0  0  0
  1  2  2  0  0  0
  2  3  1  0  0  0
  3  4  2  0  0  0
  4 18  1  0  0  0
 18 19  1  0  0  0
 19 20  2  0  0  0
 19 22  1  0  0  0
 22 23  2  0  0  0
 23 24  1  0  0  0
 23 25  1  0  0  0
 25 26  2  0  0  0
 26 27  1  0  0  0
 27 28  2  0  0  0
 28 29  1  0  0  0
  4  5  1  0  0  0
  5  6  1  0  0  0
  5  7  2  0  0  0
 13  8  1  0  0  0
  7  1  1  0  0  0
 28 22  1  0  0  0
 15 17  1  0  0  0
 18 21  1  0  0  0
M  END
> <minimizedAffinity>
-7.91638

> <CNNscore>
0.3551468849

> <CNNaffinity>
6.2918939590

> <CNN_VS>
2.2345464230

> <CNNaffinity_variance>
0.0879112333

$$$$
[H]OC([H])([H])C([H])([H])N1C([H])([H])C([H])([H])N(c2c([H])c([H])c(N([H])C(=O)c3c(Cl)c([H])c([H])c([H])c3Cl)c(F)c2[H])C([H])([H])C1([H])[H]


 29 31  0  0  0  0  0  0  0  0999 V2000
  -19.3218   10.5055  -17.2324 C   0  0  0  0  0  0  0  0  0  0  0  0
  -18.1816   10.0100  -17.8556 C   0  0  0  0  0  0  0  0  0  0  0  0
  -17.5182   10.7484  -18.8418 C   0  0  0  0  0  0  0  0  0  0  0  0
  -17.9934   11.9718  -19.1995 C   0  0  0  0  0  0  0  0  0  0  0  0
  -19.1340   12.4584  -18.5707 C   0  0  0  0  0  0  0  0  0  0  0  0
  -19.6610   13.6941  -18.8931 F   0  0  0  0  0  0  0  0  0  0  0  0
  -19.7861   11.7363  -17.6039 C   0  0  0  0  0  0  0  0  0  0  0  0
  -20.7736    8.8104  -13.7408 N   0  0  0  0  0  0  0  0  0  0  0  0
  -21.3373   10.0337  -14.2137 C   0  0  0  0  0  0  0  0  0  0  0  0
  -21.3059   10.1883  -15.7229 C   0  0  0  0  0  0  0  0  0  0  0  0
  -20.0088    9.7594  -16.2470 N   0  0  0  0  0  0  0  0  0  0  0  0
  -19.4853    8.5434  -15.7271 C   0  0  0  0  0  0  0  0  0  0  0  0
  -19.4267    8.5465  -14.2044 C   0  0  0  0  0  0  0  0  0  0  0  0
  -20.9085    8.7424  -12.3249 C   0  0  0  0  0  0  0  0  0  0  0  0
  -19.7549   10.3047  -11.0263 O   0  0  0  0  0  0  0  0  0  0  0  0
  -19.6399    9.0059  -11.5730 C   0  0  0  0  0  0  0  0  0  0  0  0
  -18.9183   10.5858  -10.5838 H   0  0  0  0  0  0  0  0  0  0  0  0
  -17.3991   12.7850  -20.1749 N   0  0  0  0  0  0  0  0  0  0  0  0
  -17.4477   12.6739  -21.5606 C   0  0  0  0  0  0  0  0  0  0  0  0
  -18.1341   11.7164  -22.0795 O   0  0  0  0  0  0  0  0  0  0  0  0
  -16.8603   13.6262  -19.7871 H   0  0  0  0  0  0  0  0  0  0  0  0
  -16.7991   13.5410  -22.5356 C   0  0  0  0  0  0  0  0  0  0  0  0
  -17.2251   14.7489  -22.9875 C   0  0  0  0  0  0  0  0  0  0  0  0
  -18.6403   15.4970  -22.2535 Cl  0  0  0  0  0  0  0  0  0  0  0  0
  -16.5494   15.4683  -23.9930 C   0  0  0  0  0  0  0  0  0  0  0  0
  -15.4084   14.9525  -24.5569 C   0  0  0  0  0  0  0  0  0  0  0  0
  -14.9491   13.7298  -24.1187 C   0  0  0  0  0  0  0  0  0  0  0  0
  -15.6295   13.0469  -23.1347 C   0  0  0  0  0  0  0  0  0  0  0  0
  -15.0048   11.4927  -22.6150 Cl  0  0  0  0  0  0  0  0  0  0  0  0
 15 16  1  0  0  0
 16 14  1  0  0  0
 14  8  1  0  0  0
  8  9  1  0  0  0
  9 10  1  0  0  0
 10 11  1  0  0  0
 11 12  1  0  0  0
 12 13  1  0  0  0
 11  1  1  0  0  0
  1  2  2  0  0  0
  2  3  1  0  0  0
  3  4  2  0  0  0
  4 18  1  0  0  0
 18 19  1  0  0  0
 19 20  2  0  0  0
 19 22  1  0  0  0
 22 23  2  0  0  0
 23 24  1  0  0  0
 23 25  1  0  0  0
 25 26  2  0  0  0
 26 27  1  0  0  0
 27 28  2  0  0  0
 28 29  1  0  0  0
  4  5  1  0  0  0
  5  6  1  0  0  0
  5  7  2  0  0  0
 13  8  1  0  0  0
  7  1  1  0  0  0
 28 22  1  0  0  0
 15 17  1  0  0  0
 18 21  1  0  0  0
M  END
> <minimizedAffinity>
-7.22065

> <CNNscore>
0.3252776861

> <CNNaffinity>
6.1158142090

> <CNN_VS>
1.9893379211

> <CNNaffinity_variance>
0.0567140207

$$$$
[H]OC([H])([H])C([H])([H])N1C([H])([H])C([H])([H])N(c2c([H])c([H])c(N([H])C(=O)c3c(Cl)c([H])c([H])c([H])c3Cl)c(F)c2[H])C([H])([H])C1([H])[H]


 29 31  0  0  0  0  0  0  0  0999 V2000
  -19.2891   16.0031  -18.8770 C   0  0  0  0  0  0  0  0  0  0  0  0
  -18.8575   17.1077  -19.6031 C   0  0  0  0  0  0  0  0  0  0  0  0
  -18.5531   17.0035  -20.9649 C   0  0  0  0  0  0  0  0  0  0  0  0
  -18.6804   15.8033  -21.5924 C   0  0  0  0  0  0  0  0  0  0  0  0
  -19.1126   14.7048  -20.8578 C   0  0  0  0  0  0  0  0  0  0  0  0
  -19.2607   13.4620  -21.4425 F   0  0  0  0  0  0  0  0  0  0  0  0
  -19.4113   14.8045  -19.5227 C   0  0  0  0  0  0  0  0  0  0  0  0
  -20.8477   16.8573  -15.1335 N   0  0  0  0  0  0  0  0  0  0  0  0
  -21.4087   15.7919  -15.9003 C   0  0  0  0  0  0  0  0  0  0  0  0
  -20.4186   15.1023  -16.8207 C   0  0  0  0  0  0  0  0  0  0  0  0
  -19.5827   16.0948  -17.4967 N   0  0  0  0  0  0  0  0  0  0  0  0
  -19.0657   17.1449  -16.6886 C   0  0  0  0  0  0  0  0  0  0  0  0
  -20.1610   17.8669  -15.9133 C   0  0  0  0  0  0  0  0  0  0  0  0
  -21.8422   17.3916  -14.2658 C   0  0  0  0  0  0  0  0  0  0  0  0
  -23.5649   18.9669  -14.1710 O   0  0  0  0  0  0  0  0  0  0  0  0
  -23.0545   17.9186  -14.9707 C   0  0  0  0  0  0  0  0  0  0  0  0
  -24.4180   19.3117  -14.5287 H   0  0  0  0  0  0  0  0  0  0  0  0
  -18.4000   15.5995  -22.9511 N   0  0  0  0  0  0  0  0  0  0  0  0
  -17.2703   15.0426  -23.5415 C   0  0  0  0  0  0  0  0  0  0  0  0
  -16.3202   14.6221  -22.7815 O   0  0  0  0  0  0  0  0  0  0  0  0
  -19.1878   15.8880  -23.6177 H   0  0  0  0  0  0  0  0  0  0  0  0
  -17.0200   14.8641  -24.9657 C   0  0  0  0  0  0  0  0  0  0  0  0
  -17.2479   13.7561  -25.7176 C   0  0  0  0  0  0  0  0  0  0  0  0
  -18.0780   12.3790  -24.9993 Cl  0  0  0  0  0  0  0  0  0  0  0  0
  -16.8954   13.6730  -27.0792 C   0  0  0  0  0  0  0  0  0  0  0  0
  -16.2968   14.7419  -27.6996 C   0  0  0  0  0  0  0  0  0  0  0  0
  -16.0539   15.8816  -26.9647 C   0  0  0  0  0  0  0  0  0  0  0  0
  -16.4078   15.9360  -25.6345 C   0  0  0  0  0  0  0  0  0  0  0  0
  -16.0737   17.4089  -24.7430 Cl  0  0  0  0  0  0  0  0  0  0  0  0
 15 16  1  0  0  0
 16 14  1  0  0  0
 14  8  1  0  0  0
  8  9  1  0  0  0
  9 10  1  0  0  0
 10 11  1  0  0  0
 11 12  1  0  0  0
 12 13  1  0  0  0
 11  1  1  0  0  0
  1  2  2  0  0  0
  2  3  1  0  0  0
  3  4  2  0  0  0
  4 18  1  0  0  0
 18 19  1  0  0  0
 19 20  2  0  0  0
 19 22  1  0  0  0
 22 23  2  0  0  0
 23 24  1  0  0  0
 23 25  1  0  0  0
 25 26  2  0  0  0
 26 27  1  0  0  0
 27 28  2  0  0  0
 28 29  1  0  0  0
  4  5  1  0  0  0
  5  6  1  0  0  0
  5  7  2  0  0  0
 13  8  1  0  0  0
  7  1  1  0  0  0
 28 22  1  0  0  0
 15 17  1  0  0  0
 18 21  1  0  0  0
M  END
> <minimizedAffinity>
-6.28024

> <CNNscore>
0.3161704540

> <CNNaffinity>
5.9384708405

> <CNN_VS>
1.8775690794

> <CNNaffinity_variance>
0.1497274935

$$$$
[H]OC([H])([H])C([H])([H])N1C([H])([H])C([H])([H])N(c2c([H])c([H])c(N([H])C(=O)c3c(Cl)c([H])c([H])c([H])c3Cl)c(F)c2[H])C([H])([H])C1([H])[H]


 29 31  0  0  0  0  0  0  0  0999 V2000
  -18.8986   12.1382  -18.7990 C   0  0  0  0  0  0  0  0  0  0  0  0
  -18.4252   11.2268  -19.7365 C   0  0  0  0  0  0  0  0  0  0  0  0
  -17.7681   11.6566  -20.8947 C   0  0  0  0  0  0  0  0  0  0  0  0
  -17.5873   12.9875  -21.1106 C   0  0  0  0  0  0  0  0  0  0  0  0
  -18.0643   13.8908  -20.1674 C   0  0  0  0  0  0  0  0  0  0  0  0
  -17.9086   15.2534  -20.3338 F   0  0  0  0  0  0  0  0  0  0  0  0
  -18.7089   13.4719  -19.0315 C   0  0  0  0  0  0  0  0  0  0  0  0
  -20.0172   10.9399  -14.9931 N   0  0  0  0  0  0  0  0  0  0  0  0
  -19.9518   12.3328  -15.2989 C   0  0  0  0  0  0  0  0  0  0  0  0
  -20.2535   12.6640  -16.7487 C   0  0  0  0  0  0  0  0  0  0  0  0
  -19.5789   11.7142  -17.6340 N   0  0  0  0  0  0  0  0  0  0  0  0
  -19.6602   10.3413  -17.2714 C   0  0  0  0  0  0  0  0  0  0  0  0
  -19.1990   10.0960  -15.8399 C   0  0  0  0  0  0  0  0  0  0  0  0
  -19.7782   10.7481  -13.6025 C   0  0  0  0  0  0  0  0  0  0  0  0
  -20.6394   10.7743  -11.4310 O   0  0  0  0  0  0  0  0  0  0  0  0
  -20.8230   11.3462  -12.7109 C   0  0  0  0  0  0  0  0  0  0  0  0
  -21.3477   11.0570  -10.8040 H   0  0  0  0  0  0  0  0  0  0  0  0
  -16.9422   13.5144  -22.2385 N   0  0  0  0  0  0  0  0  0  0  0  0
  -17.4760   14.2443  -23.2955 C   0  0  0  0  0  0  0  0  0  0  0  0
  -18.7336   14.5191  -23.2831 O   0  0  0  0  0  0  0  0  0  0  0  0
  -15.8830   13.3535  -22.2629 H   0  0  0  0  0  0  0  0  0  0  0  0
  -16.7627   14.7606  -24.4564 C   0  0  0  0  0  0  0  0  0  0  0  0
  -16.0200   15.8948  -24.5393 C   0  0  0  0  0  0  0  0  0  0  0  0
  -15.7082   16.8329  -23.0819 Cl  0  0  0  0  0  0  0  0  0  0  0  0
  -15.4333   16.3357  -25.7420 C   0  0  0  0  0  0  0  0  0  0  0  0
  -15.6005   15.6078  -26.8943 C   0  0  0  0  0  0  0  0  0  0  0  0
  -16.3469   14.4510  -26.8430 C   0  0  0  0  0  0  0  0  0  0  0  0
  -16.9104   14.0430  -25.6540 C   0  0  0  0  0  0  0  0  0  0  0  0
  -17.8543   12.5649  -25.6432 Cl  0  0  0  0  0  0  0  0  0  0  0  0
 15 16  1  0  0  0
 16 14  1  0  0  0
 14  8  1  0  0  0
  8  9  1  0  0  0
  9 10  1  0  0  0
 10 11  1  0  0  0
 11 12  1  0  0  0
 12 13  1  0  0  0
 11  1  1  0  0  0
  1  2  2  0  0  0
  2  3  1  0  0  0
  3  4  2  0  0  0
  4 18  1  0  0  0
 18 19  1  0  0  0
 19 20  2  0  0  0
 19 22  1  0  0  0
 22 23  2  0  0  0
 23 24  1  0  0  0
 23 25  1  0  0  0
 25 26  2  0  0  0
 26 27  1  0  0  0
 27 28  2  0  0  0
 28 29  1  0  0  0
  4  5  1  0  0  0
  5  6  1  0  0  0
  5  7  2  0  0  0
 13  8  1  0  0  0
  7  1  1  0  0  0
 28 22  1  0  0  0
 15 17  1  0  0  0
 18 21  1  0  0  0
M  END
> <minimizedAffinity>
-6.81010

> <CNNscore>
0.3023589253

> <CNNaffinity>
6.3908200264

> <CNN_VS>
1.9323214293

> <CNNaffinity_variance>
0.1593466699

$$$$
[H]OC([H])([H])C([H])([H])N1C([H])([H])C([H])([H])N(c2c([H])c([H])c(N([H])C(=O)c3c(Cl)c([H])c([H])c([H])c3Cl)c(F)c2[H])C([H])([H])C1([H])[H]


 29 31  0  0  0  0  0  0  0  0999 V2000
  -19.7802   10.1143  -16.6448 C   0  0  0  0  0  0  0  0  0  0  0  0
  -20.1663   11.4502  -16.6467 C   0  0  0  0  0  0  0  0  0  0  0  0
  -19.5285   12.3858  -17.4688 C   0  0  0  0  0  0  0  0  0  0  0  0
  -18.5135   11.9855  -18.2813 C   0  0  0  0  0  0  0  0  0  0  0  0
  -18.1348   10.6478  -18.2721 C   0  0  0  0  0  0  0  0  0  0  0  0
  -17.1114   10.1848  -19.0764 F   0  0  0  0  0  0  0  0  0  0  0  0
  -18.7584    9.7290  -17.4669 C   0  0  0  0  0  0  0  0  0  0  0  0
  -21.1134    7.7728  -13.4964 N   0  0  0  0  0  0  0  0  0  0  0  0
  -21.7834    8.9982  -13.7919 C   0  0  0  0  0  0  0  0  0  0  0  0
  -21.7460    9.3874  -15.2581 C   0  0  0  0  0  0  0  0  0  0  0  0
  -20.4073    9.1649  -15.8050 N   0  0  0  0  0  0  0  0  0  0  0  0
  -19.7786    7.9357  -15.4631 C   0  0  0  0  0  0  0  0  0  0  0  0
  -19.7414    7.7078  -13.9569 C   0  0  0  0  0  0  0  0  0  0  0  0
  -21.2606    7.4739  -12.1120 C   0  0  0  0  0  0  0  0  0  0  0  0
  -23.0364    7.8424  -10.6393 O   0  0  0  0  0  0  0  0  0  0  0  0
  -22.6362    7.0266  -11.7224 C   0  0  0  0  0  0  0  0  0  0  0  0
  -23.9042    7.5515  -10.2692 H   0  0  0  0  0  0  0  0  0  0  0  0
  -17.8148   12.8469  -19.1391 N   0  0  0  0  0  0  0  0  0  0  0  0
  -18.2891   13.5925  -20.2134 C   0  0  0  0  0  0  0  0  0  0  0  0
  -19.5431   13.5358  -20.4985 O   0  0  0  0  0  0  0  0  0  0  0  0
  -16.7758   12.9643  -18.9047 H   0  0  0  0  0  0  0  0  0  0  0  0
  -17.5165   14.4667  -21.0862 C   0  0  0  0  0  0  0  0  0  0  0  0
  -16.9372   14.1544  -22.2744 C   0  0  0  0  0  0  0  0  0  0  0  0
  -17.2287   12.5715  -22.9892 Cl  0  0  0  0  0  0  0  0  0  0  0  0
  -16.1460   15.0669  -23.0001 C   0  0  0  0  0  0  0  0  0  0  0  0
  -15.9359   16.3329  -22.5114 C   0  0  0  0  0  0  0  0  0  0  0  0
  -16.5117   16.6815  -21.3094 C   0  0  0  0  0  0  0  0  0  0  0  0
  -17.2801   15.7696  -20.6197 C   0  0  0  0  0  0  0  0  0  0  0  0
  -17.9878   16.2623  -19.0925 Cl  0  0  0  0  0  0  0  0  0  0  0  0
 15 16  1  0  0  0
 16 14  1  0  0  0
 14  8  1  0  0  0
  8  9  1  0  0  0
  9 10  1  0  0  0
 10 11  1  0  0  0
 11 12  1  0  0  0
 12 13  1  0  0  0
 11  1  1  0  0  0
  1  2  2  0  0  0
  2  3  1  0  0  0
  3  4  2  0  0  0
  4 18  1  0  0  0
 18 19  1  0  0  0
 19 20  2  0  0  0
 19 22  1  0  0  0
 22 23  2  0  0  0
 23 24  1  0  0  0
 23 25  1  0  0  0
 25 26  2  0  0  0
 26 27  1  0  0  0
 27 28  2  0  0  0
 28 29  1  0  0  0
  4  5  1  0  0  0
  5  6  1  0  0  0
  5  7  2  0  0  0
 13  8  1  0  0  0
  7  1  1  0  0  0
 28 22  1  0  0  0
 15 17  1  0  0  0
 18 21  1  0  0  0
M  END
> <minimizedAffinity>
-6.88126

> <CNNscore>
0.2631617188

> <CNNaffinity>
5.8182415962

> <CNN_VS>
1.5311384201

> <CNNaffinity_variance>
0.0722276345

$$$$
[H]c1nc(-c2c([H])nc3c([H])c([H])nn3c2-c2c([H])c([H])c([H])c([H])c2F)c([H])c(N([H])[H])c1[H]


 25 28  0  0  0  0  0  0  0  0999 V2000
  -17.5991   12.3979  -20.3198 C   0  0  0  0  0  0  0  0  0  0  0  0
  -16.8214   11.2699  -20.4145 C   0  0  0  0  0  0  0  0  0  0  0  0
  -17.0202   10.2726  -19.5401 N   0  0  0  0  0  0  0  0  0  0  0  0
  -17.9409   10.3160  -18.5738 C   0  0  0  0  0  0  0  0  0  0  0  0
  -18.3161    9.4462  -17.5925 C   0  0  0  0  0  0  0  0  0  0  0  0
  -19.3344   10.0616  -16.8984 C   0  0  0  0  0  0  0  0  0  0  0  0
  -19.5644   11.2771  -17.4540 N   0  0  0  0  0  0  0  0  0  0  0  0
  -18.7008   11.4069  -18.4739 N   0  0  0  0  0  0  0  0  0  0  0  0
  -18.5498   12.4489  -19.3263 C   0  0  0  0  0  0  0  0  0  0  0  0
  -18.0473   14.3764  -24.8019 N   0  0  0  0  0  0  0  0  0  0  0  0
  -17.6635   14.5112  -23.4392 C   0  0  0  0  0  0  0  0  0  0  0  0
  -17.1493   15.7101  -22.9868 C   0  0  0  0  0  0  0  0  0  0  0  0
  -16.7991   15.7708  -21.6537 C   0  0  0  0  0  0  0  0  0  0  0  0
  -16.9479   14.7178  -20.8283 N   0  0  0  0  0  0  0  0  0  0  0  0
  -17.4452   13.5339  -21.2338 C   0  0  0  0  0  0  0  0  0  0  0  0
  -17.8064   13.4366  -22.5609 C   0  0  0  0  0  0  0  0  0  0  0  0
  -17.5133   14.8091  -25.5773 H   0  0  0  0  0  0  0  0  0  0  0  0
  -18.9011   13.8197  -25.0318 H   0  0  0  0  0  0  0  0  0  0  0  0
  -19.3958   13.6195  -19.1908 C   0  0  0  0  0  0  0  0  0  0  0  0
  -20.4866   13.7821  -19.9965 C   0  0  0  0  0  0  0  0  0  0  0  0
  -21.3317   14.8939  -19.9054 C   0  0  0  0  0  0  0  0  0  0  0  0
  -21.0263   15.8380  -18.9616 C   0  0  0  0  0  0  0  0  0  0  0  0
  -19.9300   15.6744  -18.1520 C   0  0  0  0  0  0  0  0  0  0  0  0
  -19.0895   14.5613  -18.2481 C   0  0  0  0  0  0  0  0  0  0  0  0
  -18.0049   14.4463  -17.4124 F   0  0  0  0  0  0  0  0  0  0  0  0
 10 11  1  0  0  0
 11 12  2  0  0  0
 12 13  1  0  0  0
 13 14  2  0  0  0
 14 15  1  0  0  0
 15 16  2  0  0  0
 15  1  1  0  0  0
  1  2  1  0  0  0
  2  3  2  0  0  0
  3  4  1  0  0  0
  4  5  2  0  0  0
  5  6  1  0  0  0
  6  7  2  0  0  0
  7  8  1  0  0  0
  8  9  1  0  0  0
  9 19  1  0  0  0
 19 20  2  0  0  0
 20 21  1  0  0  0
 21 22  2  0  0  0
 22 23  1  0  0  0
 23 24  2  0  0  0
 24 25  1  0  0  0
 16 11  1  0  0  0
  9  1  2  0  0  0
 24 19  1  0  0  0
  8  4  1  0  0  0
 10 17  1  0  0  0
 10 18  1  0  0  0
M  END
> <minimizedAffinity>
-7.85076

> <CNNscore>
0.5812315345

> <CNNaffinity>
6.5131745338

> <CNN_VS>
3.7856624126

> <CNNaffinity_variance>
0.2830963135

$$$$
[H]c1nc(-c2c([H])nc3c([H])c([H])nn3c2-c2c([H])c([H])c([H])c([H])c2F)c([H])c(N([H])[H])c1[H]


 25 28  0  0  0  0  0  0  0  0999 V2000
  -17.6541   12.5944  -20.4407 C   0  0  0  0  0  0  0  0  0  0  0  0
  -16.8576   11.4829  -20.5680 C   0  0  0  0  0  0  0  0  0  0  0  0
  -17.0203   10.4689  -19.7053 N   0  0  0  0  0  0  0  0  0  0  0  0
  -17.9221   10.4804  -18.7205 C   0  0  0  0  0  0  0  0  0  0  0  0
  -18.2614    9.5890  -17.7455 C   0  0  0  0  0  0  0  0  0  0  0  0
  -19.2769   10.1745  -17.0222 C   0  0  0  0  0  0  0  0  0  0  0  0
  -19.5406   11.3936  -17.5544 N   0  0  0  0  0  0  0  0  0  0  0  0
  -18.7001   11.5551  -18.5889 N   0  0  0  0  0  0  0  0  0  0  0  0
  -18.5856   12.6125  -19.4280 C   0  0  0  0  0  0  0  0  0  0  0  0
  -16.2400   17.2271  -21.3023 N   0  0  0  0  0  0  0  0  0  0  0  0
  -16.8457   16.0275  -21.7677 C   0  0  0  0  0  0  0  0  0  0  0  0
  -17.3212   15.9565  -23.0620 C   0  0  0  0  0  0  0  0  0  0  0  0
  -17.8955   14.7625  -23.4469 C   0  0  0  0  0  0  0  0  0  0  0  0
  -17.9916   13.7140  -22.6080 N   0  0  0  0  0  0  0  0  0  0  0  0
  -17.5396   13.7467  -21.3400 C   0  0  0  0  0  0  0  0  0  0  0  0
  -16.9590   14.9249  -20.9204 C   0  0  0  0  0  0  0  0  0  0  0  0
  -16.5864   18.1666  -21.5686 H   0  0  0  0  0  0  0  0  0  0  0  0
  -15.4129   17.1600  -20.6673 H   0  0  0  0  0  0  0  0  0  0  0  0
  -19.4504   13.7647  -19.2579 C   0  0  0  0  0  0  0  0  0  0  0  0
  -20.5518   13.9260  -20.0492 C   0  0  0  0  0  0  0  0  0  0  0  0
  -21.4151   15.0205  -19.9248 C   0  0  0  0  0  0  0  0  0  0  0  0
  -21.1168   15.9484  -18.9629 C   0  0  0  0  0  0  0  0  0  0  0  0
  -20.0097   15.7860  -18.1678 C   0  0  0  0  0  0  0  0  0  0  0  0
  -19.1510   14.6903  -18.2972 C   0  0  0  0  0  0  0  0  0  0  0  0
  -18.0563   14.5756  -17.4748 F   0  0  0  0  0  0  0  0  0  0  0  0
 10 11  1  0  0  0
 11 12  2  0  0  0
 12 13  1  0  0  0
 13 14  2  0  0  0
 14 15  1  0  0  0
 15 16  2  0  0  0
 15  1  1  0  0  0
  1  2  1  0  0  0
  2  3  2  0  0  0
  3  4  1  0  0  0
  4  5  2  0  0  0
  5  6  1  0  0  0
  6  7  2  0  0  0
  7  8  1  0  0  0
  8  9  1  0  0  0
  9 19  1  0  0  0
 19 20  2  0  0  0
 20 21  1  0  0  0
 21 22  2  0  0  0
 22 23  1  0  0  0
 23 24  2  0  0  0
 24 25  1  0  0  0
 16 11  1  0  0  0
  9  1  2  0  0  0
 24 19  1  0  0  0
  8  4  1  0  0  0
 10 17  1  0  0  0
 10 18  1  0  0  0
M  END
> <minimizedAffinity>
-7.53245

> <CNNscore>
0.5800913572

> <CNNaffinity>
6.4251847267

> <CNN_VS>
3.7271940708

> <CNNaffinity_variance>
0.1848420203

$$$$
[H]c1nc(-c2c([H])nc3c([H])c([H])nn3c2-c2c([H])c([H])c([H])c([H])c2F)c([H])c(N([H])[H])c1[H]


 25 28  0  0  0  0  0  0  0  0999 V2000
  -17.1438   13.4441  -22.0612 C   0  0  0  0  0  0  0  0  0  0  0  0
  -16.5892   12.2580  -22.4755 C   0  0  0  0  0  0  0  0  0  0  0  0
  -16.5388   11.2321  -21.6132 N   0  0  0  0  0  0  0  0  0  0  0  0
  -17.0022   11.3006  -20.3627 C   0  0  0  0  0  0  0  0  0  0  0  0
  -17.0583   10.4109  -19.3303 C   0  0  0  0  0  0  0  0  0  0  0  0
  -17.6556   11.0733  -18.2806 C   0  0  0  0  0  0  0  0  0  0  0  0
  -17.9516   12.3358  -18.6773 N   0  0  0  0  0  0  0  0  0  0  0  0
  -17.5426   12.4479  -19.9512 N   0  0  0  0  0  0  0  0  0  0  0  0
  -17.6235   13.5213  -20.7737 C   0  0  0  0  0  0  0  0  0  0  0  0
  -15.0096   16.8026  -24.9542 N   0  0  0  0  0  0  0  0  0  0  0  0
  -16.1887   16.2701  -24.3638 C   0  0  0  0  0  0  0  0  0  0  0  0
  -17.4109   16.8584  -24.6219 C   0  0  0  0  0  0  0  0  0  0  0  0
  -18.5128   16.2894  -24.0173 C   0  0  0  0  0  0  0  0  0  0  0  0
  -18.4099   15.2141  -23.2140 N   0  0  0  0  0  0  0  0  0  0  0  0
  -17.2359   14.6145  -22.9396 C   0  0  0  0  0  0  0  0  0  0  0  0
  -16.1123   15.1564  -23.5270 C   0  0  0  0  0  0  0  0  0  0  0  0
  -14.8565   17.8203  -25.0744 H   0  0  0  0  0  0  0  0  0  0  0  0
  -14.2678   16.1430  -25.2805 H   0  0  0  0  0  0  0  0  0  0  0  0
  -18.2203   14.7535  -20.2942 C   0  0  0  0  0  0  0  0  0  0  0  0
  -17.4326   15.8087  -19.9317 C   0  0  0  0  0  0  0  0  0  0  0  0
  -17.9606   17.0167  -19.4621 C   0  0  0  0  0  0  0  0  0  0  0  0
  -19.3237   17.1133  -19.3743 C   0  0  0  0  0  0  0  0  0  0  0  0
  -20.1151   16.0527  -19.7387 C   0  0  0  0  0  0  0  0  0  0  0  0
  -19.5814   14.8483  -20.2070 C   0  0  0  0  0  0  0  0  0  0  0  0
  -20.4191   13.8176  -20.5591 F   0  0  0  0  0  0  0  0  0  0  0  0
 10 11  1  0  0  0
 11 12  2  0  0  0
 12 13  1  0  0  0
 13 14  2  0  0  0
 14 15  1  0  0  0
 15 16  2  0  0  0
 15  1  1  0  0  0
  1  2  1  0  0  0
  2  3  2  0  0  0
  3  4  1  0  0  0
  4  5  2  0  0  0
  5  6  1  0  0  0
  6  7  2  0  0  0
  7  8  1  0  0  0
  8  9  1  0  0  0
  9 19  1  0  0  0
 19 20  2  0  0  0
 20 21  1  0  0  0
 21 22  2  0  0  0
 22 23  1  0  0  0
 23 24  2  0  0  0
 24 25  1  0  0  0
 16 11  1  0  0  0
  9  1  2  0  0  0
 24 19  1  0  0  0
  8  4  1  0  0  0
 10 17  1  0  0  0
 10 18  1  0  0  0
M  END
> <minimizedAffinity>
-7.74566

> <CNNscore>
0.5237431526

> <CNNaffinity>
6.4978799820

> <CNN_VS>
3.4032201767

> <CNNaffinity_variance>
0.1350843906

$$$$
[H]c1nc(-c2c([H])nc3c([H])c([H])nn3c2-c2c([H])c([H])c([H])c([H])c2F)c([H])c(N([H])[H])c1[H]


 25 28  0  0  0  0  0  0  0  0999 V2000
  -17.7534   14.1508  -21.2491 C   0  0  0  0  0  0  0  0  0  0  0  0
  -18.3160   13.6585  -20.0971 C   0  0  0  0  0  0  0  0  0  0  0  0
  -18.0002   12.4159  -19.7033 N   0  0  0  0  0  0  0  0  0  0  0  0
  -17.1612   11.6237  -20.3755 C   0  0  0  0  0  0  0  0  0  0  0  0
  -16.7006   10.3558  -20.1746 C   0  0  0  0  0  0  0  0  0  0  0  0
  -15.8486   10.0830  -21.2220 C   0  0  0  0  0  0  0  0  0  0  0  0
  -15.8002   11.1676  -22.0346 N   0  0  0  0  0  0  0  0  0  0  0  0
  -16.6099   12.0928  -21.4952 N   0  0  0  0  0  0  0  0  0  0  0  0
  -16.8878   13.3395  -21.9465 C   0  0  0  0  0  0  0  0  0  0  0  0
  -17.3614   19.0400  -20.8673 N   0  0  0  0  0  0  0  0  0  0  0  0
  -17.8568   17.9044  -21.5654 C   0  0  0  0  0  0  0  0  0  0  0  0
  -18.6099   18.0774  -22.7097 C   0  0  0  0  0  0  0  0  0  0  0  0
  -19.0569   16.9326  -23.3367 C   0  0  0  0  0  0  0  0  0  0  0  0
  -18.7773   15.7041  -22.8626 N   0  0  0  0  0  0  0  0  0  0  0  0
  -18.0468   15.4969  -21.7505 C   0  0  0  0  0  0  0  0  0  0  0  0
  -17.5829   16.6190  -21.0972 C   0  0  0  0  0  0  0  0  0  0  0  0
  -17.9098   19.9127  -20.7613 H   0  0  0  0  0  0  0  0  0  0  0  0
  -16.4070   18.9942  -20.4446 H   0  0  0  0  0  0  0  0  0  0  0  0
  -16.2679   13.8192  -23.1671 C   0  0  0  0  0  0  0  0  0  0  0  0
  -15.1854   14.6502  -23.1132 C   0  0  0  0  0  0  0  0  0  0  0  0
  -14.5539   15.1404  -24.2619 C   0  0  0  0  0  0  0  0  0  0  0  0
  -15.0649   14.7535  -25.4720 C   0  0  0  0  0  0  0  0  0  0  0  0
  -16.1530   13.9183  -25.5258 C   0  0  0  0  0  0  0  0  0  0  0  0
  -16.7795   13.4320  -24.3745 C   0  0  0  0  0  0  0  0  0  0  0  0
  -17.8657   12.5978  -24.4847 F   0  0  0  0  0  0  0  0  0  0  0  0
 10 11  1  0  0  0
 11 12  2  0  0  0
 12 13  1  0  0  0
 13 14  2  0  0  0
 14 15  1  0  0  0
 15 16  2  0  0  0
 15  1  1  0  0  0
  1  2  1  0  0  0
  2  3  2  0  0  0
  3  4  1  0  0  0
  4  5  2  0  0  0
  5  6  1  0  0  0
  6  7  2  0  0  0
  7  8  1  0  0  0
  8  9  1  0  0  0
  9 19  1  0  0  0
 19 20  2  0  0  0
 20 21  1  0  0  0
 21 22  2  0  0  0
 22 23  1  0  0  0
 23 24  2  0  0  0
 24 25  1  0  0  0
 16 11  1  0  0  0
  9  1  2  0  0  0
 24 19  1  0  0  0
  8  4  1  0  0  0
 10 17  1  0  0  0
 10 18  1  0  0  0
M  END
> <minimizedAffinity>
-7.95990

> <CNNscore>
0.5182031989

> <CNNaffinity>
6.5607428551

> <CNN_VS>
3.3997979164

> <CNNaffinity_variance>
0.0983617976

$$$$
[H]c1nc(-c2c([H])nc3c([H])c([H])nn3c2-c2c([H])c([H])c([H])c([H])c2F)c([H])c(N([H])[H])c1[H]


 25 28  0  0  0  0  0  0  0  0999 V2000
  -16.9907   13.2132  -22.1833 C   0  0  0  0  0  0  0  0  0  0  0  0
  -16.7695   11.9072  -21.8207 C   0  0  0  0  0  0  0  0  0  0  0  0
  -17.1303   11.5076  -20.5924 N   0  0  0  0  0  0  0  0  0  0  0  0
  -17.6980   12.3165  -19.6943 C   0  0  0  0  0  0  0  0  0  0  0  0
  -18.1394   12.1400  -18.4159 C   0  0  0  0  0  0  0  0  0  0  0  0
  -18.6329   13.3586  -18.0051 C   0  0  0  0  0  0  0  0  0  0  0  0
  -18.4898   14.2479  -19.0189 N   0  0  0  0  0  0  0  0  0  0  0  0
  -17.9170   13.5862  -20.0371 N   0  0  0  0  0  0  0  0  0  0  0  0
  -17.5756   14.0521  -21.2625 C   0  0  0  0  0  0  0  0  0  0  0  0
  -13.6861   15.2108  -25.2318 N   0  0  0  0  0  0  0  0  0  0  0  0
  -15.0005   14.7160  -25.0085 C   0  0  0  0  0  0  0  0  0  0  0  0
  -15.9216   14.7270  -26.0370 C   0  0  0  0  0  0  0  0  0  0  0  0
  -17.1767   14.2309  -25.7507 C   0  0  0  0  0  0  0  0  0  0  0  0
  -17.4957   13.7580  -24.5313 N   0  0  0  0  0  0  0  0  0  0  0  0
  -16.6243   13.7317  -23.5050 C   0  0  0  0  0  0  0  0  0  0  0  0
  -15.3593   14.2198  -23.7548 C   0  0  0  0  0  0  0  0  0  0  0  0
  -13.4951   16.0391  -25.8243 H   0  0  0  0  0  0  0  0  0  0  0  0
  -12.8804   14.7209  -24.7817 H   0  0  0  0  0  0  0  0  0  0  0  0
  -17.8309   15.4388  -21.6033 C   0  0  0  0  0  0  0  0  0  0  0  0
  -18.9878   15.7942  -22.2362 C   0  0  0  0  0  0  0  0  0  0  0  0
  -19.2789   17.1175  -22.5869 C   0  0  0  0  0  0  0  0  0  0  0  0
  -18.3475   18.0697  -22.2695 C   0  0  0  0  0  0  0  0  0  0  0  0
  -17.1848   17.7122  -21.6335 C   0  0  0  0  0  0  0  0  0  0  0  0
  -16.8998   16.3884  -21.2859 C   0  0  0  0  0  0  0  0  0  0  0  0
  -15.7205   16.0848  -20.6494 F   0  0  0  0  0  0  0  0  0  0  0  0
 10 11  1  0  0  0
 11 12  2  0  0  0
 12 13  1  0  0  0
 13 14  2  0  0  0
 14 15  1  0  0  0
 15 16  2  0  0  0
 15  1  1  0  0  0
  1  2  1  0  0  0
  2  3  2  0  0  0
  3  4  1  0  0  0
  4  5  2  0  0  0
  5  6  1  0  0  0
  6  7  2  0  0  0
  7  8  1  0  0  0
  8  9  1  0  0  0
  9 19  1  0  0  0
 19 20  2  0  0  0
 20 21  1  0  0  0
 21 22  2  0  0  0
 22 23  1  0  0  0
 23 24  2  0  0  0
 24 25  1  0  0  0
 16 11  1  0  0  0
  9  1  2  0  0  0
 24 19  1  0  0  0
  8  4  1  0  0  0
 10 17  1  0  0  0
 10 18  1  0  0  0
M  END
> <minimizedAffinity>
-8.19713

> <CNNscore>
0.5144183636

> <CNNaffinity>
6.5664429665

> <CNN_VS>
3.3778989315

> <CNNaffinity_variance>
0.1711851656

$$$$
[H]c1nc(-c2c([H])nc3c([H])c([H])nn3c2-c2c([H])c([H])c([H])c([H])c2F)c([H])c(N([H])[H])c1[H]


 25 28  0  0  0  0  0  0  0  0999 V2000
  -16.5849   13.1904  -22.3411 C   0  0  0  0  0  0  0  0  0  0  0  0
  -16.5700   11.8301  -22.1529 C   0  0  0  0  0  0  0  0  0  0  0  0
  -17.1599   11.3224  -21.0606 N   0  0  0  0  0  0  0  0  0  0  0  0
  -17.7664   12.0731  -20.1377 C   0  0  0  0  0  0  0  0  0  0  0  0
  -18.4182   11.7886  -18.9738 C   0  0  0  0  0  0  0  0  0  0  0  0
  -18.8304   12.9965  -18.4558 C   0  0  0  0  0  0  0  0  0  0  0  0
  -18.4328   13.9856  -19.2941 N   0  0  0  0  0  0  0  0  0  0  0  0
  -17.7862   13.3948  -20.3117 N   0  0  0  0  0  0  0  0  0  0  0  0
  -17.2085   13.9697  -21.3938 C   0  0  0  0  0  0  0  0  0  0  0  0
  -16.7037   14.4807  -27.0872 N   0  0  0  0  0  0  0  0  0  0  0  0
  -16.0162   14.4625  -25.8424 C   0  0  0  0  0  0  0  0  0  0  0  0
  -14.7680   15.0437  -25.7396 C   0  0  0  0  0  0  0  0  0  0  0  0
  -14.1594   14.9908  -24.5025 C   0  0  0  0  0  0  0  0  0  0  0  0
  -14.7466   14.4031  -23.4432 N   0  0  0  0  0  0  0  0  0  0  0  0
  -15.9618   13.8264  -23.5060 C   0  0  0  0  0  0  0  0  0  0  0  0
  -16.6004   13.8605  -24.7276 C   0  0  0  0  0  0  0  0  0  0  0  0
  -16.2180   14.3597  -27.9944 H   0  0  0  0  0  0  0  0  0  0  0  0
  -17.7389   14.6218  -27.0886 H   0  0  0  0  0  0  0  0  0  0  0  0
  -17.2511   15.4110  -21.5532 C   0  0  0  0  0  0  0  0  0  0  0  0
  -16.3516   16.2061  -20.9021 C   0  0  0  0  0  0  0  0  0  0  0  0
  -16.3531   17.6005  -21.0226 C   0  0  0  0  0  0  0  0  0  0  0  0
  -17.3058   18.1590  -21.8323 C   0  0  0  0  0  0  0  0  0  0  0  0
  -18.2097   17.3595  -22.4865 C   0  0  0  0  0  0  0  0  0  0  0  0
  -18.2030   15.9670  -22.3619 C   0  0  0  0  0  0  0  0  0  0  0  0
  -19.1306   15.2131  -23.0396 F   0  0  0  0  0  0  0  0  0  0  0  0
 10 11  1  0  0  0
 11 12  2  0  0  0
 12 13  1  0  0  0
 13 14  2  0  0  0
 14 15  1  0  0  0
 15 16  2  0  0  0
 15  1  1  0  0  0
  1  2  1  0  0  0
  2  3  2  0  0  0
  3  4  1  0  0  0
  4  5  2  0  0  0
  5  6  1  0  0  0
  6  7  2  0  0  0
  7  8  1  0  0  0
  8  9  1  0  0  0
  9 19  1  0  0  0
 19 20  2  0  0  0
 20 21  1  0  0  0
 21 22  2  0  0  0
 22 23  1  0  0  0
 23 24  2  0  0  0
 24 25  1  0  0  0
 16 11  1  0  0  0
  9  1  2  0  0  0
 24 19  1  0  0  0
  8  4  1  0  0  0
 10 17  1  0  0  0
 10 18  1  0  0  0
M  END
> <minimizedAffinity>
-7.84122

> <CNNscore>
0.4199940562

> <CNNaffinity>
6.5890297890

> <CNN_VS>
2.7673532963

> <CNNaffinity_variance>
0.1606485397

$$$$
[H]c1nc(-c2c([H])nc3c([H])c([H])nn3c2-c2c([H])c([H])c([H])c([H])c2F)c([H])c(N([H])[H])c1[H]


 25 28  0  0  0  0  0  0  0  0999 V2000
  -17.6791   14.4581  -21.4698 C   0  0  0  0  0  0  0  0  0  0  0  0
  -18.2596   14.0098  -20.3087 C   0  0  0  0  0  0  0  0  0  0  0  0
  -18.0000   12.7600  -19.8971 N   0  0  0  0  0  0  0  0  0  0  0  0
  -17.2011   11.9198  -20.5597 C   0  0  0  0  0  0  0  0  0  0  0  0
  -16.7987   10.6351  -20.3409 C   0  0  0  0  0  0  0  0  0  0  0  0
  -15.9642   10.3075  -21.3866 C   0  0  0  0  0  0  0  0  0  0  0  0
  -15.8687   11.3763  -22.2158 N   0  0  0  0  0  0  0  0  0  0  0  0
  -16.6328   12.3460  -21.6880 N   0  0  0  0  0  0  0  0  0  0  0  0
  -16.8546   13.5973  -22.1574 C   0  0  0  0  0  0  0  0  0  0  0  0
  -20.5829   17.7429  -23.7019 N   0  0  0  0  0  0  0  0  0  0  0  0
  -19.3382   17.4284  -23.0902 C   0  0  0  0  0  0  0  0  0  0  0  0
  -18.3587   18.3964  -22.9909 C   0  0  0  0  0  0  0  0  0  0  0  0
  -17.1769   18.0227  -22.3850 C   0  0  0  0  0  0  0  0  0  0  0  0
  -16.9805   16.7779  -21.9115 N   0  0  0  0  0  0  0  0  0  0  0  0
  -17.9120   15.8087  -21.9907 C   0  0  0  0  0  0  0  0  0  0  0  0
  -19.1066   16.1465  -22.5905 C   0  0  0  0  0  0  0  0  0  0  0  0
  -20.6569   18.3599  -24.5310 H   0  0  0  0  0  0  0  0  0  0  0  0
  -21.4580   17.3369  -23.3006 H   0  0  0  0  0  0  0  0  0  0  0  0
  -16.2177   14.0293  -23.3870 C   0  0  0  0  0  0  0  0  0  0  0  0
  -14.9322   14.4904  -23.3756 C   0  0  0  0  0  0  0  0  0  0  0  0
  -14.2754   14.9197  -24.5345 C   0  0  0  0  0  0  0  0  0  0  0  0
  -14.9757   14.8628  -25.7098 C   0  0  0  0  0  0  0  0  0  0  0  0
  -16.2678   14.3994  -25.7210 C   0  0  0  0  0  0  0  0  0  0  0  0
  -16.9185   13.9720  -24.5597 C   0  0  0  0  0  0  0  0  0  0  0  0
  -18.2130   13.5165  -24.6266 F   0  0  0  0  0  0  0  0  0  0  0  0
 10 11  1  0  0  0
 11 12  2  0  0  0
 12 13  1  0  0  0
 13 14  2  0  0  0
 14 15  1  0  0  0
 15 16  2  0  0  0
 15  1  1  0  0  0
  1  2  1  0  0  0
  2  3  2  0  0  0
  3  4  1  0  0  0
  4  5  2  0  0  0
  5  6  1  0  0  0
  6  7  2  0  0  0
  7  8  1  0  0  0
  8  9  1  0  0  0
  9 19  1  0  0  0
 19 20  2  0  0  0
 20 21  1  0  0  0
 21 22  2  0  0  0
 22 23  1  0  0  0
 23 24  2  0  0  0
 24 25  1  0  0  0
 16 11  1  0  0  0
  9  1  2  0  0  0
 24 19  1  0  0  0
  8  4  1  0  0  0
 10 17  1  0  0  0
 10 18  1  0  0  0
M  END
> <minimizedAffinity>
-7.55284

> <CNNscore>
0.4153917730

> <CNNaffinity>
6.4615311623

> <CNN_VS>
2.6840667725

> <CNNaffinity_variance>
0.1513836682

$$$$
[H]c1nc(-c2c([H])nc3c([H])c([H])nn3c2-c2c([H])c([H])c([H])c([H])c2F)c([H])c(N([H])[H])c1[H]


 25 28  0  0  0  0  0  0  0  0999 V2000
  -18.0491   13.5780  -20.0051 C   0  0  0  0  0  0  0  0  0  0  0  0
  -17.2167   12.6238  -20.5367 C   0  0  0  0  0  0  0  0  0  0  0  0
  -17.1990   11.4016  -19.9847 N   0  0  0  0  0  0  0  0  0  0  0  0
  -17.9527   11.0581  -18.9372 C   0  0  0  0  0  0  0  0  0  0  0  0
  -18.1007    9.9058  -18.2226 C   0  0  0  0  0  0  0  0  0  0  0  0
  -19.0361   10.1727  -17.2473 C   0  0  0  0  0  0  0  0  0  0  0  0
  -19.4404   11.4607  -17.3759 N   0  0  0  0  0  0  0  0  0  0  0  0
  -18.7641   11.9777  -18.4142 N   0  0  0  0  0  0  0  0  0  0  0  0
  -18.8286   13.2304  -18.9256 C   0  0  0  0  0  0  0  0  0  0  0  0
  -16.5427   18.2613  -20.0481 N   0  0  0  0  0  0  0  0  0  0  0  0
  -17.3892   17.2449  -20.5703 C   0  0  0  0  0  0  0  0  0  0  0  0
  -18.2781   17.5457  -21.5831 C   0  0  0  0  0  0  0  0  0  0  0  0
  -19.0674   16.5118  -22.0428 C   0  0  0  0  0  0  0  0  0  0  0  0
  -18.9816   15.2683  -21.5342 N   0  0  0  0  0  0  0  0  0  0  0  0
  -18.1275   14.9382  -20.5468 C   0  0  0  0  0  0  0  0  0  0  0  0
  -17.3222   15.9471  -20.0624 C   0  0  0  0  0  0  0  0  0  0  0  0
  -16.8606   19.2386  -19.9158 H   0  0  0  0  0  0  0  0  0  0  0  0
  -15.5614   18.0146  -19.7875 H   0  0  0  0  0  0  0  0  0  0  0  0
  -19.7248   14.2055  -18.3337 C   0  0  0  0  0  0  0  0  0  0  0  0
  -21.0057   14.3346  -18.7896 C   0  0  0  0  0  0  0  0  0  0  0  0
  -21.9069   15.2610  -18.2525 C   0  0  0  0  0  0  0  0  0  0  0  0
  -21.4567   16.0541  -17.2310 C   0  0  0  0  0  0  0  0  0  0  0  0
  -20.1693   15.9241  -16.7729 C   0  0  0  0  0  0  0  0  0  0  0  0
  -19.2737   14.9967  -17.3139 C   0  0  0  0  0  0  0  0  0  0  0  0
  -17.9955   14.9073  -16.8177 F   0  0  0  0  0  0  0  0  0  0  0  0
 10 11  1  0  0  0
 11 12  2  0  0  0
 12 13  1  0  0  0
 13 14  2  0  0  0
 14 15  1  0  0  0
 15 16  2  0  0  0
 15  1  1  0  0  0
  1  2  1  0  0  0
  2  3  2  0  0  0
  3  4  1  0  0  0
  4  5  2  0  0  0
  5  6  1  0  0  0
  6  7  2  0  0  0
  7  8  1  0  0  0
  8  9  1  0  0  0
  9 19  1  0  0  0
 19 20  2  0  0  0
 20 21  1  0  0  0
 21 22  2  0  0  0
 22 23  1  0  0  0
 23 24  2  0  0  0
 24 25  1  0  0  0
 16 11  1  0  0  0
  9  1  2  0  0  0
 24 19  1  0  0  0
  8  4  1  0  0  0
 10 17  1  0  0  0
 10 18  1  0  0  0
M  END
> <minimizedAffinity>
-7.00328

> <CNNscore>
0.3833500445

> <CNNaffinity>
6.1096611023

> <CNN_VS>
2.3421387672

> <CNNaffinity_variance>
0.0388281047

$$$$
[H]c1nc(-c2c([H])nc3c([H])c([H])nn3c2-c2c([H])c([H])c([H])c([H])c2F)c([H])c(N([H])[H])c1[H]


 25 28  0  0  0  0  0  0  0  0999 V2000
  -17.6106   14.0751  -21.1911 C   0  0  0  0  0  0  0  0  0  0  0  0
  -16.8712   13.4640  -22.1738 C   0  0  0  0  0  0  0  0  0  0  0  0
  -16.5457   12.1711  -22.0281 N   0  0  0  0  0  0  0  0  0  0  0  0
  -16.9042   11.4384  -20.9708 C   0  0  0  0  0  0  0  0  0  0  0  0
  -16.6949   10.1392  -20.6123 C   0  0  0  0  0  0  0  0  0  0  0  0
  -17.3183    9.9681  -19.3960 C   0  0  0  0  0  0  0  0  0  0  0  0
  -17.8901   11.1430  -19.0333 N   0  0  0  0  0  0  0  0  0  0  0  0
  -17.6224   12.0229  -20.0115 N   0  0  0  0  0  0  0  0  0  0  0  0
  -17.9835   13.3256  -20.0989 C   0  0  0  0  0  0  0  0  0  0  0  0
  -16.8152   18.8115  -20.1244 N   0  0  0  0  0  0  0  0  0  0  0  0
  -17.6188   17.8173  -20.7473 C   0  0  0  0  0  0  0  0  0  0  0  0
  -18.7651   18.1859  -21.4230 C   0  0  0  0  0  0  0  0  0  0  0  0
  -19.4959   17.1704  -22.0043 C   0  0  0  0  0  0  0  0  0  0  0  0
  -19.1171   15.8812  -21.9213 N   0  0  0  0  0  0  0  0  0  0  0  0
  -18.0065   15.4846  -21.2713 C   0  0  0  0  0  0  0  0  0  0  0  0
  -17.2508   16.4733  -20.6776 C   0  0  0  0  0  0  0  0  0  0  0  0
  -17.2199   19.6351  -19.6433 H   0  0  0  0  0  0  0  0  0  0  0  0
  -15.7757   18.7091  -20.1524 H   0  0  0  0  0  0  0  0  0  0  0  0
  -18.7676   13.9290  -19.0381 C   0  0  0  0  0  0  0  0  0  0  0  0
  -18.1544   14.4479  -17.9336 C   0  0  0  0  0  0  0  0  0  0  0  0
  -18.8670   15.0385  -16.8837 C   0  0  0  0  0  0  0  0  0  0  0  0
  -20.2308   15.0826  -16.9983 C   0  0  0  0  0  0  0  0  0  0  0  0
  -20.8469   14.5610  -18.1085 C   0  0  0  0  0  0  0  0  0  0  0  0
  -20.1293   13.9721  -19.1539 C   0  0  0  0  0  0  0  0  0  0  0  0
  -20.7957   13.4655  -20.2435 F   0  0  0  0  0  0  0  0  0  0  0  0
 10 11  1  0  0  0
 11 12  2  0  0  0
 12 13  1  0  0  0
 13 14  2  0  0  0
 14 15  1  0  0  0
 15 16  2  0  0  0
 15  1  1  0  0  0
  1  2  1  0  0  0
  2  3  2  0  0  0
  3  4  1  0  0  0
  4  5  2  0  0  0
  5  6  1  0  0  0
  6  7  2  0  0  0
  7  8  1  0  0  0
  8  9  1  0  0  0
  9 19  1  0  0  0
 19 20  2  0  0  0
 20 21  1  0  0  0
 21 22  2  0  0  0
 22 23  1  0  0  0
 23 24  2  0  0  0
 24 25  1  0  0  0
 16 11  1  0  0  0
  9  1  2  0  0  0
 24 19  1  0  0  0
  8  4  1  0  0  0
 10 17  1  0  0  0
 10 18  1  0  0  0
M  END
> <minimizedAffinity>
-7.50564

> <CNNscore>
0.3724207878

> <CNNaffinity>
6.1611552238

> <CNN_VS>
2.2945423126

> <CNNaffinity_variance>
0.1113140136

$$$$
[H]c1nc(N([H])C([H])(C([H])([H])[H])C([H])([H])[H])c2c([H])nn(C3([H])C(=O)c4c([H])c(C5([H])C([H])([H])C([H])([H])C([H])([H])C5([H])[H])c([H])c([H])c4C3([H])[H])c2n1


 29 33  0  0  0  0  0  0  0  0999 V2000
  -18.0979   11.7613  -18.5915 C   0  0  0  0  0  0  0  0  0  0  0  0
  -19.4124   12.1690  -18.0364 C   0  0  0  0  0  0  0  0  0  0  0  0
  -19.6147   11.2061  -16.9207 C   0  0  0  0  0  0  0  0  0  0  0  0
  -20.3359   11.2341  -15.7440 C   0  0  0  0  0  0  0  0  0  0  0  0
  -20.3275   10.1482  -14.8967 C   0  0  0  0  0  0  0  0  0  0  0  0
  -19.6164    8.9969  -15.1657 C   0  0  0  0  0  0  0  0  0  0  0  0
  -18.9022    8.9886  -16.3459 C   0  0  0  0  0  0  0  0  0  0  0  0
  -18.8924   10.0724  -17.2213 C   0  0  0  0  0  0  0  0  0  0  0  0
  -18.2019   10.2605  -18.5042 C   0  0  0  0  0  0  0  0  0  0  0  0
  -17.8078    9.4057  -19.3051 O   0  0  0  0  0  0  0  0  0  0  0  0
  -16.0899   12.3125  -22.9575 C   0  0  0  0  0  0  0  0  0  0  0  0
  -15.1628   11.3520  -22.8274 N   0  0  0  0  0  0  0  0  0  0  0  0
  -15.0887   10.6302  -21.6776 C   0  0  0  0  0  0  0  0  0  0  0  0
  -15.9311   10.8493  -20.6411 N   0  0  0  0  0  0  0  0  0  0  0  0
  -16.8537   11.7945  -20.7518 C   0  0  0  0  0  0  0  0  0  0  0  0
  -17.7998   12.2178  -19.9015 N   0  0  0  0  0  0  0  0  0  0  0  0
  -18.4609   13.1921  -20.5056 N   0  0  0  0  0  0  0  0  0  0  0  0
  -17.9841   13.4242  -21.7210 C   0  0  0  0  0  0  0  0  0  0  0  0
  -16.9462   12.5434  -21.9186 C   0  0  0  0  0  0  0  0  0  0  0  0
  -16.2143   13.1005  -24.1383 N   0  0  0  0  0  0  0  0  0  0  0  0
  -15.4078   13.6123  -24.5348 H   0  0  0  0  0  0  0  0  0  0  0  0
  -17.4524   12.4019  -26.0648 C   0  0  0  0  0  0  0  0  0  0  0  0
  -17.5248   13.1638  -24.7759 C   0  0  0  0  0  0  0  0  0  0  0  0
  -17.9137   14.5846  -25.0482 C   0  0  0  0  0  0  0  0  0  0  0  0
  -19.6279    7.8456  -14.2339 C   0  0  0  0  0  0  0  0  0  0  0  0
  -21.0114    7.2766  -14.0446 C   0  0  0  0  0  0  0  0  0  0  0  0
  -20.9574    6.6069  -12.6879 C   0  0  0  0  0  0  0  0  0  0  0  0
  -20.1466    7.5845  -11.8776 C   0  0  0  0  0  0  0  0  0  0  0  0
  -19.1397    8.1874  -12.8594 C   0  0  0  0  0  0  0  0  0  0  0  0
 22 23  1  0  0  0
 23 24  1  0  0  0
 23 20  1  0  0  0
 20 11  1  0  0  0
 11 12  2  0  0  0
 12 13  1  0  0  0
 13 14  2  0  0  0
 14 15  1  0  0  0
 15 16  1  0  0  0
 16 17  1  0  0  0
 17 18  2  0  0  0
 18 19  1  0  0  0
 16  1  1  0  0  0
  1  2  1  0  0  0
  2  3  1  0  0  0
  3  4  2  0  0  0
  4  5  1  0  0  0
  5  6  2  0  0  0
  6  7  1  0  0  0
  7  8  2  0  0  0
  8  9  1  0  0  0
  9 10  2  0  0  0
  6 25  1  0  0  0
 25 26  1  0  0  0
 26 27  1  0  0  0
 27 28  1  0  0  0
 28 29  1  0  0  0
 19 11  1  0  0  0
  9  1  1  0  0  0
 29 25  1  0  0  0
 19 15  2  0  0  0
  8  3  1  0  0  0
 20 21  1  0  0  0
M  END
> <minimizedAffinity>
-8.01208

> <CNNscore>
0.7259240746

> <CNNaffinity>
6.8975577354

> <CNN_VS>
5.0071034431

> <CNNaffinity_variance>
0.4010532796

$$$$
[H]c1nc(N([H])C([H])(C([H])([H])[H])C([H])([H])[H])c2c([H])nn(C3([H])C(=O)c4c([H])c(C5([H])C([H])([H])C([H])([H])C([H])([H])C5([H])[H])c([H])c([H])c4C3([H])[H])c2n1


 29 33  0  0  0  0  0  0  0  0999 V2000
  -18.5208   12.1413  -20.3722 C   0  0  0  0  0  0  0  0  0  0  0  0
  -17.5807   11.1548  -19.7846 C   0  0  0  0  0  0  0  0  0  0  0  0
  -18.2824   10.7249  -18.5454 C   0  0  0  0  0  0  0  0  0  0  0  0
  -18.2493    9.5857  -17.7665 C   0  0  0  0  0  0  0  0  0  0  0  0
  -19.0363    9.4896  -16.6402 C   0  0  0  0  0  0  0  0  0  0  0  0
  -19.8832   10.4997  -16.2330 C   0  0  0  0  0  0  0  0  0  0  0  0
  -19.9021   11.6295  -17.0245 C   0  0  0  0  0  0  0  0  0  0  0  0
  -19.1172   11.7537  -18.1688 C   0  0  0  0  0  0  0  0  0  0  0  0
  -18.9998   12.8547  -19.1343 C   0  0  0  0  0  0  0  0  0  0  0  0
  -19.2346   14.0571  -18.9712 O   0  0  0  0  0  0  0  0  0  0  0  0
  -15.7453   14.0947  -23.8187 C   0  0  0  0  0  0  0  0  0  0  0  0
  -14.8809   13.0743  -23.9227 N   0  0  0  0  0  0  0  0  0  0  0  0
  -15.0333   11.9722  -23.1413 C   0  0  0  0  0  0  0  0  0  0  0  0
  -16.0431   11.8651  -22.2465 N   0  0  0  0  0  0  0  0  0  0  0  0
  -16.9069   12.8637  -22.1299 C   0  0  0  0  0  0  0  0  0  0  0  0
  -17.9801   13.0242  -21.3426 N   0  0  0  0  0  0  0  0  0  0  0  0
  -18.4970   14.2096  -21.6229 N   0  0  0  0  0  0  0  0  0  0  0  0
  -17.8032   14.8336  -22.5651 C   0  0  0  0  0  0  0  0  0  0  0  0
  -16.7689   13.9989  -22.9193 C   0  0  0  0  0  0  0  0  0  0  0  0
  -15.6351   15.2741  -24.6110 N   0  0  0  0  0  0  0  0  0  0  0  0
  -15.8721   16.2059  -24.2299 H   0  0  0  0  0  0  0  0  0  0  0  0
  -14.1039   16.1462  -26.2318 C   0  0  0  0  0  0  0  0  0  0  0  0
  -15.1741   15.1256  -25.9869 C   0  0  0  0  0  0  0  0  0  0  0  0
  -16.3030   15.3341  -26.9494 C   0  0  0  0  0  0  0  0  0  0  0  0
  -20.7171   10.3660  -15.0162 C   0  0  0  0  0  0  0  0  0  0  0  0
  -22.1391   10.8121  -15.2453 C   0  0  0  0  0  0  0  0  0  0  0  0
  -22.6338   11.2041  -13.8692 C   0  0  0  0  0  0  0  0  0  0  0  0
  -21.4360   11.9054  -13.2833 C   0  0  0  0  0  0  0  0  0  0  0  0
  -20.2191   11.1796  -13.8610 C   0  0  0  0  0  0  0  0  0  0  0  0
 22 23  1  0  0  0
 23 24  1  0  0  0
 23 20  1  0  0  0
 20 11  1  0  0  0
 11 12  2  0  0  0
 12 13  1  0  0  0
 13 14  2  0  0  0
 14 15  1  0  0  0
 15 16  1  0  0  0
 16 17  1  0  0  0
 17 18  2  0  0  0
 18 19  1  0  0  0
 16  1  1  0  0  0
  1  2  1  0  0  0
  2  3  1  0  0  0
  3  4  2  0  0  0
  4  5  1  0  0  0
  5  6  2  0  0  0
  6  7  1  0  0  0
  7  8  2  0  0  0
  8  9  1  0  0  0
  9 10  2  0  0  0
  6 25  1  0  0  0
 25 26  1  0  0  0
 26 27  1  0  0  0
 27 28  1  0  0  0
 28 29  1  0  0  0
 19 11  1  0  0  0
  9  1  1  0  0  0
 29 25  1  0  0  0
 19 15  2  0  0  0
  8  3  1  0  0  0
 20 21  1  0  0  0
M  END
> <minimizedAffinity>
-8.52420

> <CNNscore>
0.6423555017

> <CNNaffinity>
6.9089078903

> <CNN_VS>
4.4379749298

> <CNNaffinity_variance>
0.1640580148

$$$$
[H]c1nc(N([H])C([H])(C([H])([H])[H])C([H])([H])[H])c2c([H])nn(C3([H])C(=O)c4c([H])c(C5([H])C([H])([H])C([H])([H])C([H])([H])C5([H])[H])c([H])c([H])c4C3([H])[H])c2n1


 29 33  0  0  0  0  0  0  0  0999 V2000
  -17.7523   12.6498  -19.8257 C   0  0  0  0  0  0  0  0  0  0  0  0
  -19.1343   12.9060  -19.3493 C   0  0  0  0  0  0  0  0  0  0  0  0
  -19.2918   11.9234  -18.2438 C   0  0  0  0  0  0  0  0  0  0  0  0
  -20.0788   11.8669  -17.1110 C   0  0  0  0  0  0  0  0  0  0  0  0
  -19.9981   10.7864  -16.2607 C   0  0  0  0  0  0  0  0  0  0  0  0
  -19.1481    9.7228  -16.4837 C   0  0  0  0  0  0  0  0  0  0  0  0
  -18.3701    9.7980  -17.6205 C   0  0  0  0  0  0  0  0  0  0  0  0
  -18.4308   10.8786  -18.4977 C   0  0  0  0  0  0  0  0  0  0  0  0
  -17.6924   11.1466  -19.7391 C   0  0  0  0  0  0  0  0  0  0  0  0
  -17.1592   10.3436  -20.5127 O   0  0  0  0  0  0  0  0  0  0  0  0
  -16.4761   15.5228  -23.5019 C   0  0  0  0  0  0  0  0  0  0  0  0
  -16.3122   16.6409  -22.7792 N   0  0  0  0  0  0  0  0  0  0  0  0
  -16.5250   16.6194  -21.4365 C   0  0  0  0  0  0  0  0  0  0  0  0
  -16.9029   15.4913  -20.7911 N   0  0  0  0  0  0  0  0  0  0  0  0
  -17.0697   14.3769  -21.4891 C   0  0  0  0  0  0  0  0  0  0  0  0
  -17.4317   13.1406  -21.1179 N   0  0  0  0  0  0  0  0  0  0  0  0
  -17.4471   12.3933  -22.2097 N   0  0  0  0  0  0  0  0  0  0  0  0
  -17.1087   13.0927  -23.2842 C   0  0  0  0  0  0  0  0  0  0  0  0
  -16.8573   14.3776  -22.8623 C   0  0  0  0  0  0  0  0  0  0  0  0
  -16.2678   15.4858  -24.9112 N   0  0  0  0  0  0  0  0  0  0  0  0
  -17.0366   15.2628  -25.5661 H   0  0  0  0  0  0  0  0  0  0  0  0
  -14.9504   15.6756  -26.9013 C   0  0  0  0  0  0  0  0  0  0  0  0
  -14.9262   15.7742  -25.4058 C   0  0  0  0  0  0  0  0  0  0  0  0
  -13.9351   14.7983  -24.8494 C   0  0  0  0  0  0  0  0  0  0  0  0
  -19.0847    8.5748  -15.5500 C   0  0  0  0  0  0  0  0  0  0  0  0
  -20.2523    7.6356  -15.7179 C   0  0  0  0  0  0  0  0  0  0  0  0
  -20.3761    6.9497  -14.3739 C   0  0  0  0  0  0  0  0  0  0  0  0
  -20.1168    8.0785  -13.4104 C   0  0  0  0  0  0  0  0  0  0  0  0
  -19.0953    8.9795  -14.1076 C   0  0  0  0  0  0  0  0  0  0  0  0
 22 23  1  0  0  0
 23 24  1  0  0  0
 23 20  1  0  0  0
 20 11  1  0  0  0
 11 12  2  0  0  0
 12 13  1  0  0  0
 13 14  2  0  0  0
 14 15  1  0  0  0
 15 16  1  0  0  0
 16 17  1  0  0  0
 17 18  2  0  0  0
 18 19  1  0  0  0
 16  1  1  0  0  0
  1  2  1  0  0  0
  2  3  1  0  0  0
  3  4  2  0  0  0
  4  5  1  0  0  0
  5  6  2  0  0  0
  6  7  1  0  0  0
  7  8  2  0  0  0
  8  9  1  0  0  0
  9 10  2  0  0  0
  6 25  1  0  0  0
 25 26  1  0  0  0
 26 27  1  0  0  0
 27 28  1  0  0  0
 28 29  1  0  0  0
 19 11  1  0  0  0
  9  1  1  0  0  0
 29 25  1  0  0  0
 19 15  2  0  0  0
  8  3  1  0  0  0
 20 21  1  0  0  0
M  END
> <minimizedAffinity>
-8.96370

> <CNNscore>
0.6220222116

> <CNNaffinity>
6.9337129593

> <CNN_VS>
4.3129234314

> <CNNaffinity_variance>
0.3447515070

$$$$
[H]c1nc(N([H])C([H])(C([H])([H])[H])C([H])([H])[H])c2c([H])nn(C3([H])C(=O)c4c([H])c(C5([H])C([H])([H])C([H])([H])C([H])([H])C5([H])[H])c([H])c([H])c4C3([H])[H])c2n1


 29 33  0  0  0  0  0  0  0  0999 V2000
  -17.3620   11.6820  -19.6192 C   0  0  0  0  0  0  0  0  0  0  0  0
  -16.5320   10.8539  -20.5290 C   0  0  0  0  0  0  0  0  0  0  0  0
  -16.3081   11.7578  -21.6890 C   0  0  0  0  0  0  0  0  0  0  0  0
  -15.3303   11.8555  -22.6584 C   0  0  0  0  0  0  0  0  0  0  0  0
  -15.4111   12.8252  -23.6331 C   0  0  0  0  0  0  0  0  0  0  0  0
  -16.4472   13.7339  -23.6980 C   0  0  0  0  0  0  0  0  0  0  0  0
  -17.4141   13.6200  -22.7206 C   0  0  0  0  0  0  0  0  0  0  0  0
  -17.3576   12.6494  -21.7228 C   0  0  0  0  0  0  0  0  0  0  0  0
  -18.2695   12.3710  -20.6052 C   0  0  0  0  0  0  0  0  0  0  0  0
  -19.4725   12.6353  -20.5020 O   0  0  0  0  0  0  0  0  0  0  0  0
  -20.2173   10.6185  -15.8623 C   0  0  0  0  0  0  0  0  0  0  0  0
  -20.6021   11.8755  -15.5955 N   0  0  0  0  0  0  0  0  0  0  0  0
  -20.1371   12.9040  -16.3535 C   0  0  0  0  0  0  0  0  0  0  0  0
  -19.2851   12.7023  -17.3857 N   0  0  0  0  0  0  0  0  0  0  0  0
  -18.8940   11.4668  -17.6640 C   0  0  0  0  0  0  0  0  0  0  0  0
  -18.0738   10.9850  -18.6088 N   0  0  0  0  0  0  0  0  0  0  0  0
  -18.0220    9.6724  -18.4493 N   0  0  0  0  0  0  0  0  0  0  0  0
  -18.7777    9.2743  -17.4350 C   0  0  0  0  0  0  0  0  0  0  0  0
  -19.3577   10.4017  -16.9015 C   0  0  0  0  0  0  0  0  0  0  0  0
  -20.6716    9.5020  -15.1022 N   0  0  0  0  0  0  0  0  0  0  0  0
  -21.1701    8.7120  -15.5461 H   0  0  0  0  0  0  0  0  0  0  0  0
  -19.1543    8.7268  -13.4202 C   0  0  0  0  0  0  0  0  0  0  0  0
  -20.4099    9.5075  -13.6672 C   0  0  0  0  0  0  0  0  0  0  0  0
  -21.5488    8.8859  -12.9184 C   0  0  0  0  0  0  0  0  0  0  0  0
  -16.5057   14.7653  -24.7594 C   0  0  0  0  0  0  0  0  0  0  0  0
  -16.7408   14.1691  -26.1242 C   0  0  0  0  0  0  0  0  0  0  0  0
  -16.1621   15.1888  -27.0820 C   0  0  0  0  0  0  0  0  0  0  0  0
  -14.9070   15.6234  -26.3710 C   0  0  0  0  0  0  0  0  0  0  0  0
  -15.2461   15.5674  -24.8800 C   0  0  0  0  0  0  0  0  0  0  0  0
 22 23  1  0  0  0
 23 24  1  0  0  0
 23 20  1  0  0  0
 20 11  1  0  0  0
 11 12  2  0  0  0
 12 13  1  0  0  0
 13 14  2  0  0  0
 14 15  1  0  0  0
 15 16  1  0  0  0
 16 17  1  0  0  0
 17 18  2  0  0  0
 18 19  1  0  0  0
 16  1  1  0  0  0
  1  2  1  0  0  0
  2  3  1  0  0  0
  3  4  2  0  0  0
  4  5  1  0  0  0
  5  6  2  0  0  0
  6  7  1  0  0  0
  7  8  2  0  0  0
  8  9  1  0  0  0
  9 10  2  0  0  0
  6 25  1  0  0  0
 25 26  1  0  0  0
 26 27  1  0  0  0
 27 28  1  0  0  0
 28 29  1  0  0  0
 19 11  1  0  0  0
  9  1  1  0  0  0
 29 25  1  0  0  0
 19 15  2  0  0  0
  8  3  1  0  0  0
 20 21  1  0  0  0
M  END
> <minimizedAffinity>
-8.94764

> <CNNscore>
0.5736125708

> <CNNaffinity>
6.8220114708

> <CNN_VS>
3.9131915569

> <CNNaffinity_variance>
0.2237468213

$$$$
[H]c1nc(N([H])C([H])(C([H])([H])[H])C([H])([H])[H])c2c([H])nn(C3([H])C(=O)c4c([H])c(C5([H])C([H])([H])C([H])([H])C([H])([H])C5([H])[H])c([H])c([H])c4C3([H])[H])c2n1


 29 33  0  0  0  0  0  0  0  0999 V2000
  -17.8896   12.4498  -21.9194 C   0  0  0  0  0  0  0  0  0  0  0  0
  -16.7750   11.8852  -21.1186 C   0  0  0  0  0  0  0  0  0  0  0  0
  -17.4549   11.4349  -19.8746 C   0  0  0  0  0  0  0  0  0  0  0  0
  -17.1793   10.4766  -18.9199 C   0  0  0  0  0  0  0  0  0  0  0  0
  -18.0248   10.2999  -17.8470 C   0  0  0  0  0  0  0  0  0  0  0  0
  -19.1683   11.0502  -17.6662 C   0  0  0  0  0  0  0  0  0  0  0  0
  -19.4263   12.0022  -18.6307 C   0  0  0  0  0  0  0  0  0  0  0  0
  -18.5890   12.2024  -19.7261 C   0  0  0  0  0  0  0  0  0  0  0  0
  -18.6898   13.1450  -20.8484 C   0  0  0  0  0  0  0  0  0  0  0  0
  -19.2802   14.2296  -20.8992 O   0  0  0  0  0  0  0  0  0  0  0  0
  -16.1423   16.1699  -24.4701 C   0  0  0  0  0  0  0  0  0  0  0  0
  -15.6793   16.8736  -23.4262 N   0  0  0  0  0  0  0  0  0  0  0  0
  -15.8250   16.3915  -22.1633 C   0  0  0  0  0  0  0  0  0  0  0  0
  -16.4307   15.2065  -21.9165 N   0  0  0  0  0  0  0  0  0  0  0  0
  -16.8944   14.4974  -22.9358 C   0  0  0  0  0  0  0  0  0  0  0  0
  -17.5241   13.3148  -22.9832 N   0  0  0  0  0  0  0  0  0  0  0  0
  -17.7721   13.0546  -24.2567 N   0  0  0  0  0  0  0  0  0  0  0  0
  -17.3287   14.0224  -25.0474 C   0  0  0  0  0  0  0  0  0  0  0  0
  -16.7556   14.9723  -24.2343 C   0  0  0  0  0  0  0  0  0  0  0  0
  -16.0183   16.6252  -25.8147 N   0  0  0  0  0  0  0  0  0  0  0  0
  -16.7139   17.2643  -26.2359 H   0  0  0  0  0  0  0  0  0  0  0  0
  -15.3846   15.4680  -27.8126 C   0  0  0  0  0  0  0  0  0  0  0  0
  -14.8710   16.1584  -26.5852 C   0  0  0  0  0  0  0  0  0  0  0  0
  -14.0422   15.2068  -25.7779 C   0  0  0  0  0  0  0  0  0  0  0  0
  -20.0574   10.8359  -16.5011 C   0  0  0  0  0  0  0  0  0  0  0  0
  -19.9822   11.9682  -15.5081 C   0  0  0  0  0  0  0  0  0  0  0  0
  -20.3977   11.3410  -14.1944 C   0  0  0  0  0  0  0  0  0  0  0  0
  -19.7185    9.9973  -14.2491 C   0  0  0  0  0  0  0  0  0  0  0  0
  -19.7338    9.5957  -15.7256 C   0  0  0  0  0  0  0  0  0  0  0  0
 22 23  1  0  0  0
 23 24  1  0  0  0
 23 20  1  0  0  0
 20 11  1  0  0  0
 11 12  2  0  0  0
 12 13  1  0  0  0
 13 14  2  0  0  0
 14 15  1  0  0  0
 15 16  1  0  0  0
 16 17  1  0  0  0
 17 18  2  0  0  0
 18 19  1  0  0  0
 16  1  1  0  0  0
  1  2  1  0  0  0
  2  3  1  0  0  0
  3  4  2  0  0  0
  4  5  1  0  0  0
  5  6  2  0  0  0
  6  7  1  0  0  0
  7  8  2  0  0  0
  8  9  1  0  0  0
  9 10  2  0  0  0
  6 25  1  0  0  0
 25 26  1  0  0  0
 26 27  1  0  0  0
 27 28  1  0  0  0
 28 29  1  0  0  0
 19 11  1  0  0  0
  9  1  1  0  0  0
 29 25  1  0  0  0
 19 15  2  0  0  0
  8  3  1  0  0  0
 20 21  1  0  0  0
M  END
> <minimizedAffinity>
-8.98894

> <CNNscore>
0.5550065637

> <CNNaffinity>
6.9308218956

> <CNN_VS>
3.8466515541

> <CNNaffinity_variance>
0.0449137688

$$$$
[H]c1nc(N([H])C([H])(C([H])([H])[H])C([H])([H])[H])c2c([H])nn(C3([H])C(=O)c4c([H])c(C5([H])C([H])([H])C([H])([H])C([H])([H])C5([H])[H])c([H])c([H])c4C3([H])[H])c2n1


 29 33  0  0  0  0  0  0  0  0999 V2000
  -17.5751   13.2922  -20.6326 C   0  0  0  0  0  0  0  0  0  0  0  0
  -18.9896   13.6946  -20.4340 C   0  0  0  0  0  0  0  0  0  0  0  0
  -19.3703   12.9680  -19.1931 C   0  0  0  0  0  0  0  0  0  0  0  0
  -20.3123   13.1770  -18.2059 C   0  0  0  0  0  0  0  0  0  0  0  0
  -20.4282   12.2928  -17.1562 C   0  0  0  0  0  0  0  0  0  0  0  0
  -19.6308   11.1740  -17.0311 C   0  0  0  0  0  0  0  0  0  0  0  0
  -18.6958   10.9828  -18.0273 C   0  0  0  0  0  0  0  0  0  0  0  0
  -18.5563   11.8607  -19.1000 C   0  0  0  0  0  0  0  0  0  0  0  0
  -17.6322   11.8380  -20.2417 C   0  0  0  0  0  0  0  0  0  0  0  0
  -17.0513   10.8726  -20.7498 O   0  0  0  0  0  0  0  0  0  0  0  0
  -15.6676   15.3104  -24.5932 C   0  0  0  0  0  0  0  0  0  0  0  0
  -15.6008   16.5623  -24.1161 N   0  0  0  0  0  0  0  0  0  0  0  0
  -16.0277   16.8322  -22.8538 C   0  0  0  0  0  0  0  0  0  0  0  0
  -16.5264   15.8668  -22.0467 N   0  0  0  0  0  0  0  0  0  0  0  0
  -16.6000   14.6239  -22.5012 C   0  0  0  0  0  0  0  0  0  0  0  0
  -17.0408   13.4931  -21.9317 N   0  0  0  0  0  0  0  0  0  0  0  0
  -16.8944   12.5244  -22.8212 N   0  0  0  0  0  0  0  0  0  0  0  0
  -16.3737   12.9769  -23.9536 C   0  0  0  0  0  0  0  0  0  0  0  0
  -16.1689   14.3271  -23.7884 C   0  0  0  0  0  0  0  0  0  0  0  0
  -15.2355   14.9688  -25.9075 N   0  0  0  0  0  0  0  0  0  0  0  0
  -14.3039   14.5540  -26.0801 H   0  0  0  0  0  0  0  0  0  0  0  0
  -16.9133   13.9611  -27.2865 C   0  0  0  0  0  0  0  0  0  0  0  0
  -16.1547   15.2242  -27.0109 C   0  0  0  0  0  0  0  0  0  0  0  0
  -15.4056   15.6436  -28.2385 C   0  0  0  0  0  0  0  0  0  0  0  0
  -19.7803   10.2417  -15.8899 C   0  0  0  0  0  0  0  0  0  0  0  0
  -19.2131    8.8768  -16.1881 C   0  0  0  0  0  0  0  0  0  0  0  0
  -19.9707    7.9474  -15.2638 C   0  0  0  0  0  0  0  0  0  0  0  0
  -21.3719    8.4970  -15.3312 C   0  0  0  0  0  0  0  0  0  0  0  0
  -21.2064   10.0094  -15.4940 C   0  0  0  0  0  0  0  0  0  0  0  0
 22 23  1  0  0  0
 23 24  1  0  0  0
 23 20  1  0  0  0
 20 11  1  0  0  0
 11 12  2  0  0  0
 12 13  1  0  0  0
 13 14  2  0  0  0
 14 15  1  0  0  0
 15 16  1  0  0  0
 16 17  1  0  0  0
 17 18  2  0  0  0
 18 19  1  0  0  0
 16  1  1  0  0  0
  1  2  1  0  0  0
  2  3  1  0  0  0
  3  4  2  0  0  0
  4  5  1  0  0  0
  5  6  2  0  0  0
  6  7  1  0  0  0
  7  8  2  0  0  0
  8  9  1  0  0  0
  9 10  2  0  0  0
  6 25  1  0  0  0
 25 26  1  0  0  0
 26 27  1  0  0  0
 27 28  1  0  0  0
 28 29  1  0  0  0
 19 11  1  0  0  0
  9  1  1  0  0  0
 29 25  1  0  0  0
 19 15  2  0  0  0
  8  3  1  0  0  0
 20 21  1  0  0  0
M  END
> <minimizedAffinity>
-9.49089

> <CNNscore>
0.5537636280

> <CNNaffinity>
6.9007024765

> <CNN_VS>
3.8213579655

> <CNNaffinity_variance>
0.2925740778

$$$$
[H]c1nc(N([H])C([H])(C([H])([H])[H])C([H])([H])[H])c2c([H])nn(C3([H])C(=O)c4c([H])c(C5([H])C([H])([H])C([H])([H])C([H])([H])C5([H])[H])c([H])c([H])c4C3([H])[H])c2n1


 29 33  0  0  0  0  0  0  0  0999 V2000
  -18.0792   13.1639  -20.0269 C   0  0  0  0  0  0  0  0  0  0  0  0
  -19.3728   13.4703  -19.3676 C   0  0  0  0  0  0  0  0  0  0  0  0
  -19.4494   12.4439  -18.2937 C   0  0  0  0  0  0  0  0  0  0  0  0
  -20.0905   12.3738  -17.0731 C   0  0  0  0  0  0  0  0  0  0  0  0
  -19.9688   11.2495  -16.2867 C   0  0  0  0  0  0  0  0  0  0  0  0
  -19.2185   10.1541  -16.6615 C   0  0  0  0  0  0  0  0  0  0  0  0
  -18.5857   10.2435  -17.8840 C   0  0  0  0  0  0  0  0  0  0  0  0
  -18.6910   11.3681  -18.6996 C   0  0  0  0  0  0  0  0  0  0  0  0
  -18.0989   11.6572  -20.0126 C   0  0  0  0  0  0  0  0  0  0  0  0
  -17.7156   10.8660  -20.8813 O   0  0  0  0  0  0  0  0  0  0  0  0
  -16.3640   14.0815  -24.4557 C   0  0  0  0  0  0  0  0  0  0  0  0
  -15.3473   13.2074  -24.4156 N   0  0  0  0  0  0  0  0  0  0  0  0
  -15.1468   12.4486  -23.3054 C   0  0  0  0  0  0  0  0  0  0  0  0
  -15.9496   12.5447  -22.2200 N   0  0  0  0  0  0  0  0  0  0  0  0
  -16.9594   13.4031  -22.2416 C   0  0  0  0  0  0  0  0  0  0  0  0
  -17.8938   13.7003  -21.3275 N   0  0  0  0  0  0  0  0  0  0  0  0
  -18.6722   14.6326  -21.8528 N   0  0  0  0  0  0  0  0  0  0  0  0
  -18.2837   14.9586  -23.0780 C   0  0  0  0  0  0  0  0  0  0  0  0
  -17.1816   14.1879  -23.3666 C   0  0  0  0  0  0  0  0  0  0  0  0
  -16.6222   14.9027  -25.5914 N   0  0  0  0  0  0  0  0  0  0  0  0
  -17.5311   15.3795  -25.7188 H   0  0  0  0  0  0  0  0  0  0  0  0
  -14.6115   16.1052  -26.0843 C   0  0  0  0  0  0  0  0  0  0  0  0
  -15.5568   15.0512  -26.5766 C   0  0  0  0  0  0  0  0  0  0  0  0
  -16.1171   15.4540  -27.9063 C   0  0  0  0  0  0  0  0  0  0  0  0
  -19.1076    8.9593  -15.7931 C   0  0  0  0  0  0  0  0  0  0  0  0
  -20.1994    7.9543  -16.0605 C   0  0  0  0  0  0  0  0  0  0  0  0
  -20.3223    7.1824  -14.7639 C   0  0  0  0  0  0  0  0  0  0  0  0
  -20.1777    8.2667  -13.7279 C   0  0  0  0  0  0  0  0  0  0  0  0
  -19.1980    9.2754  -14.3315 C   0  0  0  0  0  0  0  0  0  0  0  0
 22 23  1  0  0  0
 23 24  1  0  0  0
 23 20  1  0  0  0
 20 11  1  0  0  0
 11 12  2  0  0  0
 12 13  1  0  0  0
 13 14  2  0  0  0
 14 15  1  0  0  0
 15 16  1  0  0  0
 16 17  1  0  0  0
 17 18  2  0  0  0
 18 19  1  0  0  0
 16  1  1  0  0  0
  1  2  1  0  0  0
  2  3  1  0  0  0
  3  4  2  0  0  0
  4  5  1  0  0  0
  5  6  2  0  0  0
  6  7  1  0  0  0
  7  8  2  0  0  0
  8  9  1  0  0  0
  9 10  2  0  0  0
  6 25  1  0  0  0
 25 26  1  0  0  0
 26 27  1  0  0  0
 27 28  1  0  0  0
 28 29  1  0  0  0
 19 11  1  0  0  0
  9  1  1  0  0  0
 29 25  1  0  0  0
 19 15  2  0  0  0
  8  3  1  0  0  0
 20 21  1  0  0  0
M  END
> <minimizedAffinity>
-8.36291

> <CNNscore>
0.5511765480

> <CNNaffinity>
6.8636369705

> <CNN_VS>
3.7830758095

> <CNNaffinity_variance>
0.3218168616

$$$$
[H]c1nc(N([H])C([H])(C([H])([H])[H])C([H])([H])[H])c2c([H])nn(C3([H])C(=O)c4c([H])c(C5([H])C([H])([H])C([H])([H])C([H])([H])C5([H])[H])c([H])c([H])c4C3([H])[H])c2n1


 29 33  0  0  0  0  0  0  0  0999 V2000
  -19.0819   11.7269  -17.1379 C   0  0  0  0  0  0  0  0  0  0  0  0
  -20.2826   12.3697  -16.5486 C   0  0  0  0  0  0  0  0  0  0  0  0
  -20.5345   11.5508  -15.3325 C   0  0  0  0  0  0  0  0  0  0  0  0
  -21.1565   11.7891  -14.1235 C   0  0  0  0  0  0  0  0  0  0  0  0
  -21.2371   10.7943  -13.1744 C   0  0  0  0  0  0  0  0  0  0  0  0
  -20.7148    9.5324  -13.3694 C   0  0  0  0  0  0  0  0  0  0  0  0
  -20.0972    9.3141  -14.5835 C   0  0  0  0  0  0  0  0  0  0  0  0
  -20.0009   10.3018  -15.5614 C   0  0  0  0  0  0  0  0  0  0  0  0
  -19.3869   10.2712  -16.8957 C   0  0  0  0  0  0  0  0  0  0  0  0
  -19.1754    9.2996  -17.6296 O   0  0  0  0  0  0  0  0  0  0  0  0
  -17.0893   11.8544  -21.5437 C   0  0  0  0  0  0  0  0  0  0  0  0
  -16.0589   11.0388  -21.2748 N   0  0  0  0  0  0  0  0  0  0  0  0
  -15.9181   10.5094  -20.0305 C   0  0  0  0  0  0  0  0  0  0  0  0
  -16.7949   10.7801  -19.0356 N   0  0  0  0  0  0  0  0  0  0  0  0
  -17.8193   11.5840  -19.2830 C   0  0  0  0  0  0  0  0  0  0  0  0
  -18.8201   12.0155  -18.5023 N   0  0  0  0  0  0  0  0  0  0  0  0
  -19.5810   12.8053  -19.2428 N   0  0  0  0  0  0  0  0  0  0  0  0
  -19.1171   12.9085  -20.4808 C   0  0  0  0  0  0  0  0  0  0  0  0
  -17.9813   12.1354  -20.5481 C   0  0  0  0  0  0  0  0  0  0  0  0
  -17.2874   12.4384  -22.8285 N   0  0  0  0  0  0  0  0  0  0  0  0
  -17.8290   11.9547  -23.5649 H   0  0  0  0  0  0  0  0  0  0  0  0
  -17.6688   14.5504  -23.8894 C   0  0  0  0  0  0  0  0  0  0  0  0
  -16.6980   13.7497  -23.0750 C   0  0  0  0  0  0  0  0  0  0  0  0
  -15.4027   13.6178  -23.8160 C   0  0  0  0  0  0  0  0  0  0  0  0
  -20.8179    8.4835  -12.3287 C   0  0  0  0  0  0  0  0  0  0  0  0
  -20.4932    9.0086  -10.9530 C   0  0  0  0  0  0  0  0  0  0  0  0
  -20.0373    7.7864  -10.1847 C   0  0  0  0  0  0  0  0  0  0  0  0
  -19.2105    7.0519  -11.2079 C   0  0  0  0  0  0  0  0  0  0  0  0
  -19.8878    7.3305  -12.5514 C   0  0  0  0  0  0  0  0  0  0  0  0
 22 23  1  0  0  0
 23 24  1  0  0  0
 23 20  1  0  0  0
 20 11  1  0  0  0
 11 12  2  0  0  0
 12 13  1  0  0  0
 13 14  2  0  0  0
 14 15  1  0  0  0
 15 16  1  0  0  0
 16 17  1  0  0  0
 17 18  2  0  0  0
 18 19  1  0  0  0
 16  1  1  0  0  0
  1  2  1  0  0  0
  2  3  1  0  0  0
  3  4  2  0  0  0
  4  5  1  0  0  0
  5  6  2  0  0  0
  6  7  1  0  0  0
  7  8  2  0  0  0
  8  9  1  0  0  0
  9 10  2  0  0  0
  6 25  1  0  0  0
 25 26  1  0  0  0
 26 27  1  0  0  0
 27 28  1  0  0  0
 28 29  1  0  0  0
 19 11  1  0  0  0
  9  1  1  0  0  0
 29 25  1  0  0  0
 19 15  2  0  0  0
  8  3  1  0  0  0
 20 21  1  0  0  0
M  END
> <minimizedAffinity>
-7.19815

> <CNNscore>
0.5351687074

> <CNNaffinity>
6.3954863548

> <CNN_VS>
3.4226641655

> <CNNaffinity_variance>
0.4636179805

$$$$
[H]c1nc(N([H])C([H])(C([H])([H])[H])C([H])([H])[H])c2c([H])nn(C3([H])C(=O)c4c([H])c(C5([H])C([H])([H])C([H])([H])C([H])([H])C5([H])[H])c([H])c([H])c4C3([H])[H])c2n1


 29 33  0  0  0  0  0  0  0  0999 V2000
  -18.8233   12.0707  -18.9971 C   0  0  0  0  0  0  0  0  0  0  0  0
  -18.3366   13.3639  -18.4557 C   0  0  0  0  0  0  0  0  0  0  0  0
  -17.9362   14.1070  -19.6805 C   0  0  0  0  0  0  0  0  0  0  0  0
  -17.8220   15.4450  -20.0004 C   0  0  0  0  0  0  0  0  0  0  0  0
  -17.4058   15.8271  -21.2565 C   0  0  0  0  0  0  0  0  0  0  0  0
  -17.0862   14.9195  -22.2452 C   0  0  0  0  0  0  0  0  0  0  0  0
  -17.2068   13.5878  -21.9062 C   0  0  0  0  0  0  0  0  0  0  0  0
  -17.6256   13.1728  -20.6439 C   0  0  0  0  0  0  0  0  0  0  0  0
  -17.8221   11.8240  -20.0959 C   0  0  0  0  0  0  0  0  0  0  0  0
  -17.2994   10.7606  -20.4477 O   0  0  0  0  0  0  0  0  0  0  0  0
  -20.2139    9.1565  -15.3955 C   0  0  0  0  0  0  0  0  0  0  0  0
  -21.2553    9.8964  -14.9867 N   0  0  0  0  0  0  0  0  0  0  0  0
  -21.5505   11.0628  -15.6199 C   0  0  0  0  0  0  0  0  0  0  0  0
  -20.8190   11.5126  -16.6661 N   0  0  0  0  0  0  0  0  0  0  0  0
  -19.7861   10.7946  -17.0839 C   0  0  0  0  0  0  0  0  0  0  0  0
  -18.9066   10.9949  -18.0757 N   0  0  0  0  0  0  0  0  0  0  0  0
  -18.0690    9.9704  -18.0683 N   0  0  0  0  0  0  0  0  0  0  0  0
  -18.3659    9.1048  -17.1088 C   0  0  0  0  0  0  0  0  0  0  0  0
  -19.4677    9.5995  -16.4505 C   0  0  0  0  0  0  0  0  0  0  0  0
  -19.8573    7.9265  -14.7704 N   0  0  0  0  0  0  0  0  0  0  0  0
  -19.4393    7.1478  -15.3075 H   0  0  0  0  0  0  0  0  0  0  0  0
  -18.9364    8.3987  -12.6114 C   0  0  0  0  0  0  0  0  0  0  0  0
  -20.1020    7.7984  -13.3380 C   0  0  0  0  0  0  0  0  0  0  0  0
  -20.2524    6.3586  -12.9528 C   0  0  0  0  0  0  0  0  0  0  0  0
  -16.6412   15.3625  -23.5867 C   0  0  0  0  0  0  0  0  0  0  0  0
  -17.3704   14.6478  -24.6963 C   0  0  0  0  0  0  0  0  0  0  0  0
  -16.4221   14.7209  -25.8742 C   0  0  0  0  0  0  0  0  0  0  0  0
  -15.0833   14.4819  -25.2259 C   0  0  0  0  0  0  0  0  0  0  0  0
  -15.1843   15.1224  -23.8399 C   0  0  0  0  0  0  0  0  0  0  0  0
 22 23  1  0  0  0
 23 24  1  0  0  0
 23 20  1  0  0  0
 20 11  1  0  0  0
 11 12  2  0  0  0
 12 13  1  0  0  0
 13 14  2  0  0  0
 14 15  1  0  0  0
 15 16  1  0  0  0
 16 17  1  0  0  0
 17 18  2  0  0  0
 18 19  1  0  0  0
 16  1  1  0  0  0
  1  2  1  0  0  0
  2  3  1  0  0  0
  3  4  2  0  0  0
  4  5  1  0  0  0
  5  6  2  0  0  0
  6  7  1  0  0  0
  7  8  2  0  0  0
  8  9  1  0  0  0
  9 10  2  0  0  0
  6 25  1  0  0  0
 25 26  1  0  0  0
 26 27  1  0  0  0
 27 28  1  0  0  0
 28 29  1  0  0  0
 19 11  1  0  0  0
  9  1  1  0  0  0
 29 25  1  0  0  0
 19 15  2  0  0  0
  8  3  1  0  0  0
 20 21  1  0  0  0
M  END
> <minimizedAffinity>
-8.59825

> <CNNscore>
0.5208282471

> <CNNaffinity>
6.7019624710

> <CNN_VS>
3.4905712605

> <CNNaffinity_variance>
0.5037308931

$$$$
[H]c1nc([H])c(N([H])[H])c(-c2c([H])c([H])c3c(N([H])[H])c([H])c([H])c([H])c3c2[H])c1[H]


 22 24  0  0  0  0  0  0  0  0999 V2000
  -16.1439   13.3968  -23.1918 C   0  0  0  0  0  0  0  0  0  0  0  0
  -15.1880   14.3639  -23.0863 C   0  0  0  0  0  0  0  0  0  0  0  0
  -14.7923   15.1551  -24.1666 C   0  0  0  0  0  0  0  0  0  0  0  0
  -15.3769   14.9682  -25.3942 C   0  0  0  0  0  0  0  0  0  0  0  0
  -15.0450   15.7065  -26.5148 C   0  0  0  0  0  0  0  0  0  0  0  0
  -14.0457   16.7045  -26.3671 N   0  0  0  0  0  0  0  0  0  0  0  0
  -15.6433   15.5025  -27.7345 C   0  0  0  0  0  0  0  0  0  0  0  0
  -16.6161   14.5346  -27.8881 C   0  0  0  0  0  0  0  0  0  0  0  0
  -16.9489   13.7974  -26.7734 C   0  0  0  0  0  0  0  0  0  0  0  0
  -16.3491   13.9987  -25.5418 C   0  0  0  0  0  0  0  0  0  0  0  0
  -16.7205   13.2315  -24.4574 C   0  0  0  0  0  0  0  0  0  0  0  0
  -14.2338   17.5399  -25.7712 H   0  0  0  0  0  0  0  0  0  0  0  0
  -13.1235   16.6139  -26.8475 H   0  0  0  0  0  0  0  0  0  0  0  0
  -14.8229   10.9109  -22.5485 N   0  0  0  0  0  0  0  0  0  0  0  0
  -15.9522   11.3701  -21.8147 C   0  0  0  0  0  0  0  0  0  0  0  0
  -16.4304   10.6050  -20.7642 C   0  0  0  0  0  0  0  0  0  0  0  0
  -17.4941   11.0043  -20.0507 N   0  0  0  0  0  0  0  0  0  0  0  0
  -18.1029   12.1451  -20.3471 C   0  0  0  0  0  0  0  0  0  0  0  0
  -17.7046   12.9771  -21.3722 C   0  0  0  0  0  0  0  0  0  0  0  0
  -16.5939   12.5426  -22.1037 C   0  0  0  0  0  0  0  0  0  0  0  0
  -13.8481   11.0391  -22.2192 H   0  0  0  0  0  0  0  0  0  0  0  0
  -15.0510   10.4232  -23.4653 H   0  0  0  0  0  0  0  0  0  0  0  0
 14 15  1  0  0  0
 15 16  2  0  0  0
 16 17  1  0  0  0
 17 18  2  0  0  0
 18 19  1  0  0  0
 19 20  2  0  0  0
 20  1  1  0  0  0
  1  2  2  0  0  0
  2  3  1  0  0  0
  3  4  2  0  0  0
  4  5  1  0  0  0
  5  6  1  0  0  0
  5  7  2  0  0  0
  7  8  1  0  0  0
  8  9  2  0  0  0
  9 10  1  0  0  0
 10 11  2  0  0  0
 20 15  1  0  0  0
 11  1  1  0  0  0
 10  4  1  0  0  0
 14 21  1  0  0  0
 14 22  1  0  0  0
  6 12  1  0  0  0
  6 13  1  0  0  0
M  END
> <minimizedAffinity>
-8.78197

> <CNNscore>
0.9574957490

> <CNNaffinity>
6.3980760574

> <CNN_VS>
6.1261305809

> <CNNaffinity_variance>
0.0908910185

$$$$
[H]c1nc([H])c(N([H])[H])c(-c2c([H])c([H])c3c(N([H])[H])c([H])c([H])c([H])c3c2[H])c1[H]


 22 24  0  0  0  0  0  0  0  0999 V2000
  -17.1644   13.2038  -22.0207 C   0  0  0  0  0  0  0  0  0  0  0  0
  -16.5620   14.4274  -22.0139 C   0  0  0  0  0  0  0  0  0  0  0  0
  -16.2395   15.1165  -23.1848 C   0  0  0  0  0  0  0  0  0  0  0  0
  -16.5323   14.5570  -24.4033 C   0  0  0  0  0  0  0  0  0  0  0  0
  -16.2479   15.1700  -25.6094 C   0  0  0  0  0  0  0  0  0  0  0  0
  -15.6204   16.4430  -25.5633 N   0  0  0  0  0  0  0  0  0  0  0  0
  -16.5499   14.5916  -26.8183 C   0  0  0  0  0  0  0  0  0  0  0  0
  -17.1601   13.3540  -26.8736 C   0  0  0  0  0  0  0  0  0  0  0  0
  -17.4447   12.7410  -25.6736 C   0  0  0  0  0  0  0  0  0  0  0  0
  -17.1425   13.3193  -24.4524 C   0  0  0  0  0  0  0  0  0  0  0  0
  -17.4497   12.6610  -23.2799 C   0  0  0  0  0  0  0  0  0  0  0  0
  -16.1393   17.2610  -25.1759 H   0  0  0  0  0  0  0  0  0  0  0  0
  -14.6453   16.5722  -25.9123 H   0  0  0  0  0  0  0  0  0  0  0  0
  -15.7877   10.7719  -21.2932 N   0  0  0  0  0  0  0  0  0  0  0  0
  -16.8544   11.2918  -20.5078 C   0  0  0  0  0  0  0  0  0  0  0  0
  -17.2425   10.6139  -19.3644 C   0  0  0  0  0  0  0  0  0  0  0  0
  -18.2453   11.0722  -18.6000 N   0  0  0  0  0  0  0  0  0  0  0  0
  -18.8797   12.1880  -18.9348 C   0  0  0  0  0  0  0  0  0  0  0  0
  -18.5694   12.9349  -20.0518 C   0  0  0  0  0  0  0  0  0  0  0  0
  -17.5211   12.4400  -20.8351 C   0  0  0  0  0  0  0  0  0  0  0  0
  -14.7896   10.9224  -21.0561 H   0  0  0  0  0  0  0  0  0  0  0  0
  -16.0887   10.2141  -22.1467 H   0  0  0  0  0  0  0  0  0  0  0  0
 14 15  1  0  0  0
 15 16  2  0  0  0
 16 17  1  0  0  0
 17 18  2  0  0  0
 18 19  1  0  0  0
 19 20  2  0  0  0
 20  1  1  0  0  0
  1  2  2  0  0  0
  2  3  1  0  0  0
  3  4  2  0  0  0
  4  5  1  0  0  0
  5  6  1  0  0  0
  5  7  2  0  0  0
  7  8  1  0  0  0
  8  9  2  0  0  0
  9 10  1  0  0  0
 10 11  2  0  0  0
 20 15  1  0  0  0
 11  1  1  0  0  0
 10  4  1  0  0  0
 14 21  1  0  0  0
 14 22  1  0  0  0
  6 12  1  0  0  0
  6 13  1  0  0  0
M  END
> <minimizedAffinity>
-7.97378

> <CNNscore>
0.7723156214

> <CNNaffinity>
6.0121951103

> <CNN_VS>
4.6433119774

> <CNNaffinity_variance>
0.2585423887

$$$$
[H]c1nc([H])c(N([H])[H])c(-c2c([H])c([H])c3c(N([H])[H])c([H])c([H])c([H])c3c2[H])c1[H]


 22 24  0  0  0  0  0  0  0  0999 V2000
  -16.7353   12.7509  -23.0512 C   0  0  0  0  0  0  0  0  0  0  0  0
  -17.5420   12.5611  -24.1344 C   0  0  0  0  0  0  0  0  0  0  0  0
  -17.3133   13.1819  -25.3640 C   0  0  0  0  0  0  0  0  0  0  0  0
  -16.2377   14.0218  -25.5099 C   0  0  0  0  0  0  0  0  0  0  0  0
  -15.9385   14.6759  -26.6905 C   0  0  0  0  0  0  0  0  0  0  0  0
  -16.8006   14.4542  -27.7968 N   0  0  0  0  0  0  0  0  0  0  0  0
  -14.8560   15.5127  -26.8144 C   0  0  0  0  0  0  0  0  0  0  0  0
  -14.0118   15.7345  -25.7444 C   0  0  0  0  0  0  0  0  0  0  0  0
  -14.3074   15.0842  -24.5669 C   0  0  0  0  0  0  0  0  0  0  0  0
  -15.3970   14.2398  -24.4364 C   0  0  0  0  0  0  0  0  0  0  0  0
  -15.6469   13.6134  -23.2333 C   0  0  0  0  0  0  0  0  0  0  0  0
  -16.8451   13.5089  -28.2359 H   0  0  0  0  0  0  0  0  0  0  0  0
  -17.3918   15.2255  -28.1779 H   0  0  0  0  0  0  0  0  0  0  0  0
  -15.0757   10.5749  -22.1293 N   0  0  0  0  0  0  0  0  0  0  0  0
  -16.1265   11.1056  -21.3298 C   0  0  0  0  0  0  0  0  0  0  0  0
  -16.3594   10.5646  -20.0766 C   0  0  0  0  0  0  0  0  0  0  0  0
  -17.3423   11.0372  -19.2951 N   0  0  0  0  0  0  0  0  0  0  0  0
  -18.1065   12.0353  -19.7189 C   0  0  0  0  0  0  0  0  0  0  0  0
  -17.9556   12.6412  -20.9484 C   0  0  0  0  0  0  0  0  0  0  0  0
  -16.9254   12.1338  -21.7477 C   0  0  0  0  0  0  0  0  0  0  0  0
  -14.0823   10.8435  -22.0029 H   0  0  0  0  0  0  0  0  0  0  0  0
  -15.3837    9.8782  -22.8710 H   0  0  0  0  0  0  0  0  0  0  0  0
 14 15  1  0  0  0
 15 16  2  0  0  0
 16 17  1  0  0  0
 17 18  2  0  0  0
 18 19  1  0  0  0
 19 20  2  0  0  0
 20  1  1  0  0  0
  1  2  2  0  0  0
  2  3  1  0  0  0
  3  4  2  0  0  0
  4  5  1  0  0  0
  5  6  1  0  0  0
  5  7  2  0  0  0
  7  8  1  0  0  0
  8  9  2  0  0  0
  9 10  1  0  0  0
 10 11  2  0  0  0
 20 15  1  0  0  0
 11  1  1  0  0  0
 10  4  1  0  0  0
 14 21  1  0  0  0
 14 22  1  0  0  0
  6 12  1  0  0  0
  6 13  1  0  0  0
M  END
> <minimizedAffinity>
-8.08668

> <CNNscore>
0.7498733997

> <CNNaffinity>
5.8378186226

> <CNN_VS>
4.3776249886

> <CNNaffinity_variance>
0.1241659150

$$$$
[H]c1nc([H])c(N([H])[H])c(-c2c([H])c([H])c3c(N([H])[H])c([H])c([H])c([H])c3c2[H])c1[H]


 22 24  0  0  0  0  0  0  0  0999 V2000
  -16.6479   13.8688  -22.9999 C   0  0  0  0  0  0  0  0  0  0  0  0
  -15.6529   14.7963  -22.9007 C   0  0  0  0  0  0  0  0  0  0  0  0
  -15.1008   15.4331  -24.0140 C   0  0  0  0  0  0  0  0  0  0  0  0
  -15.5642   15.1275  -25.2692 C   0  0  0  0  0  0  0  0  0  0  0  0
  -15.0744   15.7100  -26.4232 C   0  0  0  0  0  0  0  0  0  0  0  0
  -14.0389   16.6712  -26.2811 N   0  0  0  0  0  0  0  0  0  0  0  0
  -15.5533   15.3890  -27.6702 C   0  0  0  0  0  0  0  0  0  0  0  0
  -16.5601   14.4557  -27.8187 C   0  0  0  0  0  0  0  0  0  0  0  0
  -17.0501   13.8737  -26.6707 C   0  0  0  0  0  0  0  0  0  0  0  0
  -16.5712   14.1934  -25.4115 C   0  0  0  0  0  0  0  0  0  0  0  0
  -17.0981   13.5797  -24.2942 C   0  0  0  0  0  0  0  0  0  0  0  0
  -14.2386   17.5798  -25.8090 H   0  0  0  0  0  0  0  0  0  0  0  0
  -13.0786   16.4810  -26.6432 H   0  0  0  0  0  0  0  0  0  0  0  0
  -18.8244   15.0147  -21.4872 N   0  0  0  0  0  0  0  0  0  0  0  0
  -18.2898   13.7332  -21.1761 C   0  0  0  0  0  0  0  0  0  0  0  0
  -18.8274   13.0164  -20.1203 C   0  0  0  0  0  0  0  0  0  0  0  0
  -18.3484   11.8059  -19.7958 N   0  0  0  0  0  0  0  0  0  0  0  0
  -17.3470   11.2798  -20.4889 C   0  0  0  0  0  0  0  0  0  0  0  0
  -16.7441   11.9122  -21.5558 C   0  0  0  0  0  0  0  0  0  0  0  0
  -17.2583   13.1730  -21.8777 C   0  0  0  0  0  0  0  0  0  0  0  0
  -19.6879   15.1432  -22.0464 H   0  0  0  0  0  0  0  0  0  0  0  0
  -18.2715   15.8374  -21.1026 H   0  0  0  0  0  0  0  0  0  0  0  0
 14 15  1  0  0  0
 15 16  2  0  0  0
 16 17  1  0  0  0
 17 18  2  0  0  0
 18 19  1  0  0  0
 19 20  2  0  0  0
 20  1  1  0  0  0
  1  2  2  0  0  0
  2  3  1  0  0  0
  3  4  2  0  0  0
  4  5  1  0  0  0
  5  6  1  0  0  0
  5  7  2  0  0  0
  7  8  1  0  0  0
  8  9  2  0  0  0
  9 10  1  0  0  0
 10 11  2  0  0  0
 20 15  1  0  0  0
 11  1  1  0  0  0
 10  4  1  0  0  0
 14 21  1  0  0  0
 14 22  1  0  0  0
  6 12  1  0  0  0
  6 13  1  0  0  0
M  END
> <minimizedAffinity>
-8.45099

> <CNNscore>
0.7227621675

> <CNNaffinity>
5.9668984413

> <CNN_VS>
4.3126482964

> <CNNaffinity_variance>
0.0598497801

$$$$
[H]c1nc([H])c(N([H])[H])c(-c2c([H])c([H])c3c(N([H])[H])c([H])c([H])c([H])c3c2[H])c1[H]


 22 24  0  0  0  0  0  0  0  0999 V2000
  -17.7783   11.4371  -19.2654 C   0  0  0  0  0  0  0  0  0  0  0  0
  -18.3397   12.5380  -18.6883 C   0  0  0  0  0  0  0  0  0  0  0  0
  -19.1227   12.4690  -17.5343 C   0  0  0  0  0  0  0  0  0  0  0  0
  -19.3493   11.2527  -16.9403 C   0  0  0  0  0  0  0  0  0  0  0  0
  -20.1111   11.0948  -15.7976 C   0  0  0  0  0  0  0  0  0  0  0  0
  -20.6797   12.2631  -15.2248 N   0  0  0  0  0  0  0  0  0  0  0  0
  -20.3250    9.8671  -15.2193 C   0  0  0  0  0  0  0  0  0  0  0  0
  -19.7763    8.7251  -15.7687 C   0  0  0  0  0  0  0  0  0  0  0  0
  -19.0168    8.8794  -16.9072 C   0  0  0  0  0  0  0  0  0  0  0  0
  -18.7980   10.1143  -17.4942 C   0  0  0  0  0  0  0  0  0  0  0  0
  -18.0286   10.2119  -18.6347 C   0  0  0  0  0  0  0  0  0  0  0  0
  -20.0575   12.9899  -14.8088 H   0  0  0  0  0  0  0  0  0  0  0  0
  -21.7136   12.4054  -15.2141 H   0  0  0  0  0  0  0  0  0  0  0  0
  -18.2261   13.3179  -21.4104 N   0  0  0  0  0  0  0  0  0  0  0  0
  -17.1852   12.3494  -21.4692 C   0  0  0  0  0  0  0  0  0  0  0  0
  -16.3652   12.3076  -22.5842 C   0  0  0  0  0  0  0  0  0  0  0  0
  -15.3748   11.4073  -22.6765 N   0  0  0  0  0  0  0  0  0  0  0  0
  -15.1699   10.5415  -21.6925 C   0  0  0  0  0  0  0  0  0  0  0  0
  -15.9300   10.5015  -20.5425 C   0  0  0  0  0  0  0  0  0  0  0  0
  -16.9572   11.4484  -20.4661 C   0  0  0  0  0  0  0  0  0  0  0  0
  -18.0626   14.3030  -21.1313 H   0  0  0  0  0  0  0  0  0  0  0  0
  -19.1906   12.9573  -21.6749 H   0  0  0  0  0  0  0  0  0  0  0  0
 14 15  1  0  0  0
 15 16  2  0  0  0
 16 17  1  0  0  0
 17 18  2  0  0  0
 18 19  1  0  0  0
 19 20  2  0  0  0
 20  1  1  0  0  0
  1  2  2  0  0  0
  2  3  1  0  0  0
  3  4  2  0  0  0
  4  5  1  0  0  0
  5  6  1  0  0  0
  5  7  2  0  0  0
  7  8  1  0  0  0
  8  9  2  0  0  0
  9 10  1  0  0  0
 10 11  2  0  0  0
 20 15  1  0  0  0
 11  1  1  0  0  0
 10  4  1  0  0  0
 14 21  1  0  0  0
 14 22  1  0  0  0
  6 12  1  0  0  0
  6 13  1  0  0  0
M  END
> <minimizedAffinity>
-7.42538

> <CNNscore>
0.7159904838

> <CNNaffinity>
5.5571537018

> <CNN_VS>
3.9788691998

> <CNNaffinity_variance>
0.0422168262

$$$$
[H]c1nc([H])c(N([H])[H])c(-c2c([H])c([H])c3c(N([H])[H])c([H])c([H])c([H])c3c2[H])c1[H]


 22 24  0  0  0  0  0  0  0  0999 V2000
  -17.8946   13.6426  -20.6030 C   0  0  0  0  0  0  0  0  0  0  0  0
  -17.2714   14.7715  -21.0472 C   0  0  0  0  0  0  0  0  0  0  0  0
  -17.9319   15.9940  -21.1848 C   0  0  0  0  0  0  0  0  0  0  0  0
  -19.2635   16.0850  -20.8651 C   0  0  0  0  0  0  0  0  0  0  0  0
  -19.9927   17.2546  -20.9715 C   0  0  0  0  0  0  0  0  0  0  0  0
  -19.3106   18.4096  -21.4376 N   0  0  0  0  0  0  0  0  0  0  0  0
  -21.3256   17.3233  -20.6458 C   0  0  0  0  0  0  0  0  0  0  0  0
  -21.9976   16.2057  -20.1917 C   0  0  0  0  0  0  0  0  0  0  0  0
  -21.2736   15.0390  -20.0846 C   0  0  0  0  0  0  0  0  0  0  0  0
  -19.9303   14.9641  -20.4115 C   0  0  0  0  0  0  0  0  0  0  0  0
  -19.2528   13.7693  -20.2853 C   0  0  0  0  0  0  0  0  0  0  0  0
  -18.5575   18.8353  -20.8546 H   0  0  0  0  0  0  0  0  0  0  0  0
  -19.5527   18.8397  -22.3573 H   0  0  0  0  0  0  0  0  0  0  0  0
  -16.5540   12.3116  -22.7870 N   0  0  0  0  0  0  0  0  0  0  0  0
  -16.6277   11.7322  -21.4895 C   0  0  0  0  0  0  0  0  0  0  0  0
  -16.0410   10.4975  -21.2680 C   0  0  0  0  0  0  0  0  0  0  0  0
  -16.0917    9.9188  -20.0587 N   0  0  0  0  0  0  0  0  0  0  0  0
  -16.7093   10.5286  -19.0554 C   0  0  0  0  0  0  0  0  0  0  0  0
  -17.3235   11.7577  -19.1734 C   0  0  0  0  0  0  0  0  0  0  0  0
  -17.2592   12.3439  -20.4421 C   0  0  0  0  0  0  0  0  0  0  0  0
  -15.7194   12.8240  -23.1276 H   0  0  0  0  0  0  0  0  0  0  0  0
  -17.4218   12.1811  -23.3872 H   0  0  0  0  0  0  0  0  0  0  0  0
 14 15  1  0  0  0
 15 16  2  0  0  0
 16 17  1  0  0  0
 17 18  2  0  0  0
 18 19  1  0  0  0
 19 20  2  0  0  0
 20  1  1  0  0  0
  1  2  2  0  0  0
  2  3  1  0  0  0
  3  4  2  0  0  0
  4  5  1  0  0  0
  5  6  1  0  0  0
  5  7  2  0  0  0
  7  8  1  0  0  0
  8  9  2  0  0  0
  9 10  1  0  0  0
 10 11  2  0  0  0
 20 15  1  0  0  0
 11  1  1  0  0  0
 10  4  1  0  0  0
 14 21  1  0  0  0
 14 22  1  0  0  0
  6 12  1  0  0  0
  6 13  1  0  0  0
M  END
> <minimizedAffinity>
-6.85994

> <CNNscore>
0.7050061226

> <CNNaffinity>
5.7458701134

> <CNN_VS>
4.0508737564

> <CNNaffinity_variance>
0.2431838959

$$$$
[H]c1nc([H])c(N([H])[H])c(-c2c([H])c([H])c3c(N([H])[H])c([H])c([H])c([H])c3c2[H])c1[H]


 22 24  0  0  0  0  0  0  0  0999 V2000
  -18.3687   13.3876  -20.2181 C   0  0  0  0  0  0  0  0  0  0  0  0
  -19.7285   13.2882  -20.1826 C   0  0  0  0  0  0  0  0  0  0  0  0
  -20.5663   14.4045  -20.1446 C   0  0  0  0  0  0  0  0  0  0  0  0
  -20.0192   15.6632  -20.1422 C   0  0  0  0  0  0  0  0  0  0  0  0
  -20.7745   16.8205  -20.1060 C   0  0  0  0  0  0  0  0  0  0  0  0
  -22.1869   16.6779  -20.0696 N   0  0  0  0  0  0  0  0  0  0  0  0
  -20.2057   18.0710  -20.1044 C   0  0  0  0  0  0  0  0  0  0  0  0
  -18.8333   18.2200  -20.1398 C   0  0  0  0  0  0  0  0  0  0  0  0
  -18.0782   17.0687  -20.1759 C   0  0  0  0  0  0  0  0  0  0  0  0
  -18.6462   15.8060  -20.1777 C   0  0  0  0  0  0  0  0  0  0  0  0
  -17.8426   14.6856  -20.2147 C   0  0  0  0  0  0  0  0  0  0  0  0
  -22.6873   16.2791  -20.8935 H   0  0  0  0  0  0  0  0  0  0  0  0
  -22.7327   16.9672  -19.2282 H   0  0  0  0  0  0  0  0  0  0  0  0
  -17.2362   12.4176  -22.6910 N   0  0  0  0  0  0  0  0  0  0  0  0
  -16.9214   11.8202  -21.4384 C   0  0  0  0  0  0  0  0  0  0  0  0
  -16.0488   10.7455  -21.4042 C   0  0  0  0  0  0  0  0  0  0  0  0
  -15.7299   10.1551  -20.2424 N   0  0  0  0  0  0  0  0  0  0  0  0
  -16.2515   10.5987  -19.1063 C   0  0  0  0  0  0  0  0  0  0  0  0
  -17.1284   11.6607  -19.0341 C   0  0  0  0  0  0  0  0  0  0  0  0
  -17.4479   12.2622  -20.2563 C   0  0  0  0  0  0  0  0  0  0  0  0
  -16.6180   13.1079  -23.1561 H   0  0  0  0  0  0  0  0  0  0  0  0
  -18.1571   12.1037  -23.1195 H   0  0  0  0  0  0  0  0  0  0  0  0
 14 15  1  0  0  0
 15 16  2  0  0  0
 16 17  1  0  0  0
 17 18  2  0  0  0
 18 19  1  0  0  0
 19 20  2  0  0  0
 20  1  1  0  0  0
  1  2  2  0  0  0
  2  3  1  0  0  0
  3  4  2  0  0  0
  4  5  1  0  0  0
  5  6  1  0  0  0
  5  7  2  0  0  0
  7  8  1  0  0  0
  8  9  2  0  0  0
  9 10  1  0  0  0
 10 11  2  0  0  0
 20 15  1  0  0  0
 11  1  1  0  0  0
 10  4  1  0  0  0
 14 21  1  0  0  0
 14 22  1  0  0  0
  6 12  1  0  0  0
  6 13  1  0  0  0
M  END
> <minimizedAffinity>
-6.75480

> <CNNscore>
0.6274514794

> <CNNaffinity>
5.5772314072

> <CNN_VS>
3.4994421005

> <CNNaffinity_variance>
0.2744760513

$$$$
[H]c1nc([H])c(N([H])[H])c(-c2c([H])c([H])c3c(N([H])[H])c([H])c([H])c([H])c3c2[H])c1[H]


 22 24  0  0  0  0  0  0  0  0999 V2000
  -17.3609   12.5094  -21.4057 C   0  0  0  0  0  0  0  0  0  0  0  0
  -16.7970   11.3117  -21.0778 C   0  0  0  0  0  0  0  0  0  0  0  0
  -17.1395   10.6073  -19.9218 C   0  0  0  0  0  0  0  0  0  0  0  0
  -18.0804   11.1240  -19.0666 C   0  0  0  0  0  0  0  0  0  0  0  0
  -18.4777   10.4933  -17.9024 C   0  0  0  0  0  0  0  0  0  0  0  0
  -17.8690    9.2481  -17.5936 N   0  0  0  0  0  0  0  0  0  0  0  0
  -19.4219   11.0289  -17.0604 C   0  0  0  0  0  0  0  0  0  0  0  0
  -20.0196   12.2391  -17.3520 C   0  0  0  0  0  0  0  0  0  0  0  0
  -19.6258   12.8698  -18.5114 C   0  0  0  0  0  0  0  0  0  0  0  0
  -18.6747   12.3346  -19.3635 C   0  0  0  0  0  0  0  0  0  0  0  0
  -18.3171   13.0089  -20.5124 C   0  0  0  0  0  0  0  0  0  0  0  0
  -18.0498    8.4198  -18.2014 H   0  0  0  0  0  0  0  0  0  0  0  0
  -17.2418    9.1497  -16.7651 H   0  0  0  0  0  0  0  0  0  0  0  0
  -15.0869   11.8946  -23.0760 N   0  0  0  0  0  0  0  0  0  0  0  0
  -15.9615   12.9776  -23.3711 C   0  0  0  0  0  0  0  0  0  0  0  0
  -15.7160   13.7573  -24.4889 C   0  0  0  0  0  0  0  0  0  0  0  0
  -16.5172   14.7880  -24.7982 N   0  0  0  0  0  0  0  0  0  0  0  0
  -17.5607   15.0724  -24.0302 C   0  0  0  0  0  0  0  0  0  0  0  0
  -17.8902   14.3579  -22.8976 C   0  0  0  0  0  0  0  0  0  0  0  0
  -17.0423   13.2875  -22.5928 C   0  0  0  0  0  0  0  0  0  0  0  0
  -15.1590   10.9707  -23.5409 H   0  0  0  0  0  0  0  0  0  0  0  0
  -14.3487   12.1014  -22.3394 H   0  0  0  0  0  0  0  0  0  0  0  0
 14 15  1  0  0  0
 15 16  2  0  0  0
 16 17  1  0  0  0
 17 18  2  0  0  0
 18 19  1  0  0  0
 19 20  2  0  0  0
 20  1  1  0  0  0
  1  2  2  0  0  0
  2  3  1  0  0  0
  3  4  2  0  0  0
  4  5  1  0  0  0
  5  6  1  0  0  0
  5  7  2  0  0  0
  7  8  1  0  0  0
  8  9  2  0  0  0
  9 10  1  0  0  0
 10 11  2  0  0  0
 20 15  1  0  0  0
 11  1  1  0  0  0
 10  4  1  0  0  0
 14 21  1  0  0  0
 14 22  1  0  0  0
  6 12  1  0  0  0
  6 13  1  0  0  0
M  END
> <minimizedAffinity>
-8.26326

> <CNNscore>
0.5012515783

> <CNNaffinity>
5.4913630486

> <CNN_VS>
2.7525544167

> <CNNaffinity_variance>
0.1095106006

$$$$
[H]c1nc([H])c(N([H])[H])c(-c2c([H])c([H])c3c(N([H])[H])c([H])c([H])c([H])c3c2[H])c1[H]


 22 24  0  0  0  0  0  0  0  0999 V2000
  -17.2045   14.6679  -22.3520 C   0  0  0  0  0  0  0  0  0  0  0  0
  -16.1991   15.5892  -22.3702 C   0  0  0  0  0  0  0  0  0  0  0  0
  -15.5432   15.9677  -23.5433 C   0  0  0  0  0  0  0  0  0  0  0  0
  -15.9100   15.4012  -24.7383 C   0  0  0  0  0  0  0  0  0  0  0  0
  -15.3142   15.7182  -25.9448 C   0  0  0  0  0  0  0  0  0  0  0  0
  -14.2710   16.6815  -25.9250 N   0  0  0  0  0  0  0  0  0  0  0  0
  -15.6974   15.1386  -27.1299 C   0  0  0  0  0  0  0  0  0  0  0  0
  -16.7108   14.2010  -27.1595 C   0  0  0  0  0  0  0  0  0  0  0  0
  -17.3063   13.8831  -25.9590 C   0  0  0  0  0  0  0  0  0  0  0  0
  -16.9240   14.4642  -24.7617 C   0  0  0  0  0  0  0  0  0  0  0  0
  -17.5546   14.1090  -23.5876 C   0  0  0  0  0  0  0  0  0  0  0  0
  -14.4868   17.6717  -25.6774 H   0  0  0  0  0  0  0  0  0  0  0  0
  -13.2892   16.4123  -26.1552 H   0  0  0  0  0  0  0  0  0  0  0  0
  -19.4268   16.1619  -21.2713 N   0  0  0  0  0  0  0  0  0  0  0  0
  -18.9721   14.9557  -20.6687 C   0  0  0  0  0  0  0  0  0  0  0  0
  -19.6121   14.4856  -19.5342 C   0  0  0  0  0  0  0  0  0  0  0  0
  -19.2105   13.3533  -18.9371 N   0  0  0  0  0  0  0  0  0  0  0  0
  -18.1882   12.6676  -19.4317 C   0  0  0  0  0  0  0  0  0  0  0  0
  -17.4861   13.0509  -20.5550 C   0  0  0  0  0  0  0  0  0  0  0  0
  -17.9207   14.2340  -21.1625 C   0  0  0  0  0  0  0  0  0  0  0  0
  -20.2434   16.1989  -21.9091 H   0  0  0  0  0  0  0  0  0  0  0  0
  -18.8658   17.0291  -21.0193 H   0  0  0  0  0  0  0  0  0  0  0  0
 14 15  1  0  0  0
 15 16  2  0  0  0
 16 17  1  0  0  0
 17 18  2  0  0  0
 18 19  1  0  0  0
 19 20  2  0  0  0
 20  1  1  0  0  0
  1  2  2  0  0  0
  2  3  1  0  0  0
  3  4  2  0  0  0
  4  5  1  0  0  0
  5  6  1  0  0  0
  5  7  2  0  0  0
  7  8  1  0  0  0
  8  9  2  0  0  0
  9 10  1  0  0  0
 10 11  2  0  0  0
 20 15  1  0  0  0
 11  1  1  0  0  0
 10  4  1  0  0  0
 14 21  1  0  0  0
 14 22  1  0  0  0
  6 12  1  0  0  0
  6 13  1  0  0  0
M  END
> <minimizedAffinity>
-7.53280

> <CNNscore>
0.5008037090

> <CNNaffinity>
5.6190290451

> <CNN_VS>
2.8140306473

> <CNNaffinity_variance>
0.0912526399

$$$$
[H]c1nc2c([H])c([H])n([H])c2c([H])c1N1C([H])([H])C([H])([H])C([H])([H])[C@]1([H])C([H])([H])[H]


 16 18  0  0  0  0  0  0  0  0999 V2000
  -16.7444   12.6811  -22.7158 C   0  0  0  0  0  0  0  0  0  0  0  0
  -15.8155   11.6504  -22.6081 C   0  0  0  0  0  0  0  0  0  0  0  0
  -15.7570   10.8582  -21.5227 N   0  0  0  0  0  0  0  0  0  0  0  0
  -16.6069   11.0410  -20.4939 C   0  0  0  0  0  0  0  0  0  0  0  0
  -16.7451   10.3662  -19.2818 C   0  0  0  0  0  0  0  0  0  0  0  0
  -17.7752   10.9905  -18.6319 C   0  0  0  0  0  0  0  0  0  0  0  0
  -18.2434   11.9978  -19.4096 N   0  0  0  0  0  0  0  0  0  0  0  0
  -17.5396   12.0502  -20.5641 C   0  0  0  0  0  0  0  0  0  0  0  0
  -17.6260   12.8907  -21.6781 C   0  0  0  0  0  0  0  0  0  0  0  0
  -19.0258   12.6455  -19.1735 H   0  0  0  0  0  0  0  0  0  0  0  0
  -14.6085   14.6169  -24.0065 C   0  0  0  0  0  0  0  0  0  0  0  0
  -16.0952   14.7586  -24.0151 C   0  0  0  0  0  0  0  0  0  0  0  0
  -16.5468   15.3031  -25.3613 C   0  0  0  0  0  0  0  0  0  0  0  0
  -16.7317   13.9950  -26.1274 C   0  0  0  0  0  0  0  0  0  0  0  0
  -17.5021   13.1809  -25.1106 C   0  0  0  0  0  0  0  0  0  0  0  0
  -16.7754   13.4939  -23.8745 N   0  0  0  0  0  0  0  0  0  0  0  0
 11 12  1  0  0  0
 12 13  1  0  0  0
 13 14  1  0  0  0
 14 15  1  0  0  0
 15 16  1  0  0  0
 16  1  1  0  0  0
  1  2  2  0  0  0
  2  3  1  0  0  0
  3  4  2  0  0  0
  4  5  1  0  0  0
  5  6  2  0  0  0
  6  7  1  0  0  0
  7  8  1  0  0  0
  8  9  2  0  0  0
 16 12  1  0  0  0
  9  1  1  0  0  0
  8  4  1  0  0  0
  7 10  1  0  0  0
M  END
> <minimizedAffinity>
-6.23369

> <CNNscore>
0.8373866677

> <CNNaffinity>
5.7671556473

> <CNN_VS>
4.8293390274

> <CNNaffinity_variance>
0.0119054019

$$$$
[H]c1nc2c([H])c([H])n([H])c2c([H])c1N1C([H])([H])C([H])([H])C([H])([H])[C@]1([H])C([H])([H])[H]


 16 18  0  0  0  0  0  0  0  0999 V2000
  -16.6803   12.8549  -22.6713 C   0  0  0  0  0  0  0  0  0  0  0  0
  -15.8001   11.7784  -22.6181 C   0  0  0  0  0  0  0  0  0  0  0  0
  -15.8061   10.9065  -21.5938 N   0  0  0  0  0  0  0  0  0  0  0  0
  -16.6756   11.0513  -20.5754 C   0  0  0  0  0  0  0  0  0  0  0  0
  -16.8765   10.2960  -19.4209 C   0  0  0  0  0  0  0  0  0  0  0  0
  -17.8964   10.9165  -18.7517 C   0  0  0  0  0  0  0  0  0  0  0  0
  -18.2989   11.9984  -19.4632 N   0  0  0  0  0  0  0  0  0  0  0  0
  -17.5616   12.1039  -20.5929 C   0  0  0  0  0  0  0  0  0  0  0  0
  -17.5807   13.0271  -21.6428 C   0  0  0  0  0  0  0  0  0  0  0  0
  -19.0589   12.6616  -19.1987 H   0  0  0  0  0  0  0  0  0  0  0  0
  -17.8486   12.6738  -25.6000 C   0  0  0  0  0  0  0  0  0  0  0  0
  -16.5987   13.3591  -25.1541 C   0  0  0  0  0  0  0  0  0  0  0  0
  -16.4268   14.6577  -25.9268 C   0  0  0  0  0  0  0  0  0  0  0  0
  -17.1977   15.6113  -25.0165 C   0  0  0  0  0  0  0  0  0  0  0  0
  -16.6459   15.2154  -23.6641 C   0  0  0  0  0  0  0  0  0  0  0  0
  -16.6441   13.7514  -23.7664 N   0  0  0  0  0  0  0  0  0  0  0  0
 11 12  1  0  0  0
 12 13  1  0  0  0
 13 14  1  0  0  0
 14 15  1  0  0  0
 15 16  1  0  0  0
 16  1  1  0  0  0
  1  2  2  0  0  0
  2  3  1  0  0  0
  3  4  2  0  0  0
  4  5  1  0  0  0
  5  6  2  0  0  0
  6  7  1  0  0  0
  7  8  1  0  0  0
  8  9  2  0  0  0
 16 12  1  0  0  0
  9  1  1  0  0  0
  8  4  1  0  0  0
  7 10  1  0  0  0
M  END
> <minimizedAffinity>
-6.14240

> <CNNscore>
0.8296948075

> <CNNaffinity>
5.6537365913

> <CNN_VS>
4.6908760071

> <CNNaffinity_variance>
0.0161763523

$$$$
[H]c1nc2c([H])c([H])n([H])c2c([H])c1N1C([H])([H])C([H])([H])C([H])([H])[C@]1([H])C([H])([H])[H]


 16 18  0  0  0  0  0  0  0  0999 V2000
  -17.1498   13.4095  -22.4601 C   0  0  0  0  0  0  0  0  0  0  0  0
  -18.0585   13.9974  -21.5853 C   0  0  0  0  0  0  0  0  0  0  0  0
  -18.4160   13.4071  -20.4308 N   0  0  0  0  0  0  0  0  0  0  0  0
  -17.8985   12.2135  -20.0820 C   0  0  0  0  0  0  0  0  0  0  0  0
  -18.1051   11.4119  -18.9603 C   0  0  0  0  0  0  0  0  0  0  0  0
  -17.3116   10.3124  -19.1463 C   0  0  0  0  0  0  0  0  0  0  0  0
  -16.6521   10.4367  -20.3245 N   0  0  0  0  0  0  0  0  0  0  0  0
  -16.9966   11.6012  -20.9216 C   0  0  0  0  0  0  0  0  0  0  0  0
  -16.6046   12.1885  -22.1284 C   0  0  0  0  0  0  0  0  0  0  0  0
  -15.9778    9.7515  -20.7282 H   0  0  0  0  0  0  0  0  0  0  0  0
  -17.8864   12.8321  -25.4766 C   0  0  0  0  0  0  0  0  0  0  0  0
  -16.6166   13.4051  -24.9382 C   0  0  0  0  0  0  0  0  0  0  0  0
  -16.1106   14.4908  -25.8753 C   0  0  0  0  0  0  0  0  0  0  0  0
  -16.8307   15.7032  -25.2889 C   0  0  0  0  0  0  0  0  0  0  0  0
  -16.5615   15.5027  -23.8132 C   0  0  0  0  0  0  0  0  0  0  0  0
  -16.7978   14.0617  -23.6663 N   0  0  0  0  0  0  0  0  0  0  0  0
 11 12  1  0  0  0
 12 13  1  0  0  0
 13 14  1  0  0  0
 14 15  1  0  0  0
 15 16  1  0  0  0
 16  1  1  0  0  0
  1  2  2  0  0  0
  2  3  1  0  0  0
  3  4  2  0  0  0
  4  5  1  0  0  0
  5  6  2  0  0  0
  6  7  1  0  0  0
  7  8  1  0  0  0
  8  9  2  0  0  0
 16 12  1  0  0  0
  9  1  1  0  0  0
  8  4  1  0  0  0
  7 10  1  0  0  0
M  END
> <minimizedAffinity>
-6.04133

> <CNNscore>
0.6385681629

> <CNNaffinity>
5.4592623711

> <CNN_VS>
3.4861111641

> <CNNaffinity_variance>
0.0410132669

$$$$
[H]c1nc2c([H])c([H])n([H])c2c([H])c1N1C([H])([H])C([H])([H])C([H])([H])[C@]1([H])C([H])([H])[H]


 16 18  0  0  0  0  0  0  0  0999 V2000
  -18.1781   12.4375  -19.2520 C   0  0  0  0  0  0  0  0  0  0  0  0
  -17.2549   11.4114  -19.4298 C   0  0  0  0  0  0  0  0  0  0  0  0
  -17.3296   10.2613  -18.7364 N   0  0  0  0  0  0  0  0  0  0  0  0
  -18.3130   10.0656  -17.8371 C   0  0  0  0  0  0  0  0  0  0  0  0
  -18.6016    8.9824  -17.0083 C   0  0  0  0  0  0  0  0  0  0  0  0
  -19.7200    9.3460  -16.3084 C   0  0  0  0  0  0  0  0  0  0  0  0
  -20.0963   10.5912  -16.6914 N   0  0  0  0  0  0  0  0  0  0  0  0
  -19.2446   11.0576  -17.6338 C   0  0  0  0  0  0  0  0  0  0  0  0
  -19.1947   12.2642  -18.3385 C   0  0  0  0  0  0  0  0  0  0  0  0
  -20.9141   11.1265  -16.3281 H   0  0  0  0  0  0  0  0  0  0  0  0
  -17.5687   12.9807  -22.3030 C   0  0  0  0  0  0  0  0  0  0  0  0
  -17.1884   13.8231  -21.1297 C   0  0  0  0  0  0  0  0  0  0  0  0
  -17.3235   15.2935  -21.4938 C   0  0  0  0  0  0  0  0  0  0  0  0
  -18.7824   15.5287  -21.1080 C   0  0  0  0  0  0  0  0  0  0  0  0
  -18.8232   14.8657  -19.7482 C   0  0  0  0  0  0  0  0  0  0  0  0
  -18.0668   13.6337  -20.0009 N   0  0  0  0  0  0  0  0  0  0  0  0
 11 12  1  0  0  0
 12 13  1  0  0  0
 13 14  1  0  0  0
 14 15  1  0  0  0
 15 16  1  0  0  0
 16  1  1  0  0  0
  1  2  2  0  0  0
  2  3  1  0  0  0
  3  4  2  0  0  0
  4  5  1  0  0  0
  5  6  2  0  0  0
  6  7  1  0  0  0
  7  8  1  0  0  0
  8  9  2  0  0  0
 16 12  1  0  0  0
  9  1  1  0  0  0
  8  4  1  0  0  0
  7 10  1  0  0  0
M  END
> <minimizedAffinity>
-5.72299

> <CNNscore>
0.6264783144

> <CNNaffinity>
5.1841301918

> <CNN_VS>
3.2477450371

> <CNNaffinity_variance>
0.0331754014

$$$$
[H]c1nc2c([H])c([H])n([H])c2c([H])c1N1C([H])([H])C([H])([H])C([H])([H])[C@]1([H])C([H])([H])[H]


 16 18  0  0  0  0  0  0  0  0999 V2000
  -17.1222   13.5527  -22.5757 C   0  0  0  0  0  0  0  0  0  0  0  0
  -17.5443   14.3238  -21.4969 C   0  0  0  0  0  0  0  0  0  0  0  0
  -17.7202   13.7956  -20.2725 N   0  0  0  0  0  0  0  0  0  0  0  0
  -17.4901   12.4871  -20.0508 C   0  0  0  0  0  0  0  0  0  0  0  0
  -17.5974   11.7156  -18.8946 C   0  0  0  0  0  0  0  0  0  0  0  0
  -17.2359   10.4491  -19.2661 C   0  0  0  0  0  0  0  0  0  0  0  0
  -16.9229   10.4471  -20.5855 N   0  0  0  0  0  0  0  0  0  0  0  0
  -17.0715   11.6926  -21.0933 C   0  0  0  0  0  0  0  0  0  0  0  0
  -16.8794   12.2111  -22.3774 C   0  0  0  0  0  0  0  0  0  0  0  0
  -16.6127    9.6229  -21.1437 H   0  0  0  0  0  0  0  0  0  0  0  0
  -14.5487   14.5166  -24.1323 C   0  0  0  0  0  0  0  0  0  0  0  0
  -15.9215   15.1027  -24.1823 C   0  0  0  0  0  0  0  0  0  0  0  0
  -16.2359   15.5420  -25.6039 C   0  0  0  0  0  0  0  0  0  0  0  0
  -16.8375   14.2502  -26.1531 C   0  0  0  0  0  0  0  0  0  0  0  0
  -17.7805   13.8798  -25.0289 C   0  0  0  0  0  0  0  0  0  0  0  0
  -16.9479   14.1448  -23.8498 N   0  0  0  0  0  0  0  0  0  0  0  0
 11 12  1  0  0  0
 12 13  1  0  0  0
 13 14  1  0  0  0
 14 15  1  0  0  0
 15 16  1  0  0  0
 16  1  1  0  0  0
  1  2  2  0  0  0
  2  3  1  0  0  0
  3  4  2  0  0  0
  4  5  1  0  0  0
  5  6  2  0  0  0
  6  7  1  0  0  0
  7  8  1  0  0  0
  8  9  2  0  0  0
 16 12  1  0  0  0
  9  1  1  0  0  0
  8  4  1  0  0  0
  7 10  1  0  0  0
M  END
> <minimizedAffinity>
-6.38064

> <CNNscore>
0.5506969094

> <CNNaffinity>
5.6139593124

> <CNN_VS>
3.0915899277

> <CNNaffinity_variance>
0.0798411071

$$$$
[H]c1nc2c([H])c([H])n([H])c2c([H])c1N1C([H])([H])C([H])([H])C([H])([H])[C@]1([H])C([H])([H])[H]


 16 18  0  0  0  0  0  0  0  0999 V2000
  -17.6254   12.7457  -20.8915 C   0  0  0  0  0  0  0  0  0  0  0  0
  -18.7420   13.2963  -20.2697 C   0  0  0  0  0  0  0  0  0  0  0  0
  -19.3060   12.7267  -19.1896 N   0  0  0  0  0  0  0  0  0  0  0  0
  -18.8005   11.5912  -18.6706 C   0  0  0  0  0  0  0  0  0  0  0  0
  -19.1965   10.8213  -17.5780 C   0  0  0  0  0  0  0  0  0  0  0  0
  -18.3105    9.7796  -17.5252 C   0  0  0  0  0  0  0  0  0  0  0  0
  -17.4165    9.9073  -18.5367 N   0  0  0  0  0  0  0  0  0  0  0  0
  -17.6967   11.0171  -19.2583 C   0  0  0  0  0  0  0  0  0  0  0  0
  -17.0874   11.5843  -20.3817 C   0  0  0  0  0  0  0  0  0  0  0  0
  -16.6256    9.2604  -18.7451 H   0  0  0  0  0  0  0  0  0  0  0  0
  -16.4708   15.6490  -21.3523 C   0  0  0  0  0  0  0  0  0  0  0  0
  -17.1780   14.7783  -22.3384 C   0  0  0  0  0  0  0  0  0  0  0  0
  -16.5358   14.9349  -23.7080 C   0  0  0  0  0  0  0  0  0  0  0  0
  -15.4608   13.8535  -23.6214 C   0  0  0  0  0  0  0  0  0  0  0  0
  -16.2666   12.7012  -23.0619 C   0  0  0  0  0  0  0  0  0  0  0  0
  -17.0594   13.3746  -22.0266 N   0  0  0  0  0  0  0  0  0  0  0  0
 11 12  1  0  0  0
 12 13  1  0  0  0
 13 14  1  0  0  0
 14 15  1  0  0  0
 15 16  1  0  0  0
 16  1  1  0  0  0
  1  2  2  0  0  0
  2  3  1  0  0  0
  3  4  2  0  0  0
  4  5  1  0  0  0
  5  6  2  0  0  0
  6  7  1  0  0  0
  7  8  1  0  0  0
  8  9  2  0  0  0
 16 12  1  0  0  0
  9  1  1  0  0  0
  8  4  1  0  0  0
  7 10  1  0  0  0
M  END
> <minimizedAffinity>
-6.08932

> <CNNscore>
0.5392205119

> <CNNaffinity>
5.2523169518

> <CNN_VS>
2.8321571350

> <CNNaffinity_variance>
0.0267846193

$$$$
[H]c1nc2c([H])c([H])n([H])c2c([H])c1N1C([H])([H])C([H])([H])C([H])([H])[C@]1([H])C([H])([H])[H]


 16 18  0  0  0  0  0  0  0  0999 V2000
  -19.7498   10.3889  -16.7606 C   0  0  0  0  0  0  0  0  0  0  0  0
  -19.8502   11.7223  -17.1460 C   0  0  0  0  0  0  0  0  0  0  0  0
  -19.0298   12.2587  -18.0672 N   0  0  0  0  0  0  0  0  0  0  0  0
  -18.0739   11.5114  -18.6520 C   0  0  0  0  0  0  0  0  0  0  0  0
  -17.1177   11.8280  -19.6159 C   0  0  0  0  0  0  0  0  0  0  0  0
  -16.4167   10.6720  -19.8281 C   0  0  0  0  0  0  0  0  0  0  0  0
  -16.9205    9.6964  -19.0324 N   0  0  0  0  0  0  0  0  0  0  0  0
  -17.9440   10.1885  -18.2966 C   0  0  0  0  0  0  0  0  0  0  0  0
  -18.7808    9.6013  -17.3427 C   0  0  0  0  0  0  0  0  0  0  0  0
  -16.5854    8.7104  -18.9795 H   0  0  0  0  0  0  0  0  0  0  0  0
  -19.3701    9.7093  -13.6997 C   0  0  0  0  0  0  0  0  0  0  0  0
  -20.2384    9.0078  -14.6920 C   0  0  0  0  0  0  0  0  0  0  0  0
  -21.5411    8.5938  -14.0254 C   0  0  0  0  0  0  0  0  0  0  0  0
  -22.3770    9.8470  -14.2768 C   0  0  0  0  0  0  0  0  0  0  0  0
  -22.0800   10.0933  -15.7401 C   0  0  0  0  0  0  0  0  0  0  0  0
  -20.6318    9.8601  -15.7877 N   0  0  0  0  0  0  0  0  0  0  0  0
 11 12  1  0  0  0
 12 13  1  0  0  0
 13 14  1  0  0  0
 14 15  1  0  0  0
 15 16  1  0  0  0
 16  1  1  0  0  0
  1  2  2  0  0  0
  2  3  1  0  0  0
  3  4  2  0  0  0
  4  5  1  0  0  0
  5  6  2  0  0  0
  6  7  1  0  0  0
  7  8  1  0  0  0
  8  9  2  0  0  0
 16 12  1  0  0  0
  9  1  1  0  0  0
  8  4  1  0  0  0
  7 10  1  0  0  0
M  END
> <minimizedAffinity>
-5.37152

> <CNNscore>
0.4732717574

> <CNNaffinity>
4.6979990005

> <CNN_VS>
2.2234301567

> <CNNaffinity_variance>
0.0514180772

$$$$
[H]c1nc2c([H])c([H])n([H])c2c([H])c1N1C([H])([H])C([H])([H])C([H])([H])[C@]1([H])C([H])([H])[H]


 16 18  0  0  0  0  0  0  0  0999 V2000
  -17.3201   13.7296  -23.9775 C   0  0  0  0  0  0  0  0  0  0  0  0
  -17.6638   12.7897  -24.9446 C   0  0  0  0  0  0  0  0  0  0  0  0
  -17.3959   12.9825  -26.2485 N   0  0  0  0  0  0  0  0  0  0  0  0
  -16.7789   14.1058  -26.6629 C   0  0  0  0  0  0  0  0  0  0  0  0
  -16.3982   14.5326  -27.9343 C   0  0  0  0  0  0  0  0  0  0  0  0
  -15.8107   15.7546  -27.7484 C   0  0  0  0  0  0  0  0  0  0  0  0
  -15.8315   16.0593  -26.4273 N   0  0  0  0  0  0  0  0  0  0  0  0
  -16.4236   15.0583  -25.7356 C   0  0  0  0  0  0  0  0  0  0  0  0
  -16.6880   14.8879  -24.3733 C   0  0  0  0  0  0  0  0  0  0  0  0
  -15.4544   16.9272  -25.9894 H   0  0  0  0  0  0  0  0  0  0  0  0
  -16.1214   11.7092  -21.8665 C   0  0  0  0  0  0  0  0  0  0  0  0
  -17.5260   12.2078  -21.9608 C   0  0  0  0  0  0  0  0  0  0  0  0
  -18.0803   12.4351  -20.5629 C   0  0  0  0  0  0  0  0  0  0  0  0
  -17.6496   13.8833  -20.3397 C   0  0  0  0  0  0  0  0  0  0  0  0
  -18.0675   14.5059  -21.6542 C   0  0  0  0  0  0  0  0  0  0  0  0
  -17.6183   13.4908  -22.6143 N   0  0  0  0  0  0  0  0  0  0  0  0
 11 12  1  0  0  0
 12 13  1  0  0  0
 13 14  1  0  0  0
 14 15  1  0  0  0
 15 16  1  0  0  0
 16  1  1  0  0  0
  1  2  2  0  0  0
  2  3  1  0  0  0
  3  4  2  0  0  0
  4  5  1  0  0  0
  5  6  2  0  0  0
  6  7  1  0  0  0
  7  8  1  0  0  0
  8  9  2  0  0  0
 16 12  1  0  0  0
  9  1  1  0  0  0
  8  4  1  0  0  0
  7 10  1  0  0  0
M  END
> <minimizedAffinity>
-6.07659

> <CNNscore>
0.4692733586

> <CNNaffinity>
5.5035476685

> <CNN_VS>
2.5826683044

> <CNNaffinity_variance>
0.2102292478

$$$$
[H]c1nc2c([H])c([H])n([H])c2c([H])c1N1C([H])([H])C([H])([H])C([H])([H])[C@]1([H])C([H])([H])[H]


 16 18  0  0  0  0  0  0  0  0999 V2000
  -17.1832   13.5258  -22.4830 C   0  0  0  0  0  0  0  0  0  0  0  0
  -16.8917   12.1777  -22.2982 C   0  0  0  0  0  0  0  0  0  0  0  0
  -17.0739   11.5679  -21.1132 N   0  0  0  0  0  0  0  0  0  0  0  0
  -17.5502   12.2530  -20.0558 C   0  0  0  0  0  0  0  0  0  0  0  0
  -17.8219   11.8560  -18.7473 C   0  0  0  0  0  0  0  0  0  0  0  0
  -18.2882   12.9768  -18.1153 C   0  0  0  0  0  0  0  0  0  0  0  0
  -18.3006   14.0084  -18.9953 N   0  0  0  0  0  0  0  0  0  0  0  0
  -17.8500   13.5881  -20.2000 C   0  0  0  0  0  0  0  0  0  0  0  0
  -17.6718   14.2508  -21.4182 C   0  0  0  0  0  0  0  0  0  0  0  0
  -18.6069   14.9849  -18.7954 H   0  0  0  0  0  0  0  0  0  0  0  0
  -14.5698   14.4746  -23.9813 C   0  0  0  0  0  0  0  0  0  0  0  0
  -15.9334   15.0805  -24.0470 C   0  0  0  0  0  0  0  0  0  0  0  0
  -16.2168   15.5432  -25.4677 C   0  0  0  0  0  0  0  0  0  0  0  0
  -16.8263   14.2674  -26.0450 C   0  0  0  0  0  0  0  0  0  0  0  0
  -17.7939   13.8951  -24.9425 C   0  0  0  0  0  0  0  0  0  0  0  0
  -16.9785   14.1325  -23.7456 N   0  0  0  0  0  0  0  0  0  0  0  0
 11 12  1  0  0  0
 12 13  1  0  0  0
 13 14  1  0  0  0
 14 15  1  0  0  0
 15 16  1  0  0  0
 16  1  1  0  0  0
  1  2  2  0  0  0
  2  3  1  0  0  0
  3  4  2  0  0  0
  4  5  1  0  0  0
  5  6  2  0  0  0
  6  7  1  0  0  0
  7  8  1  0  0  0
  8  9  2  0  0  0
 16 12  1  0  0  0
  9  1  1  0  0  0
  8  4  1  0  0  0
  7 10  1  0  0  0
M  END
> <minimizedAffinity>
-6.11663

> <CNNscore>
0.4545702934

> <CNNaffinity>
5.4367995262

> <CNN_VS>
2.4714076519

> <CNNaffinity_variance>
0.0896451622

$$$$
[H]OC1=C(OC([H])([H])C([H])([H])N2C([H])([H])C([H])([H])C([H])([H])C2([H])[H])C([H])=C([H])C([H])=NC(c2c([H])nc3c(c2[H])c(N=C([H])N2C([H])([H])C([H])([H])N(C([H])([H])[H])C([H])([H])C2([H])[H])c([H])n3[H])=C1C([H])([H])C([H])([H])O[H]


 41 45  0  0  0  0  0  0  0  0999 V2000
  -19.1730   11.2237  -17.4581 C   0  0  0  0  0  0  0  0  0  0  0  0
  -19.6764   12.4194  -17.2156 C   0  0  0  0  0  0  0  0  0  0  0  0
  -20.6579   12.8830  -16.1905 C   0  0  0  0  0  0  0  0  0  0  0  0
  -20.5681   14.2059  -15.8667 O   0  0  0  0  0  0  0  0  0  0  0  0
  -21.6325   12.2598  -15.5063 C   0  0  0  0  0  0  0  0  0  0  0  0
  -22.1286   10.8748  -15.4887 C   0  0  0  0  0  0  0  0  0  0  0  0
  -21.6222    9.6684  -15.7443 C   0  0  0  0  0  0  0  0  0  0  0  0
  -20.2515    9.3163  -16.1717 C   0  0  0  0  0  0  0  0  0  0  0  0
  -19.3232    9.9176  -16.8261 N   0  0  0  0  0  0  0  0  0  0  0  0
  -20.6377   14.4534  -14.8845 H   0  0  0  0  0  0  0  0  0  0  0  0
  -17.2375   12.7974  -21.8041 C   0  0  0  0  0  0  0  0  0  0  0  0
  -16.2203   12.2349  -22.5382 C   0  0  0  0  0  0  0  0  0  0  0  0
  -15.8020   11.1431  -21.8723 N   0  0  0  0  0  0  0  0  0  0  0  0
  -16.5196   10.9965  -20.7436 C   0  0  0  0  0  0  0  0  0  0  0  0
  -16.5273   10.0974  -19.7358 N   0  0  0  0  0  0  0  0  0  0  0  0
  -17.3607   10.1520  -18.6881 C   0  0  0  0  0  0  0  0  0  0  0  0
  -18.2784   11.1643  -18.5891 C   0  0  0  0  0  0  0  0  0  0  0  0
  -18.3075   12.1061  -19.5965 C   0  0  0  0  0  0  0  0  0  0  0  0
  -17.4408   12.0135  -20.6483 C   0  0  0  0  0  0  0  0  0  0  0  0
  -15.0315   10.5204  -22.2047 H   0  0  0  0  0  0  0  0  0  0  0  0
  -18.0582   14.7313  -23.0231 C   0  0  0  0  0  0  0  0  0  0  0  0
  -18.0025   13.9239  -22.0700 N   0  0  0  0  0  0  0  0  0  0  0  0
  -15.4822   15.5143  -27.8023 C   0  0  0  0  0  0  0  0  0  0  0  0
  -16.5255   15.4792  -26.7978 N   0  0  0  0  0  0  0  0  0  0  0  0
  -16.8069   14.0879  -26.4944 C   0  0  0  0  0  0  0  0  0  0  0  0
  -17.7642   13.9271  -25.3334 C   0  0  0  0  0  0  0  0  0  0  0  0
  -17.2764   14.7062  -24.2000 N   0  0  0  0  0  0  0  0  0  0  0  0
  -16.0230   15.4065  -24.3820 C   0  0  0  0  0  0  0  0  0  0  0  0
  -16.2022   16.2590  -25.6349 C   0  0  0  0  0  0  0  0  0  0  0  0
  -19.2615   13.4667  -18.1105 C   0  0  0  0  0  0  0  0  0  0  0  0
  -20.2034   14.5574  -18.4802 C   0  0  0  0  0  0  0  0  0  0  0  0
  -21.3682   13.9729  -19.0847 O   0  0  0  0  0  0  0  0  0  0  0  0
  -21.3799   13.0116  -18.9028 H   0  0  0  0  0  0  0  0  0  0  0  0
  -22.2966   13.1052  -14.6488 O   0  0  0  0  0  0  0  0  0  0  0  0
  -22.2672   12.9751  -13.2647 C   0  0  0  0  0  0  0  0  0  0  0  0
  -23.4377   12.2039  -12.7191 C   0  0  0  0  0  0  0  0  0  0  0  0
  -23.0639   11.1014  -11.8792 N   0  0  0  0  0  0  0  0  0  0  0  0
  -21.6230   10.9464  -11.8580 C   0  0  0  0  0  0  0  0  0  0  0  0
  -21.3548    9.4630  -11.8566 C   0  0  0  0  0  0  0  0  0  0  0  0
  -22.7019    8.8193  -11.7896 C   0  0  0  0  0  0  0  0  0  0  0  0
  -23.6261    9.8570  -12.3440 C   0  0  0  0  0  0  0  0  0  0  0  0
 23 24  1  0  0  0
 24 25  1  0  0  0
 25 26  1  0  0  0
 26 27  1  0  0  0
 27 28  1  0  0  0
 28 29  1  0  0  0
 27 21  1  0  0  0
 21 22  2  0  0  0
 22 11  1  0  0  0
 11 12  2  0  0  0
 12 13  1  0  0  0
 13 14  1  0  0  0
 14 15  2  0  0  0
 15 16  1  0  0  0
 16 17  2  0  0  0
 17 18  1  0  0  0
 18 19  2  0  0  0
 17  1  1  0  0  0
  1  2  2  0  0  0
  2 30  1  0  0  0
 30 31  1  0  0  0
 31 32  1  0  0  0
  2  3  1  0  0  0
  3  4  1  0  0  0
  3  5  2  0  0  0
  5 34  1  0  0  0
 34 35  1  0  0  0
 35 36  1  0  0  0
 36 37  1  0  0  0
 37 38  1  0  0  0
 38 39  1  0  0  0
 39 40  1  0  0  0
 40 41  1  0  0  0
  5  6  1  0  0  0
  6  7  2  0  0  0
  7  8  1  0  0  0
  8  9  2  0  0  0
 29 24  1  0  0  0
 19 11  1  0  0  0
  9  1  1  0  0  0
 19 14  1  0  0  0
 41 37  1  0  0  0
 13 20  1  0  0  0
 32 33  1  0  0  0
  4 10  1  0  0  0
M  END
> <minimizedAffinity>
-7.88231

> <CNNscore>
0.7287102938

> <CNNaffinity>
7.3330588341

> <CNN_VS>
5.3436756134

> <CNNaffinity_variance>
0.1151888743

$$$$
[H]OC1=C(OC([H])([H])C([H])([H])N2C([H])([H])C([H])([H])C([H])([H])C2([H])[H])C([H])=C([H])C([H])=NC(c2c([H])nc3c(c2[H])c(N=C([H])N2C([H])([H])C([H])([H])N(C([H])([H])[H])C([H])([H])C2([H])[H])c([H])n3[H])=C1C([H])([H])C([H])([H])O[H]


 41 45  0  0  0  0  0  0  0  0999 V2000
  -19.3705   11.3234  -17.2645 C   0  0  0  0  0  0  0  0  0  0  0  0
  -19.8793   12.5064  -16.9755 C   0  0  0  0  0  0  0  0  0  0  0  0
  -20.8313   12.9324  -15.9072 C   0  0  0  0  0  0  0  0  0  0  0  0
  -20.7460   14.2480  -15.5535 O   0  0  0  0  0  0  0  0  0  0  0  0
  -21.7753   12.2806  -15.2071 C   0  0  0  0  0  0  0  0  0  0  0  0
  -22.2546   10.8896  -15.2078 C   0  0  0  0  0  0  0  0  0  0  0  0
  -21.7432    9.6962  -15.5103 C   0  0  0  0  0  0  0  0  0  0  0  0
  -20.3835    9.3717  -15.9914 C   0  0  0  0  0  0  0  0  0  0  0  0
  -19.4845   10.0003  -16.6609 N   0  0  0  0  0  0  0  0  0  0  0  0
  -20.7856   14.4702  -14.5636 H   0  0  0  0  0  0  0  0  0  0  0  0
  -17.6668   12.9699  -21.6800 C   0  0  0  0  0  0  0  0  0  0  0  0
  -16.6487   12.4550  -22.4471 C   0  0  0  0  0  0  0  0  0  0  0  0
  -16.1537   11.3888  -21.7925 N   0  0  0  0  0  0  0  0  0  0  0  0
  -16.8237   11.2123  -20.6392 C   0  0  0  0  0  0  0  0  0  0  0  0
  -16.7519   10.3189  -19.6287 N   0  0  0  0  0  0  0  0  0  0  0  0
  -17.5504   10.3372  -18.5530 C   0  0  0  0  0  0  0  0  0  0  0  0
  -18.5136   11.3030  -18.4256 C   0  0  0  0  0  0  0  0  0  0  0  0
  -18.6243   12.2372  -19.4345 C   0  0  0  0  0  0  0  0  0  0  0  0
  -17.7908   12.1826  -20.5153 C   0  0  0  0  0  0  0  0  0  0  0  0
  -15.3649   10.8036  -22.1493 H   0  0  0  0  0  0  0  0  0  0  0  0
  -18.4322   15.0438  -22.6863 C   0  0  0  0  0  0  0  0  0  0  0  0
  -18.4959   14.0555  -21.9230 N   0  0  0  0  0  0  0  0  0  0  0  0
  -14.1069   15.2569  -26.0530 C   0  0  0  0  0  0  0  0  0  0  0  0
  -14.9358   14.9507  -24.9051 N   0  0  0  0  0  0  0  0  0  0  0  0
  -15.2077   16.1935  -24.2062 C   0  0  0  0  0  0  0  0  0  0  0  0
  -16.2062   16.0229  -23.0818 C   0  0  0  0  0  0  0  0  0  0  0  0
  -17.3927   15.3458  -23.5947 N   0  0  0  0  0  0  0  0  0  0  0  0
  -17.4012   15.0254  -25.0060 C   0  0  0  0  0  0  0  0  0  0  0  0
  -16.1257   14.2263  -25.2577 C   0  0  0  0  0  0  0  0  0  0  0  0
  -19.5066   13.5806  -17.8571 C   0  0  0  0  0  0  0  0  0  0  0  0
  -18.5809   14.6486  -17.3925 C   0  0  0  0  0  0  0  0  0  0  0  0
  -19.2285   15.9205  -17.5556 O   0  0  0  0  0  0  0  0  0  0  0  0
  -20.1854   15.7802  -17.7046 H   0  0  0  0  0  0  0  0  0  0  0  0
  -22.4201   13.0963  -14.3071 O   0  0  0  0  0  0  0  0  0  0  0  0
  -23.8019   13.1340  -14.1564 C   0  0  0  0  0  0  0  0  0  0  0  0
  -24.4063   14.4458  -14.5762 C   0  0  0  0  0  0  0  0  0  0  0  0
  -23.4407   15.4161  -15.0087 N   0  0  0  0  0  0  0  0  0  0  0  0
  -23.3834   16.5243  -14.0763 C   0  0  0  0  0  0  0  0  0  0  0  0
  -23.2084   17.7702  -14.9068 C   0  0  0  0  0  0  0  0  0  0  0  0
  -23.0853   17.2897  -16.3165 C   0  0  0  0  0  0  0  0  0  0  0  0
  -23.7669   15.9579  -16.3052 C   0  0  0  0  0  0  0  0  0  0  0  0
 23 24  1  0  0  0
 24 25  1  0  0  0
 25 26  1  0  0  0
 26 27  1  0  0  0
 27 28  1  0  0  0
 28 29  1  0  0  0
 27 21  1  0  0  0
 21 22  2  0  0  0
 22 11  1  0  0  0
 11 12  2  0  0  0
 12 13  1  0  0  0
 13 14  1  0  0  0
 14 15  2  0  0  0
 15 16  1  0  0  0
 16 17  2  0  0  0
 17 18  1  0  0  0
 18 19  2  0  0  0
 17  1  1  0  0  0
  1  2  2  0  0  0
  2 30  1  0  0  0
 30 31  1  0  0  0
 31 32  1  0  0  0
  2  3  1  0  0  0
  3  4  1  0  0  0
  3  5  2  0  0  0
  5 34  1  0  0  0
 34 35  1  0  0  0
 35 36  1  0  0  0
 36 37  1  0  0  0
 37 38  1  0  0  0
 38 39  1  0  0  0
 39 40  1  0  0  0
 40 41  1  0  0  0
  5  6  1  0  0  0
  6  7  2  0  0  0
  7  8  1  0  0  0
  8  9  2  0  0  0
 29 24  1  0  0  0
 19 11  1  0  0  0
  9  1  1  0  0  0
 19 14  1  0  0  0
 41 37  1  0  0  0
 13 20  1  0  0  0
 32 33  1  0  0  0
  4 10  1  0  0  0
M  END
> <minimizedAffinity>
-7.73489

> <CNNscore>
0.6337648630

> <CNNaffinity>
7.3457794189

> <CNN_VS>
4.6554970741

> <CNNaffinity_variance>
0.1531266868

$$$$
[H]OC1=C(OC([H])([H])C([H])([H])N2C([H])([H])C([H])([H])C([H])([H])C2([H])[H])C([H])=C([H])C([H])=NC(c2c([H])nc3c(c2[H])c(N=C([H])N2C([H])([H])C([H])([H])N(C([H])([H])[H])C([H])([H])C2([H])[H])c([H])n3[H])=C1C([H])([H])C([H])([H])O[H]


 41 45  0  0  0  0  0  0  0  0999 V2000
  -18.5637   14.1051  -20.8394 C   0  0  0  0  0  0  0  0  0  0  0  0
  -18.9419   15.1554  -20.1353 C   0  0  0  0  0  0  0  0  0  0  0  0
  -19.2623   16.5533  -20.5505 C   0  0  0  0  0  0  0  0  0  0  0  0
  -20.1006   17.2245  -19.7081 O   0  0  0  0  0  0  0  0  0  0  0  0
  -18.8902   17.3063  -21.5997 C   0  0  0  0  0  0  0  0  0  0  0  0
  -18.0193   17.0631  -22.7604 C   0  0  0  0  0  0  0  0  0  0  0  0
  -17.6294   16.0003  -23.4643 C   0  0  0  0  0  0  0  0  0  0  0  0
  -17.9960   14.5814  -23.2699 C   0  0  0  0  0  0  0  0  0  0  0  0
  -18.3519   13.8667  -22.2629 N   0  0  0  0  0  0  0  0  0  0  0  0
  -20.8382   17.7820  -20.1276 H   0  0  0  0  0  0  0  0  0  0  0  0
  -19.5403   10.6430  -17.3508 C   0  0  0  0  0  0  0  0  0  0  0  0
  -18.7756    9.5603  -16.9861 C   0  0  0  0  0  0  0  0  0  0  0  0
  -17.6703    9.5738  -17.7532 N   0  0  0  0  0  0  0  0  0  0  0  0
  -17.7102   10.6272  -18.5893 C   0  0  0  0  0  0  0  0  0  0  0  0
  -16.8849   11.1128  -19.5418 N   0  0  0  0  0  0  0  0  0  0  0  0
  -17.1374   12.2130  -20.2635 C   0  0  0  0  0  0  0  0  0  0  0  0
  -18.2915   12.9222  -20.0587 C   0  0  0  0  0  0  0  0  0  0  0  0
  -19.1650   12.4636  -19.0946 C   0  0  0  0  0  0  0  0  0  0  0  0
  -18.8694   11.3376  -18.3799 C   0  0  0  0  0  0  0  0  0  0  0  0
  -16.9105    8.8593  -17.6889 H   0  0  0  0  0  0  0  0  0  0  0  0
  -21.3029   11.0270  -15.7244 C   0  0  0  0  0  0  0  0  0  0  0  0
  -20.7604   11.0737  -16.8499 N   0  0  0  0  0  0  0  0  0  0  0  0
  -20.0766    9.1262  -10.7272 C   0  0  0  0  0  0  0  0  0  0  0  0
  -20.5846    9.9795  -11.7818 N   0  0  0  0  0  0  0  0  0  0  0  0
  -19.4485   10.5133  -12.5108 C   0  0  0  0  0  0  0  0  0  0  0  0
  -19.8598   11.2874  -13.7445 C   0  0  0  0  0  0  0  0  0  0  0  0
  -20.7606   10.4658  -14.5463 N   0  0  0  0  0  0  0  0  0  0  0  0
  -21.0362    9.1322  -14.0561 C   0  0  0  0  0  0  0  0  0  0  0  0
  -21.5367    9.3113  -12.6256 C   0  0  0  0  0  0  0  0  0  0  0  0
  -19.0196   14.9601  -18.7120 C   0  0  0  0  0  0  0  0  0  0  0  0
  -18.1020   15.6953  -17.8005 C   0  0  0  0  0  0  0  0  0  0  0  0
  -18.8556   16.7000  -17.1029 O   0  0  0  0  0  0  0  0  0  0  0  0
  -19.8115   16.5178  -17.2058 H   0  0  0  0  0  0  0  0  0  0  0  0
  -19.4458   18.5638  -21.5681 O   0  0  0  0  0  0  0  0  0  0  0  0
  -18.6966   19.7350  -21.5452 C   0  0  0  0  0  0  0  0  0  0  0  0
  -19.2219   20.7531  -20.5705 C   0  0  0  0  0  0  0  0  0  0  0  0
  -19.9255   20.1804  -19.4580 N   0  0  0  0  0  0  0  0  0  0  0  0
  -21.1231   20.9439  -19.1686 C   0  0  0  0  0  0  0  0  0  0  0  0
  -21.2497   20.9835  -17.6670 C   0  0  0  0  0  0  0  0  0  0  0  0
  -20.1268   20.1408  -17.1548 C   0  0  0  0  0  0  0  0  0  0  0  0
  -19.1203   20.1686  -18.2612 C   0  0  0  0  0  0  0  0  0  0  0  0
 23 24  1  0  0  0
 24 25  1  0  0  0
 25 26  1  0  0  0
 26 27  1  0  0  0
 27 28  1  0  0  0
 28 29  1  0  0  0
 27 21  1  0  0  0
 21 22  2  0  0  0
 22 11  1  0  0  0
 11 12  2  0  0  0
 12 13  1  0  0  0
 13 14  1  0  0  0
 14 15  2  0  0  0
 15 16  1  0  0  0
 16 17  2  0  0  0
 17 18  1  0  0  0
 18 19  2  0  0  0
 17  1  1  0  0  0
  1  2  2  0  0  0
  2 30  1  0  0  0
 30 31  1  0  0  0
 31 32  1  0  0  0
  2  3  1  0  0  0
  3  4  1  0  0  0
  3  5  2  0  0  0
  5 34  1  0  0  0
 34 35  1  0  0  0
 35 36  1  0  0  0
 36 37  1  0  0  0
 37 38  1  0  0  0
 38 39  1  0  0  0
 39 40  1  0  0  0
 40 41  1  0  0  0
  5  6  1  0  0  0
  6  7  2  0  0  0
  7  8  1  0  0  0
  8  9  2  0  0  0
 29 24  1  0  0  0
 19 11  1  0  0  0
  9  1  1  0  0  0
 19 14  1  0  0  0
 41 37  1  0  0  0
 13 20  1  0  0  0
 32 33  1  0  0  0
  4 10  1  0  0  0
M  END
> <minimizedAffinity>
-7.08742

> <CNNscore>
0.4553410411

> <CNNaffinity>
7.0007371902

> <CNN_VS>
3.1877229214

> <CNNaffinity_variance>
0.2541742623

$$$$
[H]OC1=C(OC([H])([H])C([H])([H])N2C([H])([H])C([H])([H])C([H])([H])C2([H])[H])C([H])=C([H])C([H])=NC(c2c([H])nc3c(c2[H])c(N=C([H])N2C([H])([H])C([H])([H])N(C([H])([H])[H])C([H])([H])C2([H])[H])c([H])n3[H])=C1C([H])([H])C([H])([H])O[H]


 41 45  0  0  0  0  0  0  0  0999 V2000
  -18.1492   13.3538  -20.1087 C   0  0  0  0  0  0  0  0  0  0  0  0
  -18.5808   14.4370  -19.4904 C   0  0  0  0  0  0  0  0  0  0  0  0
  -18.7034   15.8506  -19.9547 C   0  0  0  0  0  0  0  0  0  0  0  0
  -19.6411   16.5920  -19.2959 O   0  0  0  0  0  0  0  0  0  0  0  0
  -18.0709   16.5624  -20.9032 C   0  0  0  0  0  0  0  0  0  0  0  0
  -17.0047   16.2419  -21.8651 C   0  0  0  0  0  0  0  0  0  0  0  0
  -16.5625   15.1454  -22.4810 C   0  0  0  0  0  0  0  0  0  0  0  0
  -17.0678   13.7604  -22.3718 C   0  0  0  0  0  0  0  0  0  0  0  0
  -17.6730   13.0851  -21.4611 N   0  0  0  0  0  0  0  0  0  0  0  0
  -20.2342   17.1992  -19.8531 H   0  0  0  0  0  0  0  0  0  0  0  0
  -19.9926   10.1136  -16.7601 C   0  0  0  0  0  0  0  0  0  0  0  0
  -19.4247    8.9506  -16.2964 C   0  0  0  0  0  0  0  0  0  0  0  0
  -18.2388    8.8091  -16.9160 N   0  0  0  0  0  0  0  0  0  0  0  0
  -18.0379    9.8421  -17.7545 C   0  0  0  0  0  0  0  0  0  0  0  0
  -17.0437   10.2003  -18.5956 N   0  0  0  0  0  0  0  0  0  0  0  0
  -17.0605   11.3089  -19.3478 C   0  0  0  0  0  0  0  0  0  0  0  0
  -18.1311   12.1620  -19.2950 C   0  0  0  0  0  0  0  0  0  0  0  0
  -19.1707   11.8368  -18.4486 C   0  0  0  0  0  0  0  0  0  0  0  0
  -19.1139   10.6971  -17.6977 C   0  0  0  0  0  0  0  0  0  0  0  0
  -17.5906    8.0059  -16.7524 H   0  0  0  0  0  0  0  0  0  0  0  0
  -21.7956   10.9085  -15.3400 C   0  0  0  0  0  0  0  0  0  0  0  0
  -21.2011   10.7048  -16.4209 N   0  0  0  0  0  0  0  0  0  0  0  0
  -19.2216    9.2089  -10.8041 C   0  0  0  0  0  0  0  0  0  0  0  0
  -19.7068    9.2552  -12.1682 N   0  0  0  0  0  0  0  0  0  0  0  0
  -21.1473    9.0796  -12.1361 C   0  0  0  0  0  0  0  0  0  0  0  0
  -21.7886    9.2785  -13.4925 C   0  0  0  0  0  0  0  0  0  0  0  0
  -21.3472   10.5538  -14.0477 N   0  0  0  0  0  0  0  0  0  0  0  0
  -20.4668   11.3536  -13.2232 C   0  0  0  0  0  0  0  0  0  0  0  0
  -19.2957   10.4439  -12.8632 C   0  0  0  0  0  0  0  0  0  0  0  0
  -18.9590   14.2631  -18.1132 C   0  0  0  0  0  0  0  0  0  0  0  0
  -18.2803   15.0419  -17.0424 C   0  0  0  0  0  0  0  0  0  0  0  0
  -19.2748   15.7679  -16.3023 O   0  0  0  0  0  0  0  0  0  0  0  0
  -20.1607   15.4092  -16.5118 H   0  0  0  0  0  0  0  0  0  0  0  0
  -18.5241   17.8585  -20.9783 O   0  0  0  0  0  0  0  0  0  0  0  0
  -18.8483   18.4917  -22.1731 C   0  0  0  0  0  0  0  0  0  0  0  0
  -20.0642   17.9086  -22.8395 C   0  0  0  0  0  0  0  0  0  0  0  0
  -21.1077   18.8649  -23.0790 N   0  0  0  0  0  0  0  0  0  0  0  0
  -22.1842   18.2606  -23.8385 C   0  0  0  0  0  0  0  0  0  0  0  0
  -22.6633   19.3116  -24.8072 C   0  0  0  0  0  0  0  0  0  0  0  0
  -21.8672   20.5350  -24.4865 C   0  0  0  0  0  0  0  0  0  0  0  0
  -20.6333   20.0014  -23.8301 C   0  0  0  0  0  0  0  0  0  0  0  0
 23 24  1  0  0  0
 24 25  1  0  0  0
 25 26  1  0  0  0
 26 27  1  0  0  0
 27 28  1  0  0  0
 28 29  1  0  0  0
 27 21  1  0  0  0
 21 22  2  0  0  0
 22 11  1  0  0  0
 11 12  2  0  0  0
 12 13  1  0  0  0
 13 14  1  0  0  0
 14 15  2  0  0  0
 15 16  1  0  0  0
 16 17  2  0  0  0
 17 18  1  0  0  0
 18 19  2  0  0  0
 17  1  1  0  0  0
  1  2  2  0  0  0
  2 30  1  0  0  0
 30 31  1  0  0  0
 31 32  1  0  0  0
  2  3  1  0  0  0
  3  4  1  0  0  0
  3  5  2  0  0  0
  5 34  1  0  0  0
 34 35  1  0  0  0
 35 36  1  0  0  0
 36 37  1  0  0  0
 37 38  1  0  0  0
 38 39  1  0  0  0
 39 40  1  0  0  0
 40 41  1  0  0  0
  5  6  1  0  0  0
  6  7  2  0  0  0
  7  8  1  0  0  0
  8  9  2  0  0  0
 29 24  1  0  0  0
 19 11  1  0  0  0
  9  1  1  0  0  0
 19 14  1  0  0  0
 41 37  1  0  0  0
 13 20  1  0  0  0
 32 33  1  0  0  0
  4 10  1  0  0  0
M  END
> <minimizedAffinity>
-7.96961

> <CNNscore>
0.4516642690

> <CNNaffinity>
6.8260641098

> <CNN_VS>
3.0830893517

> <CNNaffinity_variance>
0.0884196162

$$$$
[H]OC1=C(OC([H])([H])C([H])([H])N2C([H])([H])C([H])([H])C([H])([H])C2([H])[H])C([H])=C([H])C([H])=NC(c2c([H])nc3c(c2[H])c(N=C([H])N2C([H])([H])C([H])([H])N(C([H])([H])[H])C([H])([H])C2([H])[H])c([H])n3[H])=C1C([H])([H])C([H])([H])O[H]


 41 45  0  0  0  0  0  0  0  0999 V2000
  -17.8623   11.3298  -18.5568 C   0  0  0  0  0  0  0  0  0  0  0  0
  -18.3233   12.4668  -18.0704 C   0  0  0  0  0  0  0  0  0  0  0  0
  -19.1596   12.7538  -16.8674 C   0  0  0  0  0  0  0  0  0  0  0  0
  -19.0213   14.0130  -16.3593 O   0  0  0  0  0  0  0  0  0  0  0  0
  -20.0394   12.0190  -16.1657 C   0  0  0  0  0  0  0  0  0  0  0  0
  -20.5362   10.6403  -16.2960 C   0  0  0  0  0  0  0  0  0  0  0  0
  -20.0739    9.4947  -16.7973 C   0  0  0  0  0  0  0  0  0  0  0  0
  -18.7729    9.2325  -17.4484 C   0  0  0  0  0  0  0  0  0  0  0  0
  -17.9352    9.9404  -18.1182 N   0  0  0  0  0  0  0  0  0  0  0  0
  -18.9603   14.1067  -15.3501 H   0  0  0  0  0  0  0  0  0  0  0  0
  -17.1062   12.9007  -23.2547 C   0  0  0  0  0  0  0  0  0  0  0  0
  -16.0220   12.6686  -24.0677 C   0  0  0  0  0  0  0  0  0  0  0  0
  -15.1502   11.9193  -23.3685 N   0  0  0  0  0  0  0  0  0  0  0  0
  -15.6459   11.6701  -22.1427 C   0  0  0  0  0  0  0  0  0  0  0  0
  -15.2082   10.9834  -21.0652 N   0  0  0  0  0  0  0  0  0  0  0  0
  -15.8963   10.8634  -19.9218 C   0  0  0  0  0  0  0  0  0  0  0  0
  -17.1239   11.4570  -19.7903 C   0  0  0  0  0  0  0  0  0  0  0  0
  -17.6121   12.1688  -20.8663 C   0  0  0  0  0  0  0  0  0  0  0  0
  -16.8790   12.2662  -22.0148 C   0  0  0  0  0  0  0  0  0  0  0  0
  -14.2313   11.5944  -23.7455 H   0  0  0  0  0  0  0  0  0  0  0  0
  -18.6380   14.7847  -23.3143 C   0  0  0  0  0  0  0  0  0  0  0  0
  -18.2723   13.6060  -23.5148 N   0  0  0  0  0  0  0  0  0  0  0  0
  -15.6828   18.1592  -20.1570 C   0  0  0  0  0  0  0  0  0  0  0  0
  -16.6854   17.2003  -20.5740 N   0  0  0  0  0  0  0  0  0  0  0  0
  -17.6052   17.8770  -21.4702 C   0  0  0  0  0  0  0  0  0  0  0  0
  -18.6014   16.9311  -22.1052 C   0  0  0  0  0  0  0  0  0  0  0  0
  -17.8824   15.8135  -22.7079 N   0  0  0  0  0  0  0  0  0  0  0  0
  -16.4380   15.8463  -22.6233 C   0  0  0  0  0  0  0  0  0  0  0  0
  -16.1130   16.0106  -21.1413 C   0  0  0  0  0  0  0  0  0  0  0  0
  -18.0239   13.6445  -18.8407 C   0  0  0  0  0  0  0  0  0  0  0  0
  -19.0921   14.6326  -19.1505 C   0  0  0  0  0  0  0  0  0  0  0  0
  -18.6846   15.9190  -18.6572 O   0  0  0  0  0  0  0  0  0  0  0  0
  -17.7281   15.8992  -18.4520 H   0  0  0  0  0  0  0  0  0  0  0  0
  -20.5810   12.7137  -15.1097 O   0  0  0  0  0  0  0  0  0  0  0  0
  -21.9456   12.9266  -14.9484 C   0  0  0  0  0  0  0  0  0  0  0  0
  -22.3011   14.3785  -14.7811 C   0  0  0  0  0  0  0  0  0  0  0  0
  -21.6404   15.2475  -15.7133 N   0  0  0  0  0  0  0  0  0  0  0  0
  -21.5802   16.5984  -15.1916 C   0  0  0  0  0  0  0  0  0  0  0  0
  -21.8136   17.5176  -16.3634 C   0  0  0  0  0  0  0  0  0  0  0  0
  -21.9156   16.6199  -17.5539 C   0  0  0  0  0  0  0  0  0  0  0  0
  -22.3307   15.3028  -16.9787 C   0  0  0  0  0  0  0  0  0  0  0  0
 23 24  1  0  0  0
 24 25  1  0  0  0
 25 26  1  0  0  0
 26 27  1  0  0  0
 27 28  1  0  0  0
 28 29  1  0  0  0
 27 21  1  0  0  0
 21 22  2  0  0  0
 22 11  1  0  0  0
 11 12  2  0  0  0
 12 13  1  0  0  0
 13 14  1  0  0  0
 14 15  2  0  0  0
 15 16  1  0  0  0
 16 17  2  0  0  0
 17 18  1  0  0  0
 18 19  2  0  0  0
 17  1  1  0  0  0
  1  2  2  0  0  0
  2 30  1  0  0  0
 30 31  1  0  0  0
 31 32  1  0  0  0
  2  3  1  0  0  0
  3  4  1  0  0  0
  3  5  2  0  0  0
  5 34  1  0  0  0
 34 35  1  0  0  0
 35 36  1  0  0  0
 36 37  1  0  0  0
 37 38  1  0  0  0
 38 39  1  0  0  0
 39 40  1  0  0  0
 40 41  1  0  0  0
  5  6  1  0  0  0
  6  7  2  0  0  0
  7  8  1  0  0  0
  8  9  2  0  0  0
 29 24  1  0  0  0
 19 11  1  0  0  0
  9  1  1  0  0  0
 19 14  1  0  0  0
 41 37  1  0  0  0
 13 20  1  0  0  0
 32 33  1  0  0  0
  4 10  1  0  0  0
M  END
> <minimizedAffinity>
-6.57864

> <CNNscore>
0.4243201613

> <CNNaffinity>
7.3612756729

> <CNN_VS>
3.1235377789

> <CNNaffinity_variance>
0.0619075410

$$$$
[H]OC1=C(OC([H])([H])C([H])([H])N2C([H])([H])C([H])([H])C([H])([H])C2([H])[H])C([H])=C([H])C([H])=NC(c2c([H])nc3c(c2[H])c(N=C([H])N2C([H])([H])C([H])([H])N(C([H])([H])[H])C([H])([H])C2([H])[H])c([H])n3[H])=C1C([H])([H])C([H])([H])O[H]


 41 45  0  0  0  0  0  0  0  0999 V2000
  -17.6076   12.1140  -20.0298 C   0  0  0  0  0  0  0  0  0  0  0  0
  -18.4347   13.0117  -19.5279 C   0  0  0  0  0  0  0  0  0  0  0  0
  -19.1501   13.0652  -18.2186 C   0  0  0  0  0  0  0  0  0  0  0  0
  -19.4869   14.3197  -17.7993 O   0  0  0  0  0  0  0  0  0  0  0  0
  -19.5422   12.1189  -17.3485 C   0  0  0  0  0  0  0  0  0  0  0  0
  -19.4284   10.6521  -17.3311 C   0  0  0  0  0  0  0  0  0  0  0  0
  -18.5986    9.7455  -17.8474 C   0  0  0  0  0  0  0  0  0  0  0  0
  -17.4041    9.9643  -18.6904 C   0  0  0  0  0  0  0  0  0  0  0  0
  -17.0345   10.8728  -19.5210 N   0  0  0  0  0  0  0  0  0  0  0  0
  -19.3401   14.5411  -16.8193 H   0  0  0  0  0  0  0  0  0  0  0  0
  -17.7864   14.3657  -24.5028 C   0  0  0  0  0  0  0  0  0  0  0  0
  -16.9397   14.2037  -25.5738 C   0  0  0  0  0  0  0  0  0  0  0  0
  -16.0063   13.3039  -25.2140 N   0  0  0  0  0  0  0  0  0  0  0  0
  -16.2342   12.8919  -23.9536 C   0  0  0  0  0  0  0  0  0  0  0  0
  -15.6308   12.0186  -23.1184 N   0  0  0  0  0  0  0  0  0  0  0  0
  -16.0517   11.7582  -21.8734 C   0  0  0  0  0  0  0  0  0  0  0  0
  -17.1575   12.3930  -21.3724 C   0  0  0  0  0  0  0  0  0  0  0  0
  -17.8072   13.2938  -22.1906 C   0  0  0  0  0  0  0  0  0  0  0  0
  -17.3458   13.5301  -23.4544 C   0  0  0  0  0  0  0  0  0  0  0  0
  -15.2303   12.9907  -25.8399 H   0  0  0  0  0  0  0  0  0  0  0  0
  -19.1515   16.2380  -23.7743 C   0  0  0  0  0  0  0  0  0  0  0  0
  -18.9104   15.1694  -24.3771 N   0  0  0  0  0  0  0  0  0  0  0  0
  -15.4813   18.2509  -20.2295 C   0  0  0  0  0  0  0  0  0  0  0  0
  -16.5806   17.4804  -20.7737 N   0  0  0  0  0  0  0  0  0  0  0  0
  -17.6479   18.4036  -21.1137 C   0  0  0  0  0  0  0  0  0  0  0  0
  -18.7872   17.7314  -21.8489 C   0  0  0  0  0  0  0  0  0  0  0  0
  -18.2506   16.9842  -22.9816 N   0  0  0  0  0  0  0  0  0  0  0  0
  -16.8211   17.0611  -23.1945 C   0  0  0  0  0  0  0  0  0  0  0  0
  -16.1819   16.6450  -21.8728 C   0  0  0  0  0  0  0  0  0  0  0  0
  -18.7587   14.1163  -20.3909 C   0  0  0  0  0  0  0  0  0  0  0  0
  -20.1739   14.5355  -20.5774 C   0  0  0  0  0  0  0  0  0  0  0  0
  -20.3720   15.7928  -19.9112 O   0  0  0  0  0  0  0  0  0  0  0  0
  -19.5022   16.1879  -19.6994 H   0  0  0  0  0  0  0  0  0  0  0  0
  -20.1824   12.6456  -16.2514 O   0  0  0  0  0  0  0  0  0  0  0  0
  -21.2927   12.0591  -15.6540 C   0  0  0  0  0  0  0  0  0  0  0  0
  -21.1956   12.0028  -14.1541 C   0  0  0  0  0  0  0  0  0  0  0  0
  -20.9179   10.6913  -13.6407 N   0  0  0  0  0  0  0  0  0  0  0  0
  -19.4878   10.4823  -13.5315 C   0  0  0  0  0  0  0  0  0  0  0  0
  -19.2347    9.0526  -13.9372 C   0  0  0  0  0  0  0  0  0  0  0  0
  -20.5876    8.4686  -14.1864 C   0  0  0  0  0  0  0  0  0  0  0  0
  -21.4421    9.6564  -14.4980 C   0  0  0  0  0  0  0  0  0  0  0  0
 23 24  1  0  0  0
 24 25  1  0  0  0
 25 26  1  0  0  0
 26 27  1  0  0  0
 27 28  1  0  0  0
 28 29  1  0  0  0
 27 21  1  0  0  0
 21 22  2  0  0  0
 22 11  1  0  0  0
 11 12  2  0  0  0
 12 13  1  0  0  0
 13 14  1  0  0  0
 14 15  2  0  0  0
 15 16  1  0  0  0
 16 17  2  0  0  0
 17 18  1  0  0  0
 18 19  2  0  0  0
 17  1  1  0  0  0
  1  2  2  0  0  0
  2 30  1  0  0  0
 30 31  1  0  0  0
 31 32  1  0  0  0
  2  3  1  0  0  0
  3  4  1  0  0  0
  3  5  2  0  0  0
  5 34  1  0  0  0
 34 35  1  0  0  0
 35 36  1  0  0  0
 36 37  1  0  0  0
 37 38  1  0  0  0
 38 39  1  0  0  0
 39 40  1  0  0  0
 40 41  1  0  0  0
  5  6  1  0  0  0
  6  7  2  0  0  0
  7  8  1  0  0  0
  8  9  2  0  0  0
 29 24  1  0  0  0
 19 11  1  0  0  0
  9  1  1  0  0  0
 19 14  1  0  0  0
 41 37  1  0  0  0
 13 20  1  0  0  0
 32 33  1  0  0  0
  4 10  1  0  0  0
M  END
> <minimizedAffinity>
-7.62680

> <CNNscore>
0.2661789358

> <CNNaffinity>
7.1567840576

> <CNN_VS>
1.9049851894

> <CNNaffinity_variance>
0.1070449725

$$$$
[H]OC1=C(OC([H])([H])C([H])([H])N2C([H])([H])C([H])([H])C([H])([H])C2([H])[H])C([H])=C([H])C([H])=NC(c2c([H])nc3c(c2[H])c(N=C([H])N2C([H])([H])C([H])([H])N(C([H])([H])[H])C([H])([H])C2([H])[H])c([H])n3[H])=C1C([H])([H])C([H])([H])O[H]


 41 45  0  0  0  0  0  0  0  0999 V2000
  -18.2613   12.6987  -19.4771 C   0  0  0  0  0  0  0  0  0  0  0  0
  -18.3271   13.8711  -18.8745 C   0  0  0  0  0  0  0  0  0  0  0  0
  -18.1838   15.2588  -19.4063 C   0  0  0  0  0  0  0  0  0  0  0  0
  -18.8095   16.2231  -18.6704 O   0  0  0  0  0  0  0  0  0  0  0  0
  -17.5541   15.7695  -20.4782 C   0  0  0  0  0  0  0  0  0  0  0  0
  -16.7523   15.1739  -21.5585 C   0  0  0  0  0  0  0  0  0  0  0  0
  -16.6791   13.9861  -22.1593 C   0  0  0  0  0  0  0  0  0  0  0  0
  -17.4726   12.7679  -21.8916 C   0  0  0  0  0  0  0  0  0  0  0  0
  -18.0733   12.2849  -20.8632 N   0  0  0  0  0  0  0  0  0  0  0  0
  -19.3213   16.9396  -19.1759 H   0  0  0  0  0  0  0  0  0  0  0  0
  -20.6248    9.7928  -16.1485 C   0  0  0  0  0  0  0  0  0  0  0  0
  -20.1820    8.6287  -15.5663 C   0  0  0  0  0  0  0  0  0  0  0  0
  -18.9549    8.3767  -16.0574 N   0  0  0  0  0  0  0  0  0  0  0  0
  -18.6073    9.3410  -16.9290 C   0  0  0  0  0  0  0  0  0  0  0  0
  -17.5164    9.5847  -17.6872 N   0  0  0  0  0  0  0  0  0  0  0  0
  -17.3881   10.6429  -18.4988 C   0  0  0  0  0  0  0  0  0  0  0  0
  -18.3997   11.5612  -18.5997 C   0  0  0  0  0  0  0  0  0  0  0  0
  -19.5340   11.3536  -17.8426 C   0  0  0  0  0  0  0  0  0  0  0  0
  -19.6245   10.2618  -17.0266 C   0  0  0  0  0  0  0  0  0  0  0  0
  -18.3802    7.5473  -15.7858 H   0  0  0  0  0  0  0  0  0  0  0  0
  -22.4636   10.8407  -14.9568 C   0  0  0  0  0  0  0  0  0  0  0  0
  -21.8178   10.4765  -15.9636 N   0  0  0  0  0  0  0  0  0  0  0  0
  -21.9435   10.5482   -9.5041 C   0  0  0  0  0  0  0  0  0  0  0  0
  -22.2183   11.0674  -10.8283 N   0  0  0  0  0  0  0  0  0  0  0  0
  -20.9578   11.1601  -11.5421 C   0  0  0  0  0  0  0  0  0  0  0  0
  -21.1390   11.5322  -12.9978 C   0  0  0  0  0  0  0  0  0  0  0  0
  -22.1123   10.6299  -13.6044 N   0  0  0  0  0  0  0  0  0  0  0  0
  -22.6522    9.5885  -12.7566 C   0  0  0  0  0  0  0  0  0  0  0  0
  -23.2119   10.3016  -11.5291 C   0  0  0  0  0  0  0  0  0  0  0  0
  -18.5211   13.8326  -17.4494 C   0  0  0  0  0  0  0  0  0  0  0  0
  -19.7256   14.4550  -16.8370 C   0  0  0  0  0  0  0  0  0  0  0  0
  -19.3083   15.5732  -16.0374 O   0  0  0  0  0  0  0  0  0  0  0  0
  -18.3853   15.8067  -16.2634 H   0  0  0  0  0  0  0  0  0  0  0  0
  -17.6964   17.1341  -20.5712 O   0  0  0  0  0  0  0  0  0  0  0  0
  -18.6066   17.7562  -21.4185 C   0  0  0  0  0  0  0  0  0  0  0  0
  -17.9475   18.5593  -22.5061 C   0  0  0  0  0  0  0  0  0  0  0  0
  -18.0036   17.9384  -23.7992 N   0  0  0  0  0  0  0  0  0  0  0  0
  -18.9562   16.8461  -23.7959 C   0  0  0  0  0  0  0  0  0  0  0  0
  -18.3526   15.7529  -24.6405 C   0  0  0  0  0  0  0  0  0  0  0  0
  -17.0788   16.3248  -25.1731 C   0  0  0  0  0  0  0  0  0  0  0  0
  -16.7255   17.3967  -24.1912 C   0  0  0  0  0  0  0  0  0  0  0  0
 23 24  1  0  0  0
 24 25  1  0  0  0
 25 26  1  0  0  0
 26 27  1  0  0  0
 27 28  1  0  0  0
 28 29  1  0  0  0
 27 21  1  0  0  0
 21 22  2  0  0  0
 22 11  1  0  0  0
 11 12  2  0  0  0
 12 13  1  0  0  0
 13 14  1  0  0  0
 14 15  2  0  0  0
 15 16  1  0  0  0
 16 17  2  0  0  0
 17 18  1  0  0  0
 18 19  2  0  0  0
 17  1  1  0  0  0
  1  2  2  0  0  0
  2 30  1  0  0  0
 30 31  1  0  0  0
 31 32  1  0  0  0
  2  3  1  0  0  0
  3  4  1  0  0  0
  3  5  2  0  0  0
  5 34  1  0  0  0
 34 35  1  0  0  0
 35 36  1  0  0  0
 36 37  1  0  0  0
 37 38  1  0  0  0
 38 39  1  0  0  0
 39 40  1  0  0  0
 40 41  1  0  0  0
  5  6  1  0  0  0
  6  7  2  0  0  0
  7  8  1  0  0  0
  8  9  2  0  0  0
 29 24  1  0  0  0
 19 11  1  0  0  0
  9  1  1  0  0  0
 19 14  1  0  0  0
 41 37  1  0  0  0
 13 20  1  0  0  0
 32 33  1  0  0  0
  4 10  1  0  0  0
M  END
> <minimizedAffinity>
-7.60602

> <CNNscore>
0.2644136250

> <CNNaffinity>
6.6023421288

> <CNN_VS>
1.7457492352

> <CNNaffinity_variance>
0.0809001476

$$$$
[H]OC1=C(OC([H])([H])C([H])([H])N2C([H])([H])C([H])([H])C([H])([H])C2([H])[H])C([H])=C([H])C([H])=NC(c2c([H])nc3c(c2[H])c(N=C([H])N2C([H])([H])C([H])([H])N(C([H])([H])[H])C([H])([H])C2([H])[H])c([H])n3[H])=C1C([H])([H])C([H])([H])O[H]


 41 45  0  0  0  0  0  0  0  0999 V2000
  -18.4632   12.6175  -20.2017 C   0  0  0  0  0  0  0  0  0  0  0  0
  -17.7873   11.6182  -19.6666 C   0  0  0  0  0  0  0  0  0  0  0  0
  -18.1129   10.7104  -18.5269 C   0  0  0  0  0  0  0  0  0  0  0  0
  -17.4886    9.4971  -18.5628 O   0  0  0  0  0  0  0  0  0  0  0  0
  -18.9063   10.8392  -17.4497 C   0  0  0  0  0  0  0  0  0  0  0  0
  -19.7722   11.9213  -16.9555 C   0  0  0  0  0  0  0  0  0  0  0  0
  -20.4458   12.9369  -17.4959 C   0  0  0  0  0  0  0  0  0  0  0  0
  -20.5379   13.3282  -18.9185 C   0  0  0  0  0  0  0  0  0  0  0  0
  -19.7750   13.2015  -19.9449 N   0  0  0  0  0  0  0  0  0  0  0  0
  -18.0420    8.6786  -18.3289 H   0  0  0  0  0  0  0  0  0  0  0  0
  -16.1342   16.4940  -22.3601 C   0  0  0  0  0  0  0  0  0  0  0  0
  -15.6062   16.5740  -23.6270 C   0  0  0  0  0  0  0  0  0  0  0  0
  -15.8197   15.3881  -24.2256 N   0  0  0  0  0  0  0  0  0  0  0  0
  -16.4642   14.5622  -23.3812 C   0  0  0  0  0  0  0  0  0  0  0  0
  -16.9209   13.2936  -23.4607 N   0  0  0  0  0  0  0  0  0  0  0  0
  -17.5572   12.6617  -22.4652 C   0  0  0  0  0  0  0  0  0  0  0  0
  -17.7808   13.3008  -21.2743 C   0  0  0  0  0  0  0  0  0  0  0  0
  -17.3321   14.5991  -21.1476 C   0  0  0  0  0  0  0  0  0  0  0  0
  -16.6883   15.2076  -22.1874 C   0  0  0  0  0  0  0  0  0  0  0  0
  -15.5181   15.1679  -25.2016 H   0  0  0  0  0  0  0  0  0  0  0  0
  -17.0449   18.2724  -20.9791 C   0  0  0  0  0  0  0  0  0  0  0  0
  -16.1801   17.4529  -21.3585 N   0  0  0  0  0  0  0  0  0  0  0  0
  -21.8142   18.1892  -23.6875 C   0  0  0  0  0  0  0  0  0  0  0  0
  -20.3944   18.1117  -23.4104 N   0  0  0  0  0  0  0  0  0  0  0  0
  -19.9357   19.4420  -23.0540 C   0  0  0  0  0  0  0  0  0  0  0  0
  -18.4989   19.4546  -22.5787 C   0  0  0  0  0  0  0  0  0  0  0  0
  -18.3344   18.4564  -21.5270 N   0  0  0  0  0  0  0  0  0  0  0  0
  -19.5178   17.7206  -21.1361 C   0  0  0  0  0  0  0  0  0  0  0  0
  -20.0754   17.1182  -22.4225 C   0  0  0  0  0  0  0  0  0  0  0  0
  -16.4860   11.3705  -20.2282 C   0  0  0  0  0  0  0  0  0  0  0  0
  -16.1618   10.0444  -20.8195 C   0  0  0  0  0  0  0  0  0  0  0  0
  -14.9299   10.1563  -21.5502 O   0  0  0  0  0  0  0  0  0  0  0  0
  -14.4794   10.9882  -21.3003 H   0  0  0  0  0  0  0  0  0  0  0  0
  -18.8961    9.7193  -16.6518 O   0  0  0  0  0  0  0  0  0  0  0  0
  -19.9805    9.3143  -15.8813 C   0  0  0  0  0  0  0  0  0  0  0  0
  -19.5842    8.4683  -14.7025 C   0  0  0  0  0  0  0  0  0  0  0  0
  -18.9405    9.2046  -13.6516 N   0  0  0  0  0  0  0  0  0  0  0  0
  -18.8708    8.4072  -12.4434 C   0  0  0  0  0  0  0  0  0  0  0  0
  -19.1254    9.3508  -11.2957 C   0  0  0  0  0  0  0  0  0  0  0  0
  -19.2492   10.7037  -11.9183 C   0  0  0  0  0  0  0  0  0  0  0  0
  -19.6538   10.4164  -13.3296 C   0  0  0  0  0  0  0  0  0  0  0  0
 23 24  1  0  0  0
 24 25  1  0  0  0
 25 26  1  0  0  0
 26 27  1  0  0  0
 27 28  1  0  0  0
 28 29  1  0  0  0
 27 21  1  0  0  0
 21 22  2  0  0  0
 22 11  1  0  0  0
 11 12  2  0  0  0
 12 13  1  0  0  0
 13 14  1  0  0  0
 14 15  2  0  0  0
 15 16  1  0  0  0
 16 17  2  0  0  0
 17 18  1  0  0  0
 18 19  2  0  0  0
 17  1  1  0  0  0
  1  2  2  0  0  0
  2 30  1  0  0  0
 30 31  1  0  0  0
 31 32  1  0  0  0
  2  3  1  0  0  0
  3  4  1  0  0  0
  3  5  2  0  0  0
  5 34  1  0  0  0
 34 35  1  0  0  0
 35 36  1  0  0  0
 36 37  1  0  0  0
 37 38  1  0  0  0
 38 39  1  0  0  0
 39 40  1  0  0  0
 40 41  1  0  0  0
  5  6  1  0  0  0
  6  7  2  0  0  0
  7  8  1  0  0  0
  8  9  2  0  0  0
 29 24  1  0  0  0
 19 11  1  0  0  0
  9  1  1  0  0  0
 19 14  1  0  0  0
 41 37  1  0  0  0
 13 20  1  0  0  0
 32 33  1  0  0  0
  4 10  1  0  0  0
M  END
> <minimizedAffinity>
-8.84000

> <CNNscore>
0.1985603720

> <CNNaffinity>
6.6438217163

> <CNN_VS>
1.3191996813

> <CNNaffinity_variance>
0.4154728949

$$$$
[H]OC1=C(OC([H])([H])C([H])([H])N2C([H])([H])C([H])([H])C([H])([H])C2([H])[H])C([H])=C([H])C([H])=NC(c2c([H])nc3c(c2[H])c(N=C([H])N2C([H])([H])C([H])([H])N(C([H])([H])[H])C([H])([H])C2([H])[H])c([H])n3[H])=C1C([H])([H])C([H])([H])O[H]


 41 45  0  0  0  0  0  0  0  0999 V2000
  -18.5480   12.6028  -20.1787 C   0  0  0  0  0  0  0  0  0  0  0  0
  -17.9250   11.6472  -19.5150 C   0  0  0  0  0  0  0  0  0  0  0  0
  -18.3377   10.8490  -18.3227 C   0  0  0  0  0  0  0  0  0  0  0  0
  -17.7342    9.6299  -18.2110 O   0  0  0  0  0  0  0  0  0  0  0  0
  -19.1947   11.0834  -17.3142 C   0  0  0  0  0  0  0  0  0  0  0  0
  -20.0703   12.2158  -16.9742 C   0  0  0  0  0  0  0  0  0  0  0  0
  -20.6905   13.1872  -17.6443 C   0  0  0  0  0  0  0  0  0  0  0  0
  -20.6860   13.4508  -19.0990 C   0  0  0  0  0  0  0  0  0  0  0  0
  -19.8627   13.2235  -20.0591 N   0  0  0  0  0  0  0  0  0  0  0  0
  -18.3157    8.8424  -17.9415 H   0  0  0  0  0  0  0  0  0  0  0  0
  -16.0611   16.2570  -22.5394 C   0  0  0  0  0  0  0  0  0  0  0  0
  -15.4411   16.2125  -23.7657 C   0  0  0  0  0  0  0  0  0  0  0  0
  -15.6115   14.9712  -24.2560 N   0  0  0  0  0  0  0  0  0  0  0  0
  -16.3176   14.2304  -23.3824 C   0  0  0  0  0  0  0  0  0  0  0  0
  -16.7689   12.9575  -23.3670 N   0  0  0  0  0  0  0  0  0  0  0  0
  -17.4777   12.4249  -22.3625 C   0  0  0  0  0  0  0  0  0  0  0  0
  -17.7875   13.1791  -21.2616 C   0  0  0  0  0  0  0  0  0  0  0  0
  -17.3476   14.4862  -21.2335 C   0  0  0  0  0  0  0  0  0  0  0  0
  -16.6282   14.9911  -22.2792 C   0  0  0  0  0  0  0  0  0  0  0  0
  -15.2392   14.6559  -25.1800 H   0  0  0  0  0  0  0  0  0  0  0  0
  -17.0716   18.1552  -21.4102 C   0  0  0  0  0  0  0  0  0  0  0  0
  -16.1795   17.3113  -21.6454 N   0  0  0  0  0  0  0  0  0  0  0  0
  -21.9367   19.5304  -23.5382 C   0  0  0  0  0  0  0  0  0  0  0  0
  -20.8346   19.4067  -22.6062 N   0  0  0  0  0  0  0  0  0  0  0  0
  -20.7239   18.0096  -22.2282 C   0  0  0  0  0  0  0  0  0  0  0  0
  -19.4983   17.7297  -21.3857 C   0  0  0  0  0  0  0  0  0  0  0  0
  -18.3215   18.2686  -22.0597 N   0  0  0  0  0  0  0  0  0  0  0  0
  -18.5369   18.8923  -23.3478 C   0  0  0  0  0  0  0  0  0  0  0  0
  -19.6094   19.9538  -23.1205 C   0  0  0  0  0  0  0  0  0  0  0  0
  -16.5957   11.3344  -19.9680 C   0  0  0  0  0  0  0  0  0  0  0  0
  -16.2977   10.0046  -20.5648 C   0  0  0  0  0  0  0  0  0  0  0  0
  -15.0721   10.0993  -21.3084 O   0  0  0  0  0  0  0  0  0  0  0  0
  -14.6065   10.9239  -21.0619 H   0  0  0  0  0  0  0  0  0  0  0  0
  -19.2546   10.0393  -16.4213 O   0  0  0  0  0  0  0  0  0  0  0  0
  -19.8793   10.1225  -15.1818 C   0  0  0  0  0  0  0  0  0  0  0  0
  -19.5877    8.9444  -14.2933 C   0  0  0  0  0  0  0  0  0  0  0  0
  -20.6570    7.9888  -14.2293 N   0  0  0  0  0  0  0  0  0  0  0  0
  -20.2431    6.7258  -14.8073 C   0  0  0  0  0  0  0  0  0  0  0  0
  -21.4351    6.1915  -15.5598 C   0  0  0  0  0  0  0  0  0  0  0  0
  -22.5364    7.1669  -15.2968 C   0  0  0  0  0  0  0  0  0  0  0  0
  -21.8212    8.4355  -14.9544 C   0  0  0  0  0  0  0  0  0  0  0  0
 23 24  1  0  0  0
 24 25  1  0  0  0
 25 26  1  0  0  0
 26 27  1  0  0  0
 27 28  1  0  0  0
 28 29  1  0  0  0
 27 21  1  0  0  0
 21 22  2  0  0  0
 22 11  1  0  0  0
 11 12  2  0  0  0
 12 13  1  0  0  0
 13 14  1  0  0  0
 14 15  2  0  0  0
 15 16  1  0  0  0
 16 17  2  0  0  0
 17 18  1  0  0  0
 18 19  2  0  0  0
 17  1  1  0  0  0
  1  2  2  0  0  0
  2 30  1  0  0  0
 30 31  1  0  0  0
 31 32  1  0  0  0
  2  3  1  0  0  0
  3  4  1  0  0  0
  3  5  2  0  0  0
  5 34  1  0  0  0
 34 35  1  0  0  0
 35 36  1  0  0  0
 36 37  1  0  0  0
 37 38  1  0  0  0
 38 39  1  0  0  0
 39 40  1  0  0  0
 40 41  1  0  0  0
  5  6  1  0  0  0
  6  7  2  0  0  0
  7  8  1  0  0  0
  8  9  2  0  0  0
 29 24  1  0  0  0
 19 11  1  0  0  0
  9  1  1  0  0  0
 19 14  1  0  0  0
 41 37  1  0  0  0
 13 20  1  0  0  0
 32 33  1  0  0  0
  4 10  1  0  0  0
M  END
> <minimizedAffinity>
-8.78346

> <CNNscore>
0.1831672639

> <CNNaffinity>
6.6418848038

> <CNN_VS>
1.2165758610

> <CNNaffinity_variance>
0.2568264604

$$$$
[H]c1nn(C2([H])C([H])([H])C([H])([H])N(C([H])([H])[H])C([H])([H])C2([H])[H])c([H])c1-c1c([H])nc2c([H])c([H])c([H])c([H])n12


 21 24  0  0  0  0  0  0  0  0999 V2000
  -17.0346   14.4481  -22.8832 N   0  0  0  0  0  0  0  0  0  0  0  0
  -16.8995   13.1234  -22.5475 C   0  0  0  0  0  0  0  0  0  0  0  0
  -17.2193   12.9842  -21.2272 C   0  0  0  0  0  0  0  0  0  0  0  0
  -17.5507   14.2692  -20.7828 C   0  0  0  0  0  0  0  0  0  0  0  0
  -17.4209   15.0924  -21.8136 N   0  0  0  0  0  0  0  0  0  0  0  0
  -17.2411   11.8134  -20.3867 C   0  0  0  0  0  0  0  0  0  0  0  0
  -16.4005   10.7102  -20.5722 C   0  0  0  0  0  0  0  0  0  0  0  0
  -16.6216    9.7687  -19.6652 N   0  0  0  0  0  0  0  0  0  0  0  0
  -17.6048   10.2348  -18.8740 C   0  0  0  0  0  0  0  0  0  0  0  0
  -18.1717    9.6082  -17.7939 C   0  0  0  0  0  0  0  0  0  0  0  0
  -19.1698   10.2868  -17.1338 C   0  0  0  0  0  0  0  0  0  0  0  0
  -19.5604   11.5310  -17.5573 C   0  0  0  0  0  0  0  0  0  0  0  0
  -18.9372   12.1109  -18.6687 C   0  0  0  0  0  0  0  0  0  0  0  0
  -17.9709   11.4694  -19.3187 N   0  0  0  0  0  0  0  0  0  0  0  0
  -15.3196   15.4706  -28.0063 C   0  0  0  0  0  0  0  0  0  0  0  0
  -16.0817   15.6418  -26.7593 N   0  0  0  0  0  0  0  0  0  0  0  0
  -16.7891   14.3905  -26.5560 C   0  0  0  0  0  0  0  0  0  0  0  0
  -17.5345   14.3313  -25.2650 C   0  0  0  0  0  0  0  0  0  0  0  0
  -16.7993   15.0534  -24.1792 C   0  0  0  0  0  0  0  0  0  0  0  0
  -15.3131   15.0027  -24.5205 C   0  0  0  0  0  0  0  0  0  0  0  0
  -15.1275   15.9122  -25.7251 C   0  0  0  0  0  0  0  0  0  0  0  0
 15 16  1  0  0  0
 16 17  1  0  0  0
 17 18  1  0  0  0
 18 19  1  0  0  0
 19 20  1  0  0  0
 20 21  1  0  0  0
 19  1  1  0  0  0
  1  2  1  0  0  0
  2  3  2  0  0  0
  3  4  1  0  0  0
  4  5  2  0  0  0
  3  6  1  0  0  0
  6  7  2  0  0  0
  7  8  1  0  0  0
  8  9  2  0  0  0
  9 10  1  0  0  0
 10 11  2  0  0  0
 11 12  1  0  0  0
 12 13  2  0  0  0
 13 14  1  0  0  0
 21 16  1  0  0  0
  5  1  1  0  0  0
 14  6  1  0  0  0
 14  9  1  0  0  0
M  END
> <minimizedAffinity>
-8.15242

> <CNNscore>
0.8736392856

> <CNNaffinity>
6.9197921753

> <CNN_VS>
6.0454025269

> <CNNaffinity_variance>
0.1021982655

$$$$
[H]c1nn(C2([H])C([H])([H])C([H])([H])N(C([H])([H])[H])C([H])([H])C2([H])[H])c([H])c1-c1c([H])nc2c([H])c([H])c([H])c([H])n12


 21 24  0  0  0  0  0  0  0  0999 V2000
  -16.4494   13.0531  -23.1426 N   0  0  0  0  0  0  0  0  0  0  0  0
  -17.2882   13.0512  -22.0554 C   0  0  0  0  0  0  0  0  0  0  0  0
  -16.9691   11.9780  -21.2735 C   0  0  0  0  0  0  0  0  0  0  0  0
  -15.9112   11.3369  -21.9281 C   0  0  0  0  0  0  0  0  0  0  0  0
  -15.6506   12.0246  -23.0309 N   0  0  0  0  0  0  0  0  0  0  0  0
  -17.5382   11.5223  -20.0301 C   0  0  0  0  0  0  0  0  0  0  0  0
  -17.1272   10.3592  -19.3695 C   0  0  0  0  0  0  0  0  0  0  0  0
  -17.8088   10.1662  -18.2488 N   0  0  0  0  0  0  0  0  0  0  0  0
  -18.6733   11.1928  -18.1552 C   0  0  0  0  0  0  0  0  0  0  0  0
  -19.5887   11.4220  -17.1601 C   0  0  0  0  0  0  0  0  0  0  0  0
  -20.3707   12.5474  -17.2809 C   0  0  0  0  0  0  0  0  0  0  0  0
  -20.2210   13.3842  -18.3566 C   0  0  0  0  0  0  0  0  0  0  0  0
  -19.2654   13.0881  -19.3360 C   0  0  0  0  0  0  0  0  0  0  0  0
  -18.5012   12.0047  -19.2354 N   0  0  0  0  0  0  0  0  0  0  0  0
  -15.6096   15.5429  -27.9725 C   0  0  0  0  0  0  0  0  0  0  0  0
  -16.1484   15.3271  -26.6205 N   0  0  0  0  0  0  0  0  0  0  0  0
  -16.8272   14.0447  -26.6678 C   0  0  0  0  0  0  0  0  0  0  0  0
  -17.3450   13.5963  -25.3424 C   0  0  0  0  0  0  0  0  0  0  0  0
  -16.4282   14.0080  -24.2330 C   0  0  0  0  0  0  0  0  0  0  0  0
  -15.0216   14.1094  -24.8152 C   0  0  0  0  0  0  0  0  0  0  0  0
  -15.0302   15.3283  -25.7245 C   0  0  0  0  0  0  0  0  0  0  0  0
 15 16  1  0  0  0
 16 17  1  0  0  0
 17 18  1  0  0  0
 18 19  1  0  0  0
 19 20  1  0  0  0
 20 21  1  0  0  0
 19  1  1  0  0  0
  1  2  1  0  0  0
  2  3  2  0  0  0
  3  4  1  0  0  0
  4  5  2  0  0  0
  3  6  1  0  0  0
  6  7  2  0  0  0
  7  8  1  0  0  0
  8  9  2  0  0  0
  9 10  1  0  0  0
 10 11  2  0  0  0
 11 12  1  0  0  0
 12 13  2  0  0  0
 13 14  1  0  0  0
 21 16  1  0  0  0
  5  1  1  0  0  0
 14  6  1  0  0  0
 14  9  1  0  0  0
M  END
> <minimizedAffinity>
-8.09588

> <CNNscore>
0.8059437871

> <CNNaffinity>
6.7057266235

> <CNN_VS>
5.4044384956

> <CNNaffinity_variance>
0.0064227581

$$$$
[H]c1nn(C2([H])C([H])([H])C([H])([H])N(C([H])([H])[H])C([H])([H])C2([H])[H])c([H])c1-c1c([H])nc2c([H])c([H])c([H])c([H])n12


 21 24  0  0  0  0  0  0  0  0999 V2000
  -16.5171   11.8551  -22.0269 N   0  0  0  0  0  0  0  0  0  0  0  0
  -17.5551   11.9971  -21.1392 C   0  0  0  0  0  0  0  0  0  0  0  0
  -17.3340   11.1546  -20.0875 C   0  0  0  0  0  0  0  0  0  0  0  0
  -16.1291   10.5030  -20.3741 C   0  0  0  0  0  0  0  0  0  0  0  0
  -15.6953   10.9633  -21.5391 N   0  0  0  0  0  0  0  0  0  0  0  0
  -18.1118   10.9173  -18.8973 C   0  0  0  0  0  0  0  0  0  0  0  0
  -18.0134    9.7539  -18.1260 C   0  0  0  0  0  0  0  0  0  0  0  0
  -18.8354    9.7853  -17.0862 N   0  0  0  0  0  0  0  0  0  0  0  0
  -19.4833   10.9622  -17.1568 C   0  0  0  0  0  0  0  0  0  0  0  0
  -20.4356   11.4412  -16.2941 C   0  0  0  0  0  0  0  0  0  0  0  0
  -20.9605   12.6819  -16.5729 C   0  0  0  0  0  0  0  0  0  0  0  0
  -20.5334   13.3856  -17.6694 C   0  0  0  0  0  0  0  0  0  0  0  0
  -19.5569   12.8348  -18.5078 C   0  0  0  0  0  0  0  0  0  0  0  0
  -19.0387   11.6370  -18.2535 N   0  0  0  0  0  0  0  0  0  0  0  0
  -15.7832   15.7170  -25.8712 C   0  0  0  0  0  0  0  0  0  0  0  0
  -15.8895   14.3702  -25.2884 N   0  0  0  0  0  0  0  0  0  0  0  0
  -14.8977   14.3207  -24.2295 C   0  0  0  0  0  0  0  0  0  0  0  0
  -14.9353   13.0568  -23.4376 C   0  0  0  0  0  0  0  0  0  0  0  0
  -16.3364   12.5525  -23.2847 C   0  0  0  0  0  0  0  0  0  0  0  0
  -17.2675   13.7592  -23.3547 C   0  0  0  0  0  0  0  0  0  0  0  0
  -17.2292   14.2362  -24.7982 C   0  0  0  0  0  0  0  0  0  0  0  0
 15 16  1  0  0  0
 16 17  1  0  0  0
 17 18  1  0  0  0
 18 19  1  0  0  0
 19 20  1  0  0  0
 20 21  1  0  0  0
 19  1  1  0  0  0
  1  2  1  0  0  0
  2  3  2  0  0  0
  3  4  1  0  0  0
  4  5  2  0  0  0
  3  6  1  0  0  0
  6  7  2  0  0  0
  7  8  1  0  0  0
  8  9  2  0  0  0
  9 10  1  0  0  0
 10 11  2  0  0  0
 11 12  1  0  0  0
 12 13  2  0  0  0
 13 14  1  0  0  0
 21 16  1  0  0  0
  5  1  1  0  0  0
 14  6  1  0  0  0
 14  9  1  0  0  0
M  END
> <minimizedAffinity>
-7.48579

> <CNNscore>
0.7689459324

> <CNNaffinity>
6.5339469910

> <CNN_VS>
5.0242519379

> <CNNaffinity_variance>
0.0606113560

$$$$
[H]c1nn(C2([H])C([H])([H])C([H])([H])N(C([H])([H])[H])C([H])([H])C2([H])[H])c([H])c1-c1c([H])nc2c([H])c([H])c([H])c([H])n12


 21 24  0  0  0  0  0  0  0  0999 V2000
  -17.4369   15.3062  -21.5022 N   0  0  0  0  0  0  0  0  0  0  0  0
  -17.5234   14.4873  -20.4033 C   0  0  0  0  0  0  0  0  0  0  0  0
  -17.4654   13.1920  -20.8321 C   0  0  0  0  0  0  0  0  0  0  0  0
  -17.3411   13.2618  -22.2243 C   0  0  0  0  0  0  0  0  0  0  0  0
  -17.3304   14.5444  -22.5589 N   0  0  0  0  0  0  0  0  0  0  0  0
  -17.5136   11.9566  -20.0911 C   0  0  0  0  0  0  0  0  0  0  0  0
  -16.7415   10.8329  -20.4064 C   0  0  0  0  0  0  0  0  0  0  0  0
  -16.9735    9.8299  -19.5708 N   0  0  0  0  0  0  0  0  0  0  0  0
  -17.8958   10.2752  -18.6985 C   0  0  0  0  0  0  0  0  0  0  0  0
  -18.4486    9.5880  -17.6484 C   0  0  0  0  0  0  0  0  0  0  0  0
  -19.3800   10.2566  -16.8882 C   0  0  0  0  0  0  0  0  0  0  0  0
  -19.7216   11.5501  -17.1887 C   0  0  0  0  0  0  0  0  0  0  0  0
  -19.1164   12.1907  -18.2765 C   0  0  0  0  0  0  0  0  0  0  0  0
  -18.2143   11.5597  -19.0220 N   0  0  0  0  0  0  0  0  0  0  0  0
  -19.0009   20.5735  -21.2967 C   0  0  0  0  0  0  0  0  0  0  0  0
  -18.0920   19.4181  -21.3593 N   0  0  0  0  0  0  0  0  0  0  0  0
  -18.4038   18.6091  -20.1948 C   0  0  0  0  0  0  0  0  0  0  0  0
  -17.6542   17.3200  -20.1480 C   0  0  0  0  0  0  0  0  0  0  0  0
  -17.4571   16.7555  -21.5203 C   0  0  0  0  0  0  0  0  0  0  0  0
  -18.6073   17.2540  -22.3900 C   0  0  0  0  0  0  0  0  0  0  0  0
  -18.3668   18.7419  -22.5923 C   0  0  0  0  0  0  0  0  0  0  0  0
 15 16  1  0  0  0
 16 17  1  0  0  0
 17 18  1  0  0  0
 18 19  1  0  0  0
 19 20  1  0  0  0
 20 21  1  0  0  0
 19  1  1  0  0  0
  1  2  1  0  0  0
  2  3  2  0  0  0
  3  4  1  0  0  0
  4  5  2  0  0  0
  3  6  1  0  0  0
  6  7  2  0  0  0
  7  8  1  0  0  0
  8  9  2  0  0  0
  9 10  1  0  0  0
 10 11  2  0  0  0
 11 12  1  0  0  0
 12 13  2  0  0  0
 13 14  1  0  0  0
 21 16  1  0  0  0
  5  1  1  0  0  0
 14  6  1  0  0  0
 14  9  1  0  0  0
M  END
> <minimizedAffinity>
-6.91344

> <CNNscore>
0.7497903705

> <CNNaffinity>
6.5270438194

> <CNN_VS>
4.8939146996

> <CNNaffinity_variance>
0.3119508326

$$$$
[H]c1nn(C2([H])C([H])([H])C([H])([H])N(C([H])([H])[H])C([H])([H])C2([H])[H])c([H])c1-c1c([H])nc2c([H])c([H])c([H])c([H])n12


 21 24  0  0  0  0  0  0  0  0999 V2000
  -17.0197   12.2901  -22.0950 N   0  0  0  0  0  0  0  0  0  0  0  0
  -18.0251   12.6248  -21.2215 C   0  0  0  0  0  0  0  0  0  0  0  0
  -17.8689   11.8803  -20.0874 C   0  0  0  0  0  0  0  0  0  0  0  0
  -16.7367   11.0884  -20.3100 C   0  0  0  0  0  0  0  0  0  0  0  0
  -16.2795   11.3792  -21.5197 N   0  0  0  0  0  0  0  0  0  0  0  0
  -18.6468   11.8462  -18.8744 C   0  0  0  0  0  0  0  0  0  0  0  0
  -19.4091   12.9246  -18.4116 C   0  0  0  0  0  0  0  0  0  0  0  0
  -20.0277   12.6346  -17.2754 N   0  0  0  0  0  0  0  0  0  0  0  0
  -19.6844   11.3691  -16.9748 C   0  0  0  0  0  0  0  0  0  0  0  0
  -20.0819   10.6347  -15.8870 C   0  0  0  0  0  0  0  0  0  0  0  0
  -19.5967    9.3510  -15.7916 C   0  0  0  0  0  0  0  0  0  0  0  0
  -18.7561    8.8536  -16.7538 C   0  0  0  0  0  0  0  0  0  0  0  0
  -18.3915    9.6603  -17.8384 C   0  0  0  0  0  0  0  0  0  0  0  0
  -18.8509   10.9033  -17.9465 N   0  0  0  0  0  0  0  0  0  0  0  0
  -15.9690   15.6339  -26.3314 C   0  0  0  0  0  0  0  0  0  0  0  0
  -16.2015   14.3734  -25.6088 N   0  0  0  0  0  0  0  0  0  0  0  0
  -15.1994   14.3314  -24.5593 C   0  0  0  0  0  0  0  0  0  0  0  0
  -15.3510   13.1674  -23.6383 C   0  0  0  0  0  0  0  0  0  0  0  0
  -16.7931   12.8304  -23.4208 C   0  0  0  0  0  0  0  0  0  0  0  0
  -17.5967   14.1135  -23.6095 C   0  0  0  0  0  0  0  0  0  0  0  0
  -17.5380   14.4313  -25.0955 C   0  0  0  0  0  0  0  0  0  0  0  0
 15 16  1  0  0  0
 16 17  1  0  0  0
 17 18  1  0  0  0
 18 19  1  0  0  0
 19 20  1  0  0  0
 20 21  1  0  0  0
 19  1  1  0  0  0
  1  2  1  0  0  0
  2  3  2  0  0  0
  3  4  1  0  0  0
  4  5  2  0  0  0
  3  6  1  0  0  0
  6  7  2  0  0  0
  7  8  1  0  0  0
  8  9  2  0  0  0
  9 10  1  0  0  0
 10 11  2  0  0  0
 11 12  1  0  0  0
 12 13  2  0  0  0
 13 14  1  0  0  0
 21 16  1  0  0  0
  5  1  1  0  0  0
 14  6  1  0  0  0
 14  9  1  0  0  0
M  END
> <minimizedAffinity>
-7.89573

> <CNNscore>
0.6823025346

> <CNNaffinity>
6.4723768234

> <CNN_VS>
4.4161190987

> <CNNaffinity_variance>
0.0927543789

$$$$
[H]c1nn(C2([H])C([H])([H])C([H])([H])N(C([H])([H])[H])C([H])([H])C2([H])[H])c([H])c1-c1c([H])nc2c([H])c([H])c([H])c([H])n12


 21 24  0  0  0  0  0  0  0  0999 V2000
  -19.8251   10.1521  -16.1538 N   0  0  0  0  0  0  0  0  0  0  0  0
  -19.5077   11.0205  -17.1691 C   0  0  0  0  0  0  0  0  0  0  0  0
  -18.5829   10.4165  -17.9722 C   0  0  0  0  0  0  0  0  0  0  0  0
  -18.3567    9.1575  -17.4046 C   0  0  0  0  0  0  0  0  0  0  0  0
  -19.1242    9.0627  -16.3281 N   0  0  0  0  0  0  0  0  0  0  0  0
  -17.9252   10.8900  -19.1642 C   0  0  0  0  0  0  0  0  0  0  0  0
  -16.8636   10.2196  -19.7822 C   0  0  0  0  0  0  0  0  0  0  0  0
  -16.4392   10.8643  -20.8602 N   0  0  0  0  0  0  0  0  0  0  0  0
  -17.2099   11.9617  -20.9676 C   0  0  0  0  0  0  0  0  0  0  0  0
  -17.1427   12.9350  -21.9314 C   0  0  0  0  0  0  0  0  0  0  0  0
  -18.0425   13.9710  -21.8336 C   0  0  0  0  0  0  0  0  0  0  0  0
  -18.9538   14.0043  -20.8096 C   0  0  0  0  0  0  0  0  0  0  0  0
  -18.9653   12.9758  -19.8599 C   0  0  0  0  0  0  0  0  0  0  0  0
  -18.1030   11.9669  -19.9389 N   0  0  0  0  0  0  0  0  0  0  0  0
  -23.8963   12.0737  -12.9970 C   0  0  0  0  0  0  0  0  0  0  0  0
  -22.8102   11.1838  -13.4368 N   0  0  0  0  0  0  0  0  0  0  0  0
  -23.1847   10.7333  -14.7651 C   0  0  0  0  0  0  0  0  0  0  0  0
  -22.1379    9.9030  -15.4289 C   0  0  0  0  0  0  0  0  0  0  0  0
  -20.7627   10.3735  -15.0707 C   0  0  0  0  0  0  0  0  0  0  0  0
  -20.8565   11.8629  -14.7534 C   0  0  0  0  0  0  0  0  0  0  0  0
  -21.6092   11.9651  -13.4359 C   0  0  0  0  0  0  0  0  0  0  0  0
 15 16  1  0  0  0
 16 17  1  0  0  0
 17 18  1  0  0  0
 18 19  1  0  0  0
 19 20  1  0  0  0
 20 21  1  0  0  0
 19  1  1  0  0  0
  1  2  1  0  0  0
  2  3  2  0  0  0
  3  4  1  0  0  0
  4  5  2  0  0  0
  3  6  1  0  0  0
  6  7  2  0  0  0
  7  8  1  0  0  0
  8  9  2  0  0  0
  9 10  1  0  0  0
 10 11  2  0  0  0
 11 12  1  0  0  0
 12 13  2  0  0  0
 13 14  1  0  0  0
 21 16  1  0  0  0
  5  1  1  0  0  0
 14  6  1  0  0  0
 14  9  1  0  0  0
M  END
> <minimizedAffinity>
-6.54932

> <CNNscore>
0.6698306203

> <CNNaffinity>
5.8799591064

> <CNN_VS>
3.9385766983

> <CNNaffinity_variance>
0.1212582812

$$$$
[H]c1nn(C2([H])C([H])([H])C([H])([H])N(C([H])([H])[H])C([H])([H])C2([H])[H])c([H])c1-c1c([H])nc2c([H])c([H])c([H])c([H])n12


 21 24  0  0  0  0  0  0  0  0999 V2000
  -17.5975   12.8106  -21.0489 N   0  0  0  0  0  0  0  0  0  0  0  0
  -17.9417   13.4044  -22.2383 C   0  0  0  0  0  0  0  0  0  0  0  0
  -17.1431   12.8884  -23.2185 C   0  0  0  0  0  0  0  0  0  0  0  0
  -16.3090   11.9656  -22.5773 C   0  0  0  0  0  0  0  0  0  0  0  0
  -16.6292   11.9667  -21.2910 N   0  0  0  0  0  0  0  0  0  0  0  0
  -17.0941   13.1686  -24.6316 C   0  0  0  0  0  0  0  0  0  0  0  0
  -17.8159   12.4487  -25.5902 C   0  0  0  0  0  0  0  0  0  0  0  0
  -17.5949   12.9067  -26.8146 N   0  0  0  0  0  0  0  0  0  0  0  0
  -16.7299   13.9284  -26.6816 C   0  0  0  0  0  0  0  0  0  0  0  0
  -16.2086   14.7128  -27.6783 C   0  0  0  0  0  0  0  0  0  0  0  0
  -15.3356   15.7054  -27.2970 C   0  0  0  0  0  0  0  0  0  0  0  0
  -15.0187   15.8804  -25.9745 C   0  0  0  0  0  0  0  0  0  0  0  0
  -15.5891   15.0418  -25.0095 C   0  0  0  0  0  0  0  0  0  0  0  0
  -16.4347   14.0774  -25.3600 N   0  0  0  0  0  0  0  0  0  0  0  0
  -20.8199   12.6876  -16.5954 C   0  0  0  0  0  0  0  0  0  0  0  0
  -19.6599   13.0250  -17.4354 N   0  0  0  0  0  0  0  0  0  0  0  0
  -19.0968   11.7550  -17.8566 C   0  0  0  0  0  0  0  0  0  0  0  0
  -17.9675   11.8956  -18.8214 C   0  0  0  0  0  0  0  0  0  0  0  0
  -18.1825   13.0537  -19.7451 C   0  0  0  0  0  0  0  0  0  0  0  0
  -19.6883   13.2619  -19.8756 C   0  0  0  0  0  0  0  0  0  0  0  0
  -20.1557   13.8015  -18.5328 C   0  0  0  0  0  0  0  0  0  0  0  0
 15 16  1  0  0  0
 16 17  1  0  0  0
 17 18  1  0  0  0
 18 19  1  0  0  0
 19 20  1  0  0  0
 20 21  1  0  0  0
 19  1  1  0  0  0
  1  2  1  0  0  0
  2  3  2  0  0  0
  3  4  1  0  0  0
  4  5  2  0  0  0
  3  6  1  0  0  0
  6  7  2  0  0  0
  7  8  1  0  0  0
  8  9  2  0  0  0
  9 10  1  0  0  0
 10 11  2  0  0  0
 11 12  1  0  0  0
 12 13  2  0  0  0
 13 14  1  0  0  0
 21 16  1  0  0  0
  5  1  1  0  0  0
 14  6  1  0  0  0
 14  9  1  0  0  0
M  END
> <minimizedAffinity>
-7.66194

> <CNNscore>
0.6288968325

> <CNNaffinity>
6.4678864479

> <CNN_VS>
4.0676331520

> <CNNaffinity_variance>
0.1141000167

$$$$
[H]c1nn(C2([H])C([H])([H])C([H])([H])N(C([H])([H])[H])C([H])([H])C2([H])[H])c([H])c1-c1c([H])nc2c([H])c([H])c([H])c([H])n12


 21 24  0  0  0  0  0  0  0  0999 V2000
  -16.8544   13.4320  -22.2665 N   0  0  0  0  0  0  0  0  0  0  0  0
  -17.6640   13.7464  -21.2027 C   0  0  0  0  0  0  0  0  0  0  0  0
  -17.8990   12.6029  -20.4942 C   0  0  0  0  0  0  0  0  0  0  0  0
  -17.2035   11.5928  -21.1683 C   0  0  0  0  0  0  0  0  0  0  0  0
  -16.6045   12.1502  -22.2112 N   0  0  0  0  0  0  0  0  0  0  0  0
  -18.6781   12.3831  -19.3016 C   0  0  0  0  0  0  0  0  0  0  0  0
  -19.5842   13.3157  -18.7845 C   0  0  0  0  0  0  0  0  0  0  0  0
  -20.1701   12.8694  -17.6821 N   0  0  0  0  0  0  0  0  0  0  0  0
  -19.6619   11.6440  -17.4581 C   0  0  0  0  0  0  0  0  0  0  0  0
  -19.9681   10.7913  -16.4286 C   0  0  0  0  0  0  0  0  0  0  0  0
  -19.3148    9.5808  -16.4078 C   0  0  0  0  0  0  0  0  0  0  0  0
  -18.4043    9.2668  -17.3836 C   0  0  0  0  0  0  0  0  0  0  0  0
  -18.1406   10.1864  -18.4058 C   0  0  0  0  0  0  0  0  0  0  0  0
  -18.7627   11.3609  -18.4415 N   0  0  0  0  0  0  0  0  0  0  0  0
  -14.9316   15.5701  -26.9530 C   0  0  0  0  0  0  0  0  0  0  0  0
  -15.4672   15.5376  -25.5829 N   0  0  0  0  0  0  0  0  0  0  0  0
  -16.7298   14.8266  -25.6712 C   0  0  0  0  0  0  0  0  0  0  0  0
  -17.3734   14.5903  -24.3462 C   0  0  0  0  0  0  0  0  0  0  0  0
  -16.3511   14.3344  -23.2831 C   0  0  0  0  0  0  0  0  0  0  0  0
  -15.1259   13.7299  -23.9621 C   0  0  0  0  0  0  0  0  0  0  0  0
  -14.5012   14.8514  -24.7773 C   0  0  0  0  0  0  0  0  0  0  0  0
 15 16  1  0  0  0
 16 17  1  0  0  0
 17 18  1  0  0  0
 18 19  1  0  0  0
 19 20  1  0  0  0
 20 21  1  0  0  0
 19  1  1  0  0  0
  1  2  1  0  0  0
  2  3  2  0  0  0
  3  4  1  0  0  0
  4  5  2  0  0  0
  3  6  1  0  0  0
  6  7  2  0  0  0
  7  8  1  0  0  0
  8  9  2  0  0  0
  9 10  1  0  0  0
 10 11  2  0  0  0
 11 12  1  0  0  0
 12 13  2  0  0  0
 13 14  1  0  0  0
 21 16  1  0  0  0
  5  1  1  0  0  0
 14  6  1  0  0  0
 14  9  1  0  0  0
M  END
> <minimizedAffinity>
-7.96283

> <CNNscore>
0.5562385917

> <CNNaffinity>
6.3162069321

> <CNN_VS>
3.5133180618

> <CNNaffinity_variance>
0.0452487543

$$$$
[H]c1nn(C2([H])C([H])([H])C([H])([H])N(C([H])([H])[H])C([H])([H])C2([H])[H])c([H])c1-c1c([H])nc2c([H])c([H])c([H])c([H])n12


 21 24  0  0  0  0  0  0  0  0999 V2000
  -17.5361   12.1709  -20.2245 N   0  0  0  0  0  0  0  0  0  0  0  0
  -17.7331   13.0536  -21.2578 C   0  0  0  0  0  0  0  0  0  0  0  0
  -17.0086   12.6208  -22.3314 C   0  0  0  0  0  0  0  0  0  0  0  0
  -16.3708   11.4495  -21.9073 C   0  0  0  0  0  0  0  0  0  0  0  0
  -16.7251   11.2372  -20.6478 N   0  0  0  0  0  0  0  0  0  0  0  0
  -16.8674   13.1787  -23.6529 C   0  0  0  0  0  0  0  0  0  0  0  0
  -17.8376   13.0562  -24.6538 C   0  0  0  0  0  0  0  0  0  0  0  0
  -17.4632   13.6581  -25.7743 N   0  0  0  0  0  0  0  0  0  0  0  0
  -16.2488   14.1825  -25.5296 C   0  0  0  0  0  0  0  0  0  0  0  0
  -15.4618   14.8991  -26.3945 C   0  0  0  0  0  0  0  0  0  0  0  0
  -14.2488   15.3366  -25.9153 C   0  0  0  0  0  0  0  0  0  0  0  0
  -13.8687   15.0551  -24.6283 C   0  0  0  0  0  0  0  0  0  0  0  0
  -14.7232   14.3178  -23.8000 C   0  0  0  0  0  0  0  0  0  0  0  0
  -15.8992   13.8871  -24.2465 N   0  0  0  0  0  0  0  0  0  0  0  0
  -20.9098   11.7982  -15.8988 C   0  0  0  0  0  0  0  0  0  0  0  0
  -19.6621   12.0265  -16.6445 N   0  0  0  0  0  0  0  0  0  0  0  0
  -19.4048   10.7939  -17.3670 C   0  0  0  0  0  0  0  0  0  0  0  0
  -18.2284   10.8746  -18.2811 C   0  0  0  0  0  0  0  0  0  0  0  0
  -18.1087   12.2349  -18.8944 C   0  0  0  0  0  0  0  0  0  0  0  0
  -19.5100   12.8352  -18.9541 C   0  0  0  0  0  0  0  0  0  0  0  0
  -19.8985   13.1393  -17.5157 C   0  0  0  0  0  0  0  0  0  0  0  0
 15 16  1  0  0  0
 16 17  1  0  0  0
 17 18  1  0  0  0
 18 19  1  0  0  0
 19 20  1  0  0  0
 20 21  1  0  0  0
 19  1  1  0  0  0
  1  2  1  0  0  0
  2  3  2  0  0  0
  3  4  1  0  0  0
  4  5  2  0  0  0
  3  6  1  0  0  0
  6  7  2  0  0  0
  7  8  1  0  0  0
  8  9  2  0  0  0
  9 10  1  0  0  0
 10 11  2  0  0  0
 11 12  1  0  0  0
 12 13  2  0  0  0
 13 14  1  0  0  0
 21 16  1  0  0  0
  5  1  1  0  0  0
 14  6  1  0  0  0
 14  9  1  0  0  0
M  END
> <minimizedAffinity>
-7.54723

> <CNNscore>
0.5406420231

> <CNNaffinity>
6.2257986069

> <CNN_VS>
3.3659284115

> <CNNaffinity_variance>
0.0598408803

$$$$
[H]c1nc(N([H])c2nc([H])c(C(=O)N([H])C(C([H])([H])[H])(C([H])([H])[H])C([H])([H])[H])c(N([H])C([H])([H])C([H])([H])N(C([H])([H])C([H])([H])[H])C([H])([H])C([H])([H])[H])n2)c([H])c(Oc2c([H])c([H])c([H])c([H])c2F)c1[H]


 39 41  0  0  0  0  0  0  0  0999 V2000
  -17.8796   13.2350  -21.3425 C   0  0  0  0  0  0  0  0  0  0  0  0
  -17.8357   12.3905  -20.2587 N   0  0  0  0  0  0  0  0  0  0  0  0
  -17.0305   11.3332  -20.2473 C   0  0  0  0  0  0  0  0  0  0  0  0
  -16.2660   11.1086  -21.3087 N   0  0  0  0  0  0  0  0  0  0  0  0
  -16.2735   11.9140  -22.4036 C   0  0  0  0  0  0  0  0  0  0  0  0
  -17.1008   13.0256  -22.4494 C   0  0  0  0  0  0  0  0  0  0  0  0
  -17.0691   13.8694  -23.6107 C   0  0  0  0  0  0  0  0  0  0  0  0
  -18.0936   14.3575  -24.1167 O   0  0  0  0  0  0  0  0  0  0  0  0
  -15.8549   14.1966  -24.2534 N   0  0  0  0  0  0  0  0  0  0  0  0
  -14.9646   13.8312  -23.8980 H   0  0  0  0  0  0  0  0  0  0  0  0
  -15.7991   15.0502  -25.4300 C   0  0  0  0  0  0  0  0  0  0  0  0
  -14.3674   15.2345  -25.8343 C   0  0  0  0  0  0  0  0  0  0  0  0
  -16.6330   14.3980  -26.5105 C   0  0  0  0  0  0  0  0  0  0  0  0
  -16.3917   16.4180  -25.1745 C   0  0  0  0  0  0  0  0  0  0  0  0
  -18.8020   14.2842  -21.2386 N   0  0  0  0  0  0  0  0  0  0  0  0
  -19.2412   14.7001  -22.0852 H   0  0  0  0  0  0  0  0  0  0  0  0
  -19.2070   14.8435  -19.9519 C   0  0  0  0  0  0  0  0  0  0  0  0
  -19.5227   16.2933  -20.0931 C   0  0  0  0  0  0  0  0  0  0  0  0
  -18.4582   17.0288  -20.6683 N   0  0  0  0  0  0  0  0  0  0  0  0
  -16.1458   17.8870  -20.5092 C   0  0  0  0  0  0  0  0  0  0  0  0
  -17.2663   17.0445  -19.9372 C   0  0  0  0  0  0  0  0  0  0  0  0
  -18.7414   18.0442  -21.5904 C   0  0  0  0  0  0  0  0  0  0  0  0
  -19.1523   17.5023  -22.9423 C   0  0  0  0  0  0  0  0  0  0  0  0
  -16.9766   10.4495  -19.1379 N   0  0  0  0  0  0  0  0  0  0  0  0
  -16.1190    9.8344  -18.9828 H   0  0  0  0  0  0  0  0  0  0  0  0
  -18.0128   10.3262  -18.1986 C   0  0  0  0  0  0  0  0  0  0  0  0
  -18.2595    9.1368  -17.5594 C   0  0  0  0  0  0  0  0  0  0  0  0
  -19.3031    9.0342  -16.6307 C   0  0  0  0  0  0  0  0  0  0  0  0
  -20.0591   10.1551  -16.3885 C   0  0  0  0  0  0  0  0  0  0  0  0
  -19.8046   11.3587  -17.0392 C   0  0  0  0  0  0  0  0  0  0  0  0
  -18.7855   11.3746  -17.9157 N   0  0  0  0  0  0  0  0  0  0  0  0
  -19.5065    7.8209  -16.0190 O   0  0  0  0  0  0  0  0  0  0  0  0
  -20.3745    7.7196  -14.9479 C   0  0  0  0  0  0  0  0  0  0  0  0
  -21.6626    7.2546  -15.1359 C   0  0  0  0  0  0  0  0  0  0  0  0
  -22.5124    7.1595  -14.0614 C   0  0  0  0  0  0  0  0  0  0  0  0
  -22.1075    7.5184  -12.7973 C   0  0  0  0  0  0  0  0  0  0  0  0
  -20.8298    7.9776  -12.6221 C   0  0  0  0  0  0  0  0  0  0  0  0
  -19.9540    8.0843  -13.6815 C   0  0  0  0  0  0  0  0  0  0  0  0
  -18.6764    8.5468  -13.4860 F   0  0  0  0  0  0  0  0  0  0  0  0
 20 21  1  0  0  0
 21 19  1  0  0  0
 19 22  1  0  0  0
 22 23  1  0  0  0
 19 18  1  0  0  0
 18 17  1  0  0  0
 17 15  1  0  0  0
 15  1  1  0  0  0
  1  2  2  0  0  0
  2  3  1  0  0  0
  3 24  1  0  0  0
 24 26  1  0  0  0
 26 27  2  0  0  0
 27 28  1  0  0  0
 28 32  1  0  0  0
 32 33  1  0  0  0
 33 34  2  0  0  0
 34 35  1  0  0  0
 35 36  2  0  0  0
 36 37  1  0  0  0
 37 38  2  0  0  0
 38 39  1  0  0  0
 28 29  2  0  0  0
 29 30  1  0  0  0
 30 31  2  0  0  0
  3  4  2  0  0  0
  4  5  1  0  0  0
  5  6  2  0  0  0
  6  7  1  0  0  0
  7  8  2  0  0  0
  7  9  1  0  0  0
  9 11  1  0  0  0
 11 12  1  0  0  0
 11 13  1  0  0  0
 11 14  1  0  0  0
  6  1  1  0  0  0
 31 26  1  0  0  0
 38 33  1  0  0  0
 15 16  1  0  0  0
 24 25  1  0  0  0
  9 10  1  0  0  0
M  END
> <minimizedAffinity>
-7.60029

> <CNNscore>
0.7466336489

> <CNNaffinity>
7.5909013748

> <CNN_VS>
5.6676225662

> <CNNaffinity_variance>
0.0462059602

$$$$
[H]c1nc(N([H])c2nc([H])c(C(=O)N([H])C(C([H])([H])[H])(C([H])([H])[H])C([H])([H])[H])c(N([H])C([H])([H])C([H])([H])N(C([H])([H])C([H])([H])[H])C([H])([H])C([H])([H])[H])n2)c([H])c(Oc2c([H])c([H])c([H])c([H])c2F)c1[H]


 39 41  0  0  0  0  0  0  0  0999 V2000
  -19.1988   13.6361  -16.9160 C   0  0  0  0  0  0  0  0  0  0  0  0
  -18.3067   12.7943  -17.5368 N   0  0  0  0  0  0  0  0  0  0  0  0
  -18.6242   11.5295  -17.7931 C   0  0  0  0  0  0  0  0  0  0  0  0
  -19.8258   11.0938  -17.4358 N   0  0  0  0  0  0  0  0  0  0  0  0
  -20.7420   11.8870  -16.8202 C   0  0  0  0  0  0  0  0  0  0  0  0
  -20.4446   13.2113  -16.5379 C   0  0  0  0  0  0  0  0  0  0  0  0
  -21.4419   14.0294  -15.9072 C   0  0  0  0  0  0  0  0  0  0  0  0
  -21.9977   13.7128  -14.8420 O   0  0  0  0  0  0  0  0  0  0  0  0
  -21.8542   15.2574  -16.4699 N   0  0  0  0  0  0  0  0  0  0  0  0
  -21.4445   15.5886  -17.3501 H   0  0  0  0  0  0  0  0  0  0  0  0
  -22.8617   16.1025  -15.8479 C   0  0  0  0  0  0  0  0  0  0  0  0
  -22.4468   16.4038  -14.4392 C   0  0  0  0  0  0  0  0  0  0  0  0
  -23.0035   17.3476  -16.6952 C   0  0  0  0  0  0  0  0  0  0  0  0
  -24.2193   15.4375  -15.8025 C   0  0  0  0  0  0  0  0  0  0  0  0
  -18.7194   14.9290  -16.6692 N   0  0  0  0  0  0  0  0  0  0  0  0
  -18.7712   15.3496  -15.7189 H   0  0  0  0  0  0  0  0  0  0  0  0
  -18.1149   15.7506  -17.7141 C   0  0  0  0  0  0  0  0  0  0  0  0
  -19.1511   16.5941  -18.3748 C   0  0  0  0  0  0  0  0  0  0  0  0
  -19.4779   16.1367  -19.6743 N   0  0  0  0  0  0  0  0  0  0  0  0
  -20.8174   14.0919  -20.0404 C   0  0  0  0  0  0  0  0  0  0  0  0
  -20.7560   15.5890  -19.8218 C   0  0  0  0  0  0  0  0  0  0  0  0
  -18.4508   15.7973  -20.5640 C   0  0  0  0  0  0  0  0  0  0  0  0
  -17.7310   17.0115  -21.1096 C   0  0  0  0  0  0  0  0  0  0  0  0
  -17.7129   10.6467  -18.4295 N   0  0  0  0  0  0  0  0  0  0  0  0
  -17.4397    9.7281  -17.9611 H   0  0  0  0  0  0  0  0  0  0  0  0
  -17.1263   10.9111  -19.6774 C   0  0  0  0  0  0  0  0  0  0  0  0
  -17.6356   11.8700  -20.5171 C   0  0  0  0  0  0  0  0  0  0  0  0
  -17.0387   12.1126  -21.7609 C   0  0  0  0  0  0  0  0  0  0  0  0
  -15.9392   11.3633  -22.1021 C   0  0  0  0  0  0  0  0  0  0  0  0
  -15.4267   10.3924  -21.2469 C   0  0  0  0  0  0  0  0  0  0  0  0
  -16.0566   10.2207  -20.0718 N   0  0  0  0  0  0  0  0  0  0  0  0
  -17.5880   13.0839  -22.5625 O   0  0  0  0  0  0  0  0  0  0  0  0
  -16.8088   13.7305  -23.5037 C   0  0  0  0  0  0  0  0  0  0  0  0
  -15.8105   14.5992  -23.1044 C   0  0  0  0  0  0  0  0  0  0  0  0
  -15.0449   15.2334  -24.0518 C   0  0  0  0  0  0  0  0  0  0  0  0
  -15.2512   15.0216  -25.3946 C   0  0  0  0  0  0  0  0  0  0  0  0
  -16.2424   14.1593  -25.7793 C   0  0  0  0  0  0  0  0  0  0  0  0
  -17.0273   13.5082  -24.8515 C   0  0  0  0  0  0  0  0  0  0  0  0
  -18.0165   12.6470  -25.2566 F   0  0  0  0  0  0  0  0  0  0  0  0
 20 21  1  0  0  0
 21 19  1  0  0  0
 19 22  1  0  0  0
 22 23  1  0  0  0
 19 18  1  0  0  0
 18 17  1  0  0  0
 17 15  1  0  0  0
 15  1  1  0  0  0
  1  2  2  0  0  0
  2  3  1  0  0  0
  3 24  1  0  0  0
 24 26  1  0  0  0
 26 27  2  0  0  0
 27 28  1  0  0  0
 28 32  1  0  0  0
 32 33  1  0  0  0
 33 34  2  0  0  0
 34 35  1  0  0  0
 35 36  2  0  0  0
 36 37  1  0  0  0
 37 38  2  0  0  0
 38 39  1  0  0  0
 28 29  2  0  0  0
 29 30  1  0  0  0
 30 31  2  0  0  0
  3  4  2  0  0  0
  4  5  1  0  0  0
  5  6  2  0  0  0
  6  7  1  0  0  0
  7  8  2  0  0  0
  7  9  1  0  0  0
  9 11  1  0  0  0
 11 12  1  0  0  0
 11 13  1  0  0  0
 11 14  1  0  0  0
  6  1  1  0  0  0
 31 26  1  0  0  0
 38 33  1  0  0  0
 15 16  1  0  0  0
 24 25  1  0  0  0
  9 10  1  0  0  0
M  END
> <minimizedAffinity>
-7.33880

> <CNNscore>
0.6121940613

> <CNNaffinity>
7.4363660812

> <CNN_VS>
4.5524992943

> <CNNaffinity_variance>
0.0550659671

$$$$
[H]c1nc(N([H])c2nc([H])c(C(=O)N([H])C(C([H])([H])[H])(C([H])([H])[H])C([H])([H])[H])c(N([H])C([H])([H])C([H])([H])N(C([H])([H])C([H])([H])[H])C([H])([H])C([H])([H])[H])n2)c([H])c(Oc2c([H])c([H])c([H])c([H])c2F)c1[H]


 39 41  0  0  0  0  0  0  0  0999 V2000
  -18.0073   12.5595  -20.1024 C   0  0  0  0  0  0  0  0  0  0  0  0
  -18.1165   11.7122  -19.0254 N   0  0  0  0  0  0  0  0  0  0  0  0
  -17.4923   10.5390  -19.0118 C   0  0  0  0  0  0  0  0  0  0  0  0
  -16.7582   10.2006  -20.0644 N   0  0  0  0  0  0  0  0  0  0  0  0
  -16.6193   11.0035  -21.1524 C   0  0  0  0  0  0  0  0  0  0  0  0
  -17.2558   12.2342  -21.2001 C   0  0  0  0  0  0  0  0  0  0  0  0
  -17.0711   13.0690  -22.3536 C   0  0  0  0  0  0  0  0  0  0  0  0
  -16.6471   14.2347  -22.2803 O   0  0  0  0  0  0  0  0  0  0  0  0
  -17.3653   12.6067  -23.6551 N   0  0  0  0  0  0  0  0  0  0  0  0
  -17.7219   11.6558  -23.7999 H   0  0  0  0  0  0  0  0  0  0  0  0
  -17.1847   13.4345  -24.8376 C   0  0  0  0  0  0  0  0  0  0  0  0
  -17.4825   12.6168  -26.0583 C   0  0  0  0  0  0  0  0  0  0  0  0
  -18.0948   14.6351  -24.7012 C   0  0  0  0  0  0  0  0  0  0  0  0
  -15.7713   13.9584  -24.9601 C   0  0  0  0  0  0  0  0  0  0  0  0
  -18.7500   13.7430  -20.0023 N   0  0  0  0  0  0  0  0  0  0  0  0
  -19.6230   13.8784  -20.5521 H   0  0  0  0  0  0  0  0  0  0  0  0
  -18.3562   14.8403  -19.1229 C   0  0  0  0  0  0  0  0  0  0  0  0
  -18.3431   16.1276  -19.8742 C   0  0  0  0  0  0  0  0  0  0  0  0
  -19.5238   16.8842  -19.6786 N   0  0  0  0  0  0  0  0  0  0  0  0
  -19.3563   18.8521  -18.1926 C   0  0  0  0  0  0  0  0  0  0  0  0
  -19.7121   17.3937  -18.3901 C   0  0  0  0  0  0  0  0  0  0  0  0
  -20.6153   16.6916  -20.5348 C   0  0  0  0  0  0  0  0  0  0  0  0
  -21.9263   16.5784  -19.7872 C   0  0  0  0  0  0  0  0  0  0  0  0
  -17.5984    9.6512  -17.9094 N   0  0  0  0  0  0  0  0  0  0  0  0
  -16.7887    9.0016  -17.6636 H   0  0  0  0  0  0  0  0  0  0  0  0
  -18.7373    9.5677  -17.0927 C   0  0  0  0  0  0  0  0  0  0  0  0
  -18.9430    8.4947  -16.2617 C   0  0  0  0  0  0  0  0  0  0  0  0
  -20.0899    8.4284  -15.4603 C   0  0  0  0  0  0  0  0  0  0  0  0
  -20.9879    9.4649  -15.5380 C   0  0  0  0  0  0  0  0  0  0  0  0
  -20.7744   10.5506  -16.3821 C   0  0  0  0  0  0  0  0  0  0  0  0
  -19.6496   10.5389  -17.1183 N   0  0  0  0  0  0  0  0  0  0  0  0
  -20.2467    7.3328  -14.6462 O   0  0  0  0  0  0  0  0  0  0  0  0
  -20.5988    7.4976  -13.3196 C   0  0  0  0  0  0  0  0  0  0  0  0
  -21.8570    7.1294  -12.8813 C   0  0  0  0  0  0  0  0  0  0  0  0
  -22.1911    7.2992  -11.5602 C   0  0  0  0  0  0  0  0  0  0  0  0
  -21.2968    7.8296  -10.6604 C   0  0  0  0  0  0  0  0  0  0  0  0
  -20.0534    8.1908  -11.1048 C   0  0  0  0  0  0  0  0  0  0  0  0
  -19.6893    8.0326  -12.4251 C   0  0  0  0  0  0  0  0  0  0  0  0
  -18.4375    8.4006  -12.8520 F   0  0  0  0  0  0  0  0  0  0  0  0
 20 21  1  0  0  0
 21 19  1  0  0  0
 19 22  1  0  0  0
 22 23  1  0  0  0
 19 18  1  0  0  0
 18 17  1  0  0  0
 17 15  1  0  0  0
 15  1  1  0  0  0
  1  2  2  0  0  0
  2  3  1  0  0  0
  3 24  1  0  0  0
 24 26  1  0  0  0
 26 27  2  0  0  0
 27 28  1  0  0  0
 28 32  1  0  0  0
 32 33  1  0  0  0
 33 34  2  0  0  0
 34 35  1  0  0  0
 35 36  2  0  0  0
 36 37  1  0  0  0
 37 38  2  0  0  0
 38 39  1  0  0  0
 28 29  2  0  0  0
 29 30  1  0  0  0
 30 31  2  0  0  0
  3  4  2  0  0  0
  4  5  1  0  0  0
  5  6  2  0  0  0
  6  7  1  0  0  0
  7  8  2  0  0  0
  7  9  1  0  0  0
  9 11  1  0  0  0
 11 12  1  0  0  0
 11 13  1  0  0  0
 11 14  1  0  0  0
  6  1  1  0  0  0
 31 26  1  0  0  0
 38 33  1  0  0  0
 15 16  1  0  0  0
 24 25  1  0  0  0
  9 10  1  0  0  0
M  END
> <minimizedAffinity>
-7.23610

> <CNNscore>
0.6089557409

> <CNNaffinity>
7.3792848587

> <CNN_VS>
4.4936580658

> <CNNaffinity_variance>
0.0594608076

$$$$
[H]c1nc(N([H])c2nc([H])c(C(=O)N([H])C(C([H])([H])[H])(C([H])([H])[H])C([H])([H])[H])c(N([H])C([H])([H])C([H])([H])N(C([H])([H])C([H])([H])[H])C([H])([H])C([H])([H])[H])n2)c([H])c(Oc2c([H])c([H])c([H])c([H])c2F)c1[H]


 39 41  0  0  0  0  0  0  0  0999 V2000
  -17.6147   13.5191  -21.0396 C   0  0  0  0  0  0  0  0  0  0  0  0
  -17.5960   12.6650  -19.9626 N   0  0  0  0  0  0  0  0  0  0  0  0
  -17.0395   11.4615  -20.0534 C   0  0  0  0  0  0  0  0  0  0  0  0
  -16.4998   11.0996  -21.2106 N   0  0  0  0  0  0  0  0  0  0  0  0
  -16.4933   11.9080  -22.3033 C   0  0  0  0  0  0  0  0  0  0  0  0
  -17.0645   13.1699  -22.2441 C   0  0  0  0  0  0  0  0  0  0  0  0
  -17.0214   14.0087  -23.4086 C   0  0  0  0  0  0  0  0  0  0  0  0
  -18.0277   14.5738  -23.8691 O   0  0  0  0  0  0  0  0  0  0  0  0
  -15.8164   14.2419  -24.1072 N   0  0  0  0  0  0  0  0  0  0  0  0
  -14.9414   13.8094  -23.7915 H   0  0  0  0  0  0  0  0  0  0  0  0
  -15.7494   15.0887  -25.2882 C   0  0  0  0  0  0  0  0  0  0  0  0
  -16.3358   16.4295  -24.9636 C   0  0  0  0  0  0  0  0  0  0  0  0
  -14.2998   15.1711  -25.7126 C   0  0  0  0  0  0  0  0  0  0  0  0
  -16.5224   14.5106  -26.4526 C   0  0  0  0  0  0  0  0  0  0  0  0
  -18.2697   14.7374  -20.8177 N   0  0  0  0  0  0  0  0  0  0  0  0
  -17.7663   15.6433  -20.9098 H   0  0  0  0  0  0  0  0  0  0  0  0
  -19.6834   14.8102  -20.4595 C   0  0  0  0  0  0  0  0  0  0  0  0
  -19.9933   16.1286  -19.8371 C   0  0  0  0  0  0  0  0  0  0  0  0
  -20.5217   16.0026  -18.5295 N   0  0  0  0  0  0  0  0  0  0  0  0
  -18.7448   15.1888  -17.0165 C   0  0  0  0  0  0  0  0  0  0  0  0
  -20.0294   14.9325  -17.7761 C   0  0  0  0  0  0  0  0  0  0  0  0
  -21.7676   16.5691  -18.2323 C   0  0  0  0  0  0  0  0  0  0  0  0
  -21.6455   17.8978  -17.5183 C   0  0  0  0  0  0  0  0  0  0  0  0
  -17.0157   10.5665  -18.9520 N   0  0  0  0  0  0  0  0  0  0  0  0
  -16.1443    9.9846  -18.7521 H   0  0  0  0  0  0  0  0  0  0  0  0
  -18.1001   10.3896  -18.0779 C   0  0  0  0  0  0  0  0  0  0  0  0
  -18.3597    9.1722  -17.4993 C   0  0  0  0  0  0  0  0  0  0  0  0
  -19.4512    9.0163  -16.6355 C   0  0  0  0  0  0  0  0  0  0  0  0
  -20.2404   10.1142  -16.3939 C   0  0  0  0  0  0  0  0  0  0  0  0
  -19.9727   11.3464  -16.9830 C   0  0  0  0  0  0  0  0  0  0  0  0
  -18.9068   11.4133  -17.7995 N   0  0  0  0  0  0  0  0  0  0  0  0
  -19.6657    7.7769  -16.0827 O   0  0  0  0  0  0  0  0  0  0  0  0
  -20.2208    7.6651  -14.8216 C   0  0  0  0  0  0  0  0  0  0  0  0
  -19.4850    8.0089  -13.7030 C   0  0  0  0  0  0  0  0  0  0  0  0
  -20.0512    7.8925  -12.4573 C   0  0  0  0  0  0  0  0  0  0  0  0
  -21.3397    7.4396  -12.2985 C   0  0  0  0  0  0  0  0  0  0  0  0
  -22.0597    7.1020  -13.4129 C   0  0  0  0  0  0  0  0  0  0  0  0
  -21.5183    7.2079  -14.6764 C   0  0  0  0  0  0  0  0  0  0  0  0
  -22.2560    6.8646  -15.7820 F   0  0  0  0  0  0  0  0  0  0  0  0
 20 21  1  0  0  0
 21 19  1  0  0  0
 19 22  1  0  0  0
 22 23  1  0  0  0
 19 18  1  0  0  0
 18 17  1  0  0  0
 17 15  1  0  0  0
 15  1  1  0  0  0
  1  2  2  0  0  0
  2  3  1  0  0  0
  3 24  1  0  0  0
 24 26  1  0  0  0
 26 27  2  0  0  0
 27 28  1  0  0  0
 28 32  1  0  0  0
 32 33  1  0  0  0
 33 34  2  0  0  0
 34 35  1  0  0  0
 35 36  2  0  0  0
 36 37  1  0  0  0
 37 38  2  0  0  0
 38 39  1  0  0  0
 28 29  2  0  0  0
 29 30  1  0  0  0
 30 31  2  0  0  0
  3  4  2  0  0  0
  4  5  1  0  0  0
  5  6  2  0  0  0
  6  7  1  0  0  0
  7  8  2  0  0  0
  7  9  1  0  0  0
  9 11  1  0  0  0
 11 12  1  0  0  0
 11 13  1  0  0  0
 11 14  1  0  0  0
  6  1  1  0  0  0
 31 26  1  0  0  0
 38 33  1  0  0  0
 15 16  1  0  0  0
 24 25  1  0  0  0
  9 10  1  0  0  0
M  END
> <minimizedAffinity>
-7.15699

> <CNNscore>
0.5933640599

> <CNNaffinity>
7.5877594948

> <CNN_VS>
4.5023036003

> <CNNaffinity_variance>
0.0966040865

$$$$
[H]c1nc(N([H])c2nc([H])c(C(=O)N([H])C(C([H])([H])[H])(C([H])([H])[H])C([H])([H])[H])c(N([H])C([H])([H])C([H])([H])N(C([H])([H])C([H])([H])[H])C([H])([H])C([H])([H])[H])n2)c([H])c(Oc2c([H])c([H])c([H])c([H])c2F)c1[H]


 39 41  0  0  0  0  0  0  0  0999 V2000
  -18.3074   12.3644  -19.7222 C   0  0  0  0  0  0  0  0  0  0  0  0
  -18.4604   11.4745  -18.6855 N   0  0  0  0  0  0  0  0  0  0  0  0
  -17.7773   10.3349  -18.6556 C   0  0  0  0  0  0  0  0  0  0  0  0
  -16.9406   10.0724  -19.6519 N   0  0  0  0  0  0  0  0  0  0  0  0
  -16.7547   10.9198  -20.6982 C   0  0  0  0  0  0  0  0  0  0  0  0
  -17.4505   12.1173  -20.7614 C   0  0  0  0  0  0  0  0  0  0  0  0
  -17.2152   13.0013  -21.8682 C   0  0  0  0  0  0  0  0  0  0  0  0
  -16.8582   14.1825  -21.7226 O   0  0  0  0  0  0  0  0  0  0  0  0
  -17.3792   12.5729  -23.2038 N   0  0  0  0  0  0  0  0  0  0  0  0
  -17.6743   11.6119  -23.4082 H   0  0  0  0  0  0  0  0  0  0  0  0
  -17.1454   13.4507  -24.3401 C   0  0  0  0  0  0  0  0  0  0  0  0
  -15.7025   13.8567  -24.3569 C   0  0  0  0  0  0  0  0  0  0  0  0
  -17.5580   12.7044  -25.5895 C   0  0  0  0  0  0  0  0  0  0  0  0
  -17.9834   14.7081  -24.2750 C   0  0  0  0  0  0  0  0  0  0  0  0
  -19.1186   13.5041  -19.6487 N   0  0  0  0  0  0  0  0  0  0  0  0
  -20.0995   13.4894  -19.9954 H   0  0  0  0  0  0  0  0  0  0  0  0
  -18.6473   14.7628  -19.0779 C   0  0  0  0  0  0  0  0  0  0  0  0
  -18.6241   14.6807  -17.5898 C   0  0  0  0  0  0  0  0  0  0  0  0
  -19.7328   15.3268  -16.9915 N   0  0  0  0  0  0  0  0  0  0  0  0
  -19.2955   17.7502  -17.2038 C   0  0  0  0  0  0  0  0  0  0  0  0
  -19.4520   16.5251  -16.3278 C   0  0  0  0  0  0  0  0  0  0  0  0
  -20.8699   14.5791  -16.6605 C   0  0  0  0  0  0  0  0  0  0  0  0
  -21.9575   15.4238  -16.0328 C   0  0  0  0  0  0  0  0  0  0  0  0
  -17.9270    9.4039  -17.5947 N   0  0  0  0  0  0  0  0  0  0  0  0
  -17.2236    8.6113  -17.4730 H   0  0  0  0  0  0  0  0  0  0  0  0
  -18.9755    9.4583  -16.6626 C   0  0  0  0  0  0  0  0  0  0  0  0
  -18.9362    8.7295  -15.5001 C   0  0  0  0  0  0  0  0  0  0  0  0
  -19.9966    8.7934  -14.5872 C   0  0  0  0  0  0  0  0  0  0  0  0
  -21.0624    9.6026  -14.8970 C   0  0  0  0  0  0  0  0  0  0  0  0
  -21.0972   10.3396  -16.0770 C   0  0  0  0  0  0  0  0  0  0  0  0
  -20.0407   10.2235  -16.9001 N   0  0  0  0  0  0  0  0  0  0  0  0
  -19.9064    8.0443  -13.4389 O   0  0  0  0  0  0  0  0  0  0  0  0
  -19.2571    8.5505  -12.3284 C   0  0  0  0  0  0  0  0  0  0  0  0
  -19.4388    9.8690  -11.9553 C   0  0  0  0  0  0  0  0  0  0  0  0
  -18.7869   10.3564  -10.8492 C   0  0  0  0  0  0  0  0  0  0  0  0
  -17.9540    9.5573  -10.1019 C   0  0  0  0  0  0  0  0  0  0  0  0
  -17.7811    8.2530  -10.4801 C   0  0  0  0  0  0  0  0  0  0  0  0
  -18.4219    7.7354  -11.5856 C   0  0  0  0  0  0  0  0  0  0  0  0
  -18.2361    6.4247  -11.9491 F   0  0  0  0  0  0  0  0  0  0  0  0
 20 21  1  0  0  0
 21 19  1  0  0  0
 19 22  1  0  0  0
 22 23  1  0  0  0
 19 18  1  0  0  0
 18 17  1  0  0  0
 17 15  1  0  0  0
 15  1  1  0  0  0
  1  2  2  0  0  0
  2  3  1  0  0  0
  3 24  1  0  0  0
 24 26  1  0  0  0
 26 27  2  0  0  0
 27 28  1  0  0  0
 28 32  1  0  0  0
 32 33  1  0  0  0
 33 34  2  0  0  0
 34 35  1  0  0  0
 35 36  2  0  0  0
 36 37  1  0  0  0
 37 38  2  0  0  0
 38 39  1  0  0  0
 28 29  2  0  0  0
 29 30  1  0  0  0
 30 31  2  0  0  0
  3  4  2  0  0  0
  4  5  1  0  0  0
  5  6  2  0  0  0
  6  7  1  0  0  0
  7  8  2  0  0  0
  7  9  1  0  0  0
  9 11  1  0  0  0
 11 12  1  0  0  0
 11 13  1  0  0  0
 11 14  1  0  0  0
  6  1  1  0  0  0
 31 26  1  0  0  0
 38 33  1  0  0  0
 15 16  1  0  0  0
 24 25  1  0  0  0
  9 10  1  0  0  0
M  END
> <minimizedAffinity>
-7.53296

> <CNNscore>
0.5801340342

> <CNNaffinity>
7.4238271713

> <CNN_VS>
4.3068146706

> <CNNaffinity_variance>
0.0969292894

$$$$
[H]c1nc(N([H])c2nc([H])c(C(=O)N([H])C(C([H])([H])[H])(C([H])([H])[H])C([H])([H])[H])c(N([H])C([H])([H])C([H])([H])N(C([H])([H])C([H])([H])[H])C([H])([H])C([H])([H])[H])n2)c([H])c(Oc2c([H])c([H])c([H])c([H])c2F)c1[H]


 39 41  0  0  0  0  0  0  0  0999 V2000
  -19.6794   11.3054  -17.4297 C   0  0  0  0  0  0  0  0  0  0  0  0
  -19.0346   11.9609  -18.4517 N   0  0  0  0  0  0  0  0  0  0  0  0
  -18.0022   11.4050  -19.0772 C   0  0  0  0  0  0  0  0  0  0  0  0
  -17.6047   10.1984  -18.6932 N   0  0  0  0  0  0  0  0  0  0  0  0
  -18.2093    9.5104  -17.6889 C   0  0  0  0  0  0  0  0  0  0  0  0
  -19.2892   10.0599  -17.0151 C   0  0  0  0  0  0  0  0  0  0  0  0
  -19.9205    9.2986  -15.9741 C   0  0  0  0  0  0  0  0  0  0  0  0
  -20.2861    9.8022  -14.8987 O   0  0  0  0  0  0  0  0  0  0  0  0
  -20.1647    7.9148  -16.1150 N   0  0  0  0  0  0  0  0  0  0  0  0
  -19.8903    7.4240  -16.9730 H   0  0  0  0  0  0  0  0  0  0  0  0
  -20.8037    7.1244  -15.0743 C   0  0  0  0  0  0  0  0  0  0  0  0
  -19.8819    7.0288  -13.8960 C   0  0  0  0  0  0  0  0  0  0  0  0
  -22.1196    7.7891  -14.7354 C   0  0  0  0  0  0  0  0  0  0  0  0
  -21.1201    5.7190  -15.5347 C   0  0  0  0  0  0  0  0  0  0  0  0
  -20.7228   12.0233  -16.8311 N   0  0  0  0  0  0  0  0  0  0  0  0
  -21.6852   11.6314  -16.7798 H   0  0  0  0  0  0  0  0  0  0  0  0
  -20.5238   13.3437  -16.2400 C   0  0  0  0  0  0  0  0  0  0  0  0
  -21.4883   14.3215  -16.8187 C   0  0  0  0  0  0  0  0  0  0  0  0
  -20.8578   15.2872  -17.6402 N   0  0  0  0  0  0  0  0  0  0  0  0
  -20.8214   16.9600  -15.8210 C   0  0  0  0  0  0  0  0  0  0  0  0
  -20.1188   16.2662  -16.9688 C   0  0  0  0  0  0  0  0  0  0  0  0
  -21.3560   15.5285  -18.9267 C   0  0  0  0  0  0  0  0  0  0  0  0
  -21.2271   14.3243  -19.8342 C   0  0  0  0  0  0  0  0  0  0  0  0
  -17.3233   12.0705  -20.1312 N   0  0  0  0  0  0  0  0  0  0  0  0
  -16.5507   11.5713  -20.6715 H   0  0  0  0  0  0  0  0  0  0  0  0
  -17.6103   13.3876  -20.5238 C   0  0  0  0  0  0  0  0  0  0  0  0
  -17.9303   13.6917  -21.8235 C   0  0  0  0  0  0  0  0  0  0  0  0
  -18.2064   15.0138  -22.1947 C   0  0  0  0  0  0  0  0  0  0  0  0
  -18.1451   15.9802  -21.2205 C   0  0  0  0  0  0  0  0  0  0  0  0
  -17.8204   15.6663  -19.9041 C   0  0  0  0  0  0  0  0  0  0  0  0
  -17.5692   14.3747  -19.6292 N   0  0  0  0  0  0  0  0  0  0  0  0
  -18.5218   15.2634  -23.5085 O   0  0  0  0  0  0  0  0  0  0  0  0
  -17.5263   15.3017  -24.4669 C   0  0  0  0  0  0  0  0  0  0  0  0
  -16.5850   16.3140  -24.4543 C   0  0  0  0  0  0  0  0  0  0  0  0
  -15.6022   16.3376  -25.4131 C   0  0  0  0  0  0  0  0  0  0  0  0
  -15.5341   15.3716  -26.3892 C   0  0  0  0  0  0  0  0  0  0  0  0
  -16.4711   14.3735  -26.3925 C   0  0  0  0  0  0  0  0  0  0  0  0
  -17.4697   14.3234  -25.4432 C   0  0  0  0  0  0  0  0  0  0  0  0
  -18.4003   13.3145  -25.4628 F   0  0  0  0  0  0  0  0  0  0  0  0
 20 21  1  0  0  0
 21 19  1  0  0  0
 19 22  1  0  0  0
 22 23  1  0  0  0
 19 18  1  0  0  0
 18 17  1  0  0  0
 17 15  1  0  0  0
 15  1  1  0  0  0
  1  2  2  0  0  0
  2  3  1  0  0  0
  3 24  1  0  0  0
 24 26  1  0  0  0
 26 27  2  0  0  0
 27 28  1  0  0  0
 28 32  1  0  0  0
 32 33  1  0  0  0
 33 34  2  0  0  0
 34 35  1  0  0  0
 35 36  2  0  0  0
 36 37  1  0  0  0
 37 38  2  0  0  0
 38 39  1  0  0  0
 28 29  2  0  0  0
 29 30  1  0  0  0
 30 31  2  0  0  0
  3  4  2  0  0  0
  4  5  1  0  0  0
  5  6  2  0  0  0
  6  7  1  0  0  0
  7  8  2  0  0  0
  7  9  1  0  0  0
  9 11  1  0  0  0
 11 12  1  0  0  0
 11 13  1  0  0  0
 11 14  1  0  0  0
  6  1  1  0  0  0
 31 26  1  0  0  0
 38 33  1  0  0  0
 15 16  1  0  0  0
 24 25  1  0  0  0
  9 10  1  0  0  0
M  END
> <minimizedAffinity>
-7.17837

> <CNNscore>
0.5133395195

> <CNNaffinity>
7.4220213890

> <CNN_VS>
3.8100168705

> <CNNaffinity_variance>
0.2607425749

$$$$
[H]c1nc(N([H])c2nc([H])c(C(=O)N([H])C(C([H])([H])[H])(C([H])([H])[H])C([H])([H])[H])c(N([H])C([H])([H])C([H])([H])N(C([H])([H])C([H])([H])[H])C([H])([H])C([H])([H])[H])n2)c([H])c(Oc2c([H])c([H])c([H])c([H])c2F)c1[H]


 39 41  0  0  0  0  0  0  0  0999 V2000
  -19.8478   11.6169  -17.2961 C   0  0  0  0  0  0  0  0  0  0  0  0
  -18.9204   12.0560  -18.2109 N   0  0  0  0  0  0  0  0  0  0  0  0
  -17.9655   11.2475  -18.6591 C   0  0  0  0  0  0  0  0  0  0  0  0
  -17.9256   10.0018  -18.2031 N   0  0  0  0  0  0  0  0  0  0  0  0
  -18.8195    9.5210  -17.2990 C   0  0  0  0  0  0  0  0  0  0  0  0
  -19.8287   10.3365  -16.8106 C   0  0  0  0  0  0  0  0  0  0  0  0
  -20.7709    9.7925  -15.8736 C   0  0  0  0  0  0  0  0  0  0  0  0
  -21.9908   10.0203  -15.9361 O   0  0  0  0  0  0  0  0  0  0  0  0
  -20.3592    8.9565  -14.8126 N   0  0  0  0  0  0  0  0  0  0  0  0
  -19.3678    8.7224  -14.6909 H   0  0  0  0  0  0  0  0  0  0  0  0
  -21.2962    8.3936  -13.8528 C   0  0  0  0  0  0  0  0  0  0  0  0
  -22.2617    7.5028  -14.5750 C   0  0  0  0  0  0  0  0  0  0  0  0
  -20.4925    7.6570  -12.8040 C   0  0  0  0  0  0  0  0  0  0  0  0
  -22.0926    9.4607  -13.1356 C   0  0  0  0  0  0  0  0  0  0  0  0
  -20.7710   12.5841  -16.8781 N   0  0  0  0  0  0  0  0  0  0  0  0
  -21.6803   12.3113  -16.4523 H   0  0  0  0  0  0  0  0  0  0  0  0
  -20.5123   14.0159  -17.0022 C   0  0  0  0  0  0  0  0  0  0  0  0
  -21.3198   14.5942  -18.1136 C   0  0  0  0  0  0  0  0  0  0  0  0
  -20.6246   15.6025  -18.8242 N   0  0  0  0  0  0  0  0  0  0  0  0
  -18.6884   17.1319  -18.9691 C   0  0  0  0  0  0  0  0  0  0  0  0
  -19.5347   16.1727  -18.1590 C   0  0  0  0  0  0  0  0  0  0  0  0
  -21.2788   16.3002  -19.8473 C   0  0  0  0  0  0  0  0  0  0  0  0
  -22.4485   17.1145  -19.3383 C   0  0  0  0  0  0  0  0  0  0  0  0
  -16.9981   11.6868  -19.6003 N   0  0  0  0  0  0  0  0  0  0  0  0
  -15.9778   11.3931  -19.4980 H   0  0  0  0  0  0  0  0  0  0  0  0
  -17.3050   12.5110  -20.6947 C   0  0  0  0  0  0  0  0  0  0  0  0
  -16.8389   12.2283  -21.9545 C   0  0  0  0  0  0  0  0  0  0  0  0
  -17.1516   13.0681  -23.0310 C   0  0  0  0  0  0  0  0  0  0  0  0
  -17.9319   14.1702  -22.7797 C   0  0  0  0  0  0  0  0  0  0  0  0
  -18.4020   14.4522  -21.5005 C   0  0  0  0  0  0  0  0  0  0  0  0
  -18.0577   13.5973  -20.5219 N   0  0  0  0  0  0  0  0  0  0  0  0
  -16.6601   12.7388  -24.2711 O   0  0  0  0  0  0  0  0  0  0  0  0
  -16.0731   13.7063  -25.0651 C   0  0  0  0  0  0  0  0  0  0  0  0
  -16.7186   14.1637  -26.1986 C   0  0  0  0  0  0  0  0  0  0  0  0
  -16.1222   15.1255  -26.9766 C   0  0  0  0  0  0  0  0  0  0  0  0
  -14.8917   15.6453  -26.6505 C   0  0  0  0  0  0  0  0  0  0  0  0
  -14.2612   15.1854  -25.5257 C   0  0  0  0  0  0  0  0  0  0  0  0
  -14.8347   14.2205  -24.7253 C   0  0  0  0  0  0  0  0  0  0  0  0
  -14.1870   13.7719  -23.6011 F   0  0  0  0  0  0  0  0  0  0  0  0
 20 21  1  0  0  0
 21 19  1  0  0  0
 19 22  1  0  0  0
 22 23  1  0  0  0
 19 18  1  0  0  0
 18 17  1  0  0  0
 17 15  1  0  0  0
 15  1  1  0  0  0
  1  2  2  0  0  0
  2  3  1  0  0  0
  3 24  1  0  0  0
 24 26  1  0  0  0
 26 27  2  0  0  0
 27 28  1  0  0  0
 28 32  1  0  0  0
 32 33  1  0  0  0
 33 34  2  0  0  0
 34 35  1  0  0  0
 35 36  2  0  0  0
 36 37  1  0  0  0
 37 38  2  0  0  0
 38 39  1  0  0  0
 28 29  2  0  0  0
 29 30  1  0  0  0
 30 31  2  0  0  0
  3  4  2  0  0  0
  4  5  1  0  0  0
  5  6  2  0  0  0
  6  7  1  0  0  0
  7  8  2  0  0  0
  7  9  1  0  0  0
  9 11  1  0  0  0
 11 12  1  0  0  0
 11 13  1  0  0  0
 11 14  1  0  0  0
  6  1  1  0  0  0
 31 26  1  0  0  0
 38 33  1  0  0  0
 15 16  1  0  0  0
 24 25  1  0  0  0
  9 10  1  0  0  0
M  END
> <minimizedAffinity>
-7.89107

> <CNNscore>
0.4452914596

> <CNNaffinity>
7.2739434242

> <CNN_VS>
3.2390248775

> <CNNaffinity_variance>
0.1871793121

$$$$
[H]c1nc(N([H])c2nc([H])c(C(=O)N([H])C(C([H])([H])[H])(C([H])([H])[H])C([H])([H])[H])c(N([H])C([H])([H])C([H])([H])N(C([H])([H])C([H])([H])[H])C([H])([H])C([H])([H])[H])n2)c([H])c(Oc2c([H])c([H])c([H])c([H])c2F)c1[H]


 39 41  0  0  0  0  0  0  0  0999 V2000
  -20.3994   13.3384  -17.4657 C   0  0  0  0  0  0  0  0  0  0  0  0
  -19.7078   12.3909  -18.1825 N   0  0  0  0  0  0  0  0  0  0  0  0
  -18.7031   12.7359  -18.9812 C   0  0  0  0  0  0  0  0  0  0  0  0
  -18.3798   14.0198  -19.0729 N   0  0  0  0  0  0  0  0  0  0  0  0
  -19.0329   14.9932  -18.3847 C   0  0  0  0  0  0  0  0  0  0  0  0
  -20.0852   14.6692  -17.5424 C   0  0  0  0  0  0  0  0  0  0  0  0
  -20.7402   15.7175  -16.8119 C   0  0  0  0  0  0  0  0  0  0  0  0
  -21.9293   16.0263  -16.9975 O   0  0  0  0  0  0  0  0  0  0  0  0
  -20.0605   16.4683  -15.8276 N   0  0  0  0  0  0  0  0  0  0  0  0
  -19.0752   16.2762  -15.6167 H   0  0  0  0  0  0  0  0  0  0  0  0
  -20.7044   17.5338  -15.0749 C   0  0  0  0  0  0  0  0  0  0  0  0
  -19.7459   18.0560  -14.0473 C   0  0  0  0  0  0  0  0  0  0  0  0
  -21.1401   18.5945  -16.0613 C   0  0  0  0  0  0  0  0  0  0  0  0
  -21.9464   17.0574  -14.3553 C   0  0  0  0  0  0  0  0  0  0  0  0
  -21.4602   12.8417  -16.6973 N   0  0  0  0  0  0  0  0  0  0  0  0
  -22.4454   13.0999  -16.9099 H   0  0  0  0  0  0  0  0  0  0  0  0
  -21.2519   11.9338  -15.5727 C   0  0  0  0  0  0  0  0  0  0  0  0
  -21.7923   10.5817  -15.8910 C   0  0  0  0  0  0  0  0  0  0  0  0
  -20.9725    9.5378  -15.3980 N   0  0  0  0  0  0  0  0  0  0  0  0
  -18.9948    9.1126  -16.8183 C   0  0  0  0  0  0  0  0  0  0  0  0
  -19.5958    9.7159  -15.5663 C   0  0  0  0  0  0  0  0  0  0  0  0
  -21.5107    8.2543  -15.2419 C   0  0  0  0  0  0  0  0  0  0  0  0
  -20.9690    7.5424  -14.0212 C   0  0  0  0  0  0  0  0  0  0  0  0
  -17.9820   11.7703  -19.7312 N   0  0  0  0  0  0  0  0  0  0  0  0
  -17.9399   10.7567  -19.4014 H   0  0  0  0  0  0  0  0  0  0  0  0
  -17.2964   12.0706  -20.9190 C   0  0  0  0  0  0  0  0  0  0  0  0
  -17.6431   13.1521  -21.6899 C   0  0  0  0  0  0  0  0  0  0  0  0
  -16.9499   13.4292  -22.8750 C   0  0  0  0  0  0  0  0  0  0  0  0
  -15.9242   12.5877  -23.2304 C   0  0  0  0  0  0  0  0  0  0  0  0
  -15.5765   11.4925  -22.4451 C   0  0  0  0  0  0  0  0  0  0  0  0
  -16.2903   11.2954  -21.3232 N   0  0  0  0  0  0  0  0  0  0  0  0
  -17.3371   14.5244  -23.6088 O   0  0  0  0  0  0  0  0  0  0  0  0
  -16.6827   14.8393  -24.7851 C   0  0  0  0  0  0  0  0  0  0  0  0
  -17.1019   14.2932  -25.9838 C   0  0  0  0  0  0  0  0  0  0  0  0
  -16.4414   14.6164  -27.1436 C   0  0  0  0  0  0  0  0  0  0  0  0
  -15.3678   15.4755  -27.1378 C   0  0  0  0  0  0  0  0  0  0  0  0
  -14.9610   16.0108  -25.9453 C   0  0  0  0  0  0  0  0  0  0  0  0
  -15.6039   15.7050  -24.7648 C   0  0  0  0  0  0  0  0  0  0  0  0
  -15.1814   16.2519  -23.5787 F   0  0  0  0  0  0  0  0  0  0  0  0
 20 21  1  0  0  0
 21 19  1  0  0  0
 19 22  1  0  0  0
 22 23  1  0  0  0
 19 18  1  0  0  0
 18 17  1  0  0  0
 17 15  1  0  0  0
 15  1  1  0  0  0
  1  2  2  0  0  0
  2  3  1  0  0  0
  3 24  1  0  0  0
 24 26  1  0  0  0
 26 27  2  0  0  0
 27 28  1  0  0  0
 28 32  1  0  0  0
 32 33  1  0  0  0
 33 34  2  0  0  0
 34 35  1  0  0  0
 35 36  2  0  0  0
 36 37  1  0  0  0
 37 38  2  0  0  0
 38 39  1  0  0  0
 28 29  2  0  0  0
 29 30  1  0  0  0
 30 31  2  0  0  0
  3  4  2  0  0  0
  4  5  1  0  0  0
  5  6  2  0  0  0
  6  7  1  0  0  0
  7  8  2  0  0  0
  7  9  1  0  0  0
  9 11  1  0  0  0
 11 12  1  0  0  0
 11 13  1  0  0  0
 11 14  1  0  0  0
  6  1  1  0  0  0
 31 26  1  0  0  0
 38 33  1  0  0  0
 15 16  1  0  0  0
 24 25  1  0  0  0
  9 10  1  0  0  0
M  END
> <minimizedAffinity>
-7.38562

> <CNNscore>
0.4402312934

> <CNNaffinity>
7.4241652489

> <CNN_VS>
3.2683498859

> <CNNaffinity_variance>
0.2905908227

$$$$
[H]c1nc(N([H])c2nc([H])c(C(=O)N([H])C(C([H])([H])[H])(C([H])([H])[H])C([H])([H])[H])c(N([H])C([H])([H])C([H])([H])N(C([H])([H])C([H])([H])[H])C([H])([H])C([H])([H])[H])n2)c([H])c(Oc2c([H])c([H])c([H])c([H])c2F)c1[H]


 39 41  0  0  0  0  0  0  0  0999 V2000
  -19.0645   12.5268  -19.9737 C   0  0  0  0  0  0  0  0  0  0  0  0
  -18.2815   12.5659  -21.1029 N   0  0  0  0  0  0  0  0  0  0  0  0
  -17.1126   11.9350  -21.1472 C   0  0  0  0  0  0  0  0  0  0  0  0
  -16.7150   11.2633  -20.0737 N   0  0  0  0  0  0  0  0  0  0  0  0
  -17.4532   11.1950  -18.9344 C   0  0  0  0  0  0  0  0  0  0  0  0
  -18.6773   11.8407  -18.8535 C   0  0  0  0  0  0  0  0  0  0  0  0
  -19.4436   11.7307  -17.6442 C   0  0  0  0  0  0  0  0  0  0  0  0
  -20.1294   12.6640  -17.1942 O   0  0  0  0  0  0  0  0  0  0  0  0
  -19.4613   10.5391  -16.8865 N   0  0  0  0  0  0  0  0  0  0  0  0
  -18.9191    9.7228  -17.1900 H   0  0  0  0  0  0  0  0  0  0  0  0
  -20.2311   10.4049  -15.6594 C   0  0  0  0  0  0  0  0  0  0  0  0
  -21.6917   10.4926  -15.9852 C   0  0  0  0  0  0  0  0  0  0  0  0
  -19.8519    9.0870  -15.0211 C   0  0  0  0  0  0  0  0  0  0  0  0
  -19.9098   11.4931  -14.6594 C   0  0  0  0  0  0  0  0  0  0  0  0
  -20.2500   13.2694  -20.0492 N   0  0  0  0  0  0  0  0  0  0  0  0
  -21.1684   12.8422  -19.8113 H   0  0  0  0  0  0  0  0  0  0  0  0
  -20.2679   14.6733  -20.4502 C   0  0  0  0  0  0  0  0  0  0  0  0
  -19.3966   15.4808  -19.5500 C   0  0  0  0  0  0  0  0  0  0  0  0
  -20.1356   16.2096  -18.5870 N   0  0  0  0  0  0  0  0  0  0  0  0
  -18.2797   15.6271  -17.0621 C   0  0  0  0  0  0  0  0  0  0  0  0
  -19.4548   16.5182  -17.4053 C   0  0  0  0  0  0  0  0  0  0  0  0
  -21.5351   16.1600  -18.6103 C   0  0  0  0  0  0  0  0  0  0  0  0
  -22.1146   15.5370  -17.3588 C   0  0  0  0  0  0  0  0  0  0  0  0
  -16.2907   11.9692  -22.3039 N   0  0  0  0  0  0  0  0  0  0  0  0
  -15.6059   11.1749  -22.4993 H   0  0  0  0  0  0  0  0  0  0  0  0
  -16.3195   13.0148  -23.2403 C   0  0  0  0  0  0  0  0  0  0  0  0
  -15.9868   14.2989  -22.8874 C   0  0  0  0  0  0  0  0  0  0  0  0
  -16.0291   15.3284  -23.8363 C   0  0  0  0  0  0  0  0  0  0  0  0
  -16.4114   15.0066  -25.1158 C   0  0  0  0  0  0  0  0  0  0  0  0
  -16.7476   13.7030  -25.4684 C   0  0  0  0  0  0  0  0  0  0  0  0
  -16.6814   12.7729  -24.5000 N   0  0  0  0  0  0  0  0  0  0  0  0
  -15.6858   16.5954  -23.4306 O   0  0  0  0  0  0  0  0  0  0  0  0
  -16.4711   17.2678  -22.5130 C   0  0  0  0  0  0  0  0  0  0  0  0
  -16.0647   17.3792  -21.1964 C   0  0  0  0  0  0  0  0  0  0  0  0
  -16.8561   18.0509  -20.2973 C   0  0  0  0  0  0  0  0  0  0  0  0
  -18.0490   18.6173  -20.6804 C   0  0  0  0  0  0  0  0  0  0  0  0
  -18.4421   18.5013  -21.9866 C   0  0  0  0  0  0  0  0  0  0  0  0
  -17.6691   17.8329  -22.9120 C   0  0  0  0  0  0  0  0  0  0  0  0
  -18.0800   17.7271  -24.2176 F   0  0  0  0  0  0  0  0  0  0  0  0
 20 21  1  0  0  0
 21 19  1  0  0  0
 19 22  1  0  0  0
 22 23  1  0  0  0
 19 18  1  0  0  0
 18 17  1  0  0  0
 17 15  1  0  0  0
 15  1  1  0  0  0
  1  2  2  0  0  0
  2  3  1  0  0  0
  3 24  1  0  0  0
 24 26  1  0  0  0
 26 27  2  0  0  0
 27 28  1  0  0  0
 28 32  1  0  0  0
 32 33  1  0  0  0
 33 34  2  0  0  0
 34 35  1  0  0  0
 35 36  2  0  0  0
 36 37  1  0  0  0
 37 38  2  0  0  0
 38 39  1  0  0  0
 28 29  2  0  0  0
 29 30  1  0  0  0
 30 31  2  0  0  0
  3  4  2  0  0  0
  4  5  1  0  0  0
  5  6  2  0  0  0
  6  7  1  0  0  0
  7  8  2  0  0  0
  7  9  1  0  0  0
  9 11  1  0  0  0
 11 12  1  0  0  0
 11 13  1  0  0  0
 11 14  1  0  0  0
  6  1  1  0  0  0
 31 26  1  0  0  0
 38 33  1  0  0  0
 15 16  1  0  0  0
 24 25  1  0  0  0
  9 10  1  0  0  0
M  END
> <minimizedAffinity>
-7.20359

> <CNNscore>
0.4259744883

> <CNNaffinity>
7.4627141953

> <CNN_VS>
3.1789257526

> <CNNaffinity_variance>
0.0995852128

$$$$
[H]c1nc2c(N([H])[H])c([H])nc(N([H])[H])c2c(-c2c([H])nc([H])c3nc([H])n(-c4c([H])c([H])c(OC([H])([H])[H])c([H])c4[H])c23)c1[H]


 33 37  0  0  0  0  0  0  0  0999 V2000
  -18.1527   14.1356  -21.5855 N   0  0  0  0  0  0  0  0  0  0  0  0
  -19.0106   13.6715  -20.6046 C   0  0  0  0  0  0  0  0  0  0  0  0
  -18.6649   12.4354  -20.2538 N   0  0  0  0  0  0  0  0  0  0  0  0
  -17.5951   12.1176  -21.0084 C   0  0  0  0  0  0  0  0  0  0  0  0
  -16.8277   10.9748  -21.0379 C   0  0  0  0  0  0  0  0  0  0  0  0
  -15.7770   10.8629  -21.8567 N   0  0  0  0  0  0  0  0  0  0  0  0
  -15.4629   11.8571  -22.6539 C   0  0  0  0  0  0  0  0  0  0  0  0
  -16.1733   13.0447  -22.6977 C   0  0  0  0  0  0  0  0  0  0  0  0
  -17.2610   13.1837  -21.8583 C   0  0  0  0  0  0  0  0  0  0  0  0
  -15.8575   13.9710  -23.7225 C   0  0  0  0  0  0  0  0  0  0  0  0
  -15.1502   15.0956  -23.3396 C   0  0  0  0  0  0  0  0  0  0  0  0
  -14.8893   16.1162  -24.2039 C   0  0  0  0  0  0  0  0  0  0  0  0
  -15.3358   16.0138  -25.4591 N   0  0  0  0  0  0  0  0  0  0  0  0
  -16.0262   14.9614  -25.9052 C   0  0  0  0  0  0  0  0  0  0  0  0
  -16.4116   14.9749  -27.2200 C   0  0  0  0  0  0  0  0  0  0  0  0
  -16.1365   16.0330  -28.1224 N   0  0  0  0  0  0  0  0  0  0  0  0
  -17.1043   13.8742  -27.6707 C   0  0  0  0  0  0  0  0  0  0  0  0
  -17.3833   12.8453  -26.8570 N   0  0  0  0  0  0  0  0  0  0  0  0
  -16.9918   12.8504  -25.5553 C   0  0  0  0  0  0  0  0  0  0  0  0
  -17.3010   11.7134  -24.7655 N   0  0  0  0  0  0  0  0  0  0  0  0
  -16.2966   13.9047  -25.0101 C   0  0  0  0  0  0  0  0  0  0  0  0
  -15.1908   16.2259  -28.5327 H   0  0  0  0  0  0  0  0  0  0  0  0
  -16.8895   16.6990  -28.4424 H   0  0  0  0  0  0  0  0  0  0  0  0
  -16.5820   11.0219  -24.5534 H   0  0  0  0  0  0  0  0  0  0  0  0
  -18.2755   11.5890  -24.4423 H   0  0  0  0  0  0  0  0  0  0  0  0
  -18.4299   17.9621  -23.3933 C   0  0  0  0  0  0  0  0  0  0  0  0
  -18.9779   16.8429  -23.9684 C   0  0  0  0  0  0  0  0  0  0  0  0
  -18.8942   15.6002  -23.3430 C   0  0  0  0  0  0  0  0  0  0  0  0
  -18.2551   15.4351  -22.1151 C   0  0  0  0  0  0  0  0  0  0  0  0
  -17.7181   16.5717  -21.5651 C   0  0  0  0  0  0  0  0  0  0  0  0
  -17.7936   17.8063  -22.1700 C   0  0  0  0  0  0  0  0  0  0  0  0
  -19.2396   20.2936  -23.4837 C   0  0  0  0  0  0  0  0  0  0  0  0
  -18.4605   19.2342  -23.9447 O   0  0  0  0  0  0  0  0  0  0  0  0
 32 33  1  0  0  0
 33 26  1  0  0  0
 26 27  2  0  0  0
 27 28  1  0  0  0
 28 29  2  0  0  0
 29 30  1  0  0  0
 30 31  2  0  0  0
 29  1  1  0  0  0
  1  2  1  0  0  0
  2  3  2  0  0  0
  3  4  1  0  0  0
  4  5  2  0  0  0
  5  6  1  0  0  0
  6  7  2  0  0  0
  7  8  1  0  0  0
  8 10  1  0  0  0
 10 11  2  0  0  0
 11 12  1  0  0  0
 12 13  2  0  0  0
 13 14  1  0  0  0
 14 15  2  0  0  0
 15 16  1  0  0  0
 15 17  1  0  0  0
 17 18  2  0  0  0
 18 19  1  0  0  0
 19 20  1  0  0  0
 19 21  2  0  0  0
  8  9  2  0  0  0
 31 26  1  0  0  0
  9  1  1  0  0  0
  9  4  1  0  0  0
 21 10  1  0  0  0
 21 14  1  0  0  0
 16 22  1  0  0  0
 16 23  1  0  0  0
 20 24  1  0  0  0
 20 25  1  0  0  0
M  END
> <minimizedAffinity>
-8.07593

> <CNNscore>
0.5111539960

> <CNNaffinity>
7.1241645813

> <CNN_VS>
3.6415452957

> <CNNaffinity_variance>
1.0034353733

$$$$
[H]c1nc2c(N([H])[H])c([H])nc(N([H])[H])c2c(-c2c([H])nc([H])c3nc([H])n(-c4c([H])c([H])c(OC([H])([H])[H])c([H])c4[H])c23)c1[H]


 33 37  0  0  0  0  0  0  0  0999 V2000
  -17.6805   14.2874  -20.8877 N   0  0  0  0  0  0  0  0  0  0  0  0
  -17.9794   14.1677  -19.5424 C   0  0  0  0  0  0  0  0  0  0  0  0
  -17.6499   12.9513  -19.1156 N   0  0  0  0  0  0  0  0  0  0  0  0
  -17.1461   12.3035  -20.1840 C   0  0  0  0  0  0  0  0  0  0  0  0
  -16.6341   11.0307  -20.3001 C   0  0  0  0  0  0  0  0  0  0  0  0
  -16.1550   10.5765  -21.4625 N   0  0  0  0  0  0  0  0  0  0  0  0
  -16.1698   11.3519  -22.5213 C   0  0  0  0  0  0  0  0  0  0  0  0
  -16.6643   12.6450  -22.5048 C   0  0  0  0  0  0  0  0  0  0  0  0
  -17.1616   13.1363  -21.3139 C   0  0  0  0  0  0  0  0  0  0  0  0
  -16.7992   13.3211  -23.7428 C   0  0  0  0  0  0  0  0  0  0  0  0
  -18.0069   13.1697  -24.3987 C   0  0  0  0  0  0  0  0  0  0  0  0
  -18.2197   13.6684  -25.6488 C   0  0  0  0  0  0  0  0  0  0  0  0
  -17.2213   14.3237  -26.2483 N   0  0  0  0  0  0  0  0  0  0  0  0
  -16.0266   14.5109  -25.6821 C   0  0  0  0  0  0  0  0  0  0  0  0
  -15.0952   15.2148  -26.3995 C   0  0  0  0  0  0  0  0  0  0  0  0
  -15.3161   15.7393  -27.6977 N   0  0  0  0  0  0  0  0  0  0  0  0
  -13.8756   15.4176  -25.7945 C   0  0  0  0  0  0  0  0  0  0  0  0
  -13.6207   14.9464  -24.5649 N   0  0  0  0  0  0  0  0  0  0  0  0
  -14.5583   14.2506  -23.8689 C   0  0  0  0  0  0  0  0  0  0  0  0
  -14.2223   13.8084  -22.5637 N   0  0  0  0  0  0  0  0  0  0  0  0
  -15.8061   13.9942  -24.3877 C   0  0  0  0  0  0  0  0  0  0  0  0
  -15.9143   16.5765  -27.9005 H   0  0  0  0  0  0  0  0  0  0  0  0
  -14.8751   15.3070  -28.5531 H   0  0  0  0  0  0  0  0  0  0  0  0
  -14.5737   14.3046  -21.7448 H   0  0  0  0  0  0  0  0  0  0  0  0
  -13.5890   12.9966  -22.4669 H   0  0  0  0  0  0  0  0  0  0  0  0
  -18.4348   17.7861  -23.1630 C   0  0  0  0  0  0  0  0  0  0  0  0
  -19.4203   16.8734  -22.8812 C   0  0  0  0  0  0  0  0  0  0  0  0
  -19.1530   15.7430  -22.1111 C   0  0  0  0  0  0  0  0  0  0  0  0
  -17.8835   15.4864  -21.5953 C   0  0  0  0  0  0  0  0  0  0  0  0
  -16.9198   16.4167  -21.8933 C   0  0  0  0  0  0  0  0  0  0  0  0
  -17.1687   17.5387  -22.6515 C   0  0  0  0  0  0  0  0  0  0  0  0
  -19.1507   20.1308  -23.4623 C   0  0  0  0  0  0  0  0  0  0  0  0
  -18.6082   18.9329  -23.9233 O   0  0  0  0  0  0  0  0  0  0  0  0
 32 33  1  0  0  0
 33 26  1  0  0  0
 26 27  2  0  0  0
 27 28  1  0  0  0
 28 29  2  0  0  0
 29 30  1  0  0  0
 30 31  2  0  0  0
 29  1  1  0  0  0
  1  2  1  0  0  0
  2  3  2  0  0  0
  3  4  1  0  0  0
  4  5  2  0  0  0
  5  6  1  0  0  0
  6  7  2  0  0  0
  7  8  1  0  0  0
  8 10  1  0  0  0
 10 11  2  0  0  0
 11 12  1  0  0  0
 12 13  2  0  0  0
 13 14  1  0  0  0
 14 15  2  0  0  0
 15 16  1  0  0  0
 15 17  1  0  0  0
 17 18  2  0  0  0
 18 19  1  0  0  0
 19 20  1  0  0  0
 19 21  2  0  0  0
  8  9  2  0  0  0
 31 26  1  0  0  0
  9  1  1  0  0  0
  9  4  1  0  0  0
 21 10  1  0  0  0
 21 14  1  0  0  0
 16 22  1  0  0  0
 16 23  1  0  0  0
 20 24  1  0  0  0
 20 25  1  0  0  0
M  END
> <minimizedAffinity>
-6.97356

> <CNNscore>
0.3882280588

> <CNNaffinity>
7.0994706154

> <CNN_VS>
2.7562136650

> <CNNaffinity_variance>
0.3142660856

$$$$
[H]c1nc2c(N([H])[H])c([H])nc(N([H])[H])c2c(-c2c([H])nc([H])c3nc([H])n(-c4c([H])c([H])c(OC([H])([H])[H])c([H])c4[H])c23)c1[H]


 33 37  0  0  0  0  0  0  0  0999 V2000
  -16.6590   12.8514  -22.2364 N   0  0  0  0  0  0  0  0  0  0  0  0
  -15.9716   11.6838  -21.9579 C   0  0  0  0  0  0  0  0  0  0  0  0
  -16.5058   11.0910  -20.8932 N   0  0  0  0  0  0  0  0  0  0  0  0
  -17.5251   11.8786  -20.4985 C   0  0  0  0  0  0  0  0  0  0  0  0
  -18.4249   11.7291  -19.4671 C   0  0  0  0  0  0  0  0  0  0  0  0
  -19.3925   12.6259  -19.2522 N   0  0  0  0  0  0  0  0  0  0  0  0
  -19.4945   13.6750  -20.0342 C   0  0  0  0  0  0  0  0  0  0  0  0
  -18.6379   13.9133  -21.0955 C   0  0  0  0  0  0  0  0  0  0  0  0
  -17.6324   12.9983  -21.3382 C   0  0  0  0  0  0  0  0  0  0  0  0
  -18.7272   15.1648  -21.7540 C   0  0  0  0  0  0  0  0  0  0  0  0
  -19.0160   15.1302  -23.1057 C   0  0  0  0  0  0  0  0  0  0  0  0
  -19.0115   16.2540  -23.8762 C   0  0  0  0  0  0  0  0  0  0  0  0
  -18.7180   17.4205  -23.2943 N   0  0  0  0  0  0  0  0  0  0  0  0
  -18.4275   17.5365  -21.9961 C   0  0  0  0  0  0  0  0  0  0  0  0
  -18.1603   18.7942  -21.5225 C   0  0  0  0  0  0  0  0  0  0  0  0
  -18.1605   19.9654  -22.3211 N   0  0  0  0  0  0  0  0  0  0  0  0
  -17.8831   18.9008  -20.1786 C   0  0  0  0  0  0  0  0  0  0  0  0
  -17.8770   17.8228  -19.3807 N   0  0  0  0  0  0  0  0  0  0  0  0
  -18.1452   16.5831  -19.8695 C   0  0  0  0  0  0  0  0  0  0  0  0
  -18.1461   15.4967  -18.9575 N   0  0  0  0  0  0  0  0  0  0  0  0
  -18.4319   16.3728  -21.1983 C   0  0  0  0  0  0  0  0  0  0  0  0
  -19.0274   20.4285  -22.6868 H   0  0  0  0  0  0  0  0  0  0  0  0
  -17.2644   20.4505  -22.5945 H   0  0  0  0  0  0  0  0  0  0  0  0
  -19.0264   15.1072  -18.6205 H   0  0  0  0  0  0  0  0  0  0  0  0
  -17.2372   15.1362  -18.6206 H   0  0  0  0  0  0  0  0  0  0  0  0
  -15.6805   15.1063  -25.6925 C   0  0  0  0  0  0  0  0  0  0  0  0
  -16.5144   14.0174  -25.7446 C   0  0  0  0  0  0  0  0  0  0  0  0
  -16.8400   13.3066  -24.5909 C   0  0  0  0  0  0  0  0  0  0  0  0
  -16.3385   13.6632  -23.3399 C   0  0  0  0  0  0  0  0  0  0  0  0
  -15.5086   14.7558  -23.3197 C   0  0  0  0  0  0  0  0  0  0  0  0
  -15.1787   15.4688  -24.4505 C   0  0  0  0  0  0  0  0  0  0  0  0
  -15.5798   15.5626  -28.1177 C   0  0  0  0  0  0  0  0  0  0  0  0
  -15.2989   15.8674  -26.7872 O   0  0  0  0  0  0  0  0  0  0  0  0
 32 33  1  0  0  0
 33 26  1  0  0  0
 26 27  2  0  0  0
 27 28  1  0  0  0
 28 29  2  0  0  0
 29 30  1  0  0  0
 30 31  2  0  0  0
 29  1  1  0  0  0
  1  2  1  0  0  0
  2  3  2  0  0  0
  3  4  1  0  0  0
  4  5  2  0  0  0
  5  6  1  0  0  0
  6  7  2  0  0  0
  7  8  1  0  0  0
  8 10  1  0  0  0
 10 11  2  0  0  0
 11 12  1  0  0  0
 12 13  2  0  0  0
 13 14  1  0  0  0
 14 15  2  0  0  0
 15 16  1  0  0  0
 15 17  1  0  0  0
 17 18  2  0  0  0
 18 19  1  0  0  0
 19 20  1  0  0  0
 19 21  2  0  0  0
  8  9  2  0  0  0
 31 26  1  0  0  0
  9  1  1  0  0  0
  9  4  1  0  0  0
 21 10  1  0  0  0
 21 14  1  0  0  0
 16 22  1  0  0  0
 16 23  1  0  0  0
 20 24  1  0  0  0
 20 25  1  0  0  0
M  END
> <minimizedAffinity>
-7.85838

> <CNNscore>
0.2620875835

> <CNNaffinity>
7.1596236229

> <CNN_VS>
1.8764485121

> <CNNaffinity_variance>
0.0744606927

$$$$
[H]c1nc2c(N([H])[H])c([H])nc(N([H])[H])c2c(-c2c([H])nc([H])c3nc([H])n(-c4c([H])c([H])c(OC([H])([H])[H])c([H])c4[H])c23)c1[H]


 33 37  0  0  0  0  0  0  0  0999 V2000
  -21.1485   15.8169  -18.7113 N   0  0  0  0  0  0  0  0  0  0  0  0
  -21.0115   14.7317  -19.5581 C   0  0  0  0  0  0  0  0  0  0  0  0
  -20.1971   15.0457  -20.5624 N   0  0  0  0  0  0  0  0  0  0  0  0
  -19.8210   16.3224  -20.3541 C   0  0  0  0  0  0  0  0  0  0  0  0
  -18.9716   17.1343  -21.0719 C   0  0  0  0  0  0  0  0  0  0  0  0
  -18.7072   18.3846  -20.6798 N   0  0  0  0  0  0  0  0  0  0  0  0
  -19.2649   18.8579  -19.5901 C   0  0  0  0  0  0  0  0  0  0  0  0
  -20.1323   18.1199  -18.8027 C   0  0  0  0  0  0  0  0  0  0  0  0
  -20.4177   16.8246  -19.1869 C   0  0  0  0  0  0  0  0  0  0  0  0
  -20.8150   18.7902  -17.7574 C   0  0  0  0  0  0  0  0  0  0  0  0
  -21.9209   19.5354  -18.1227 C   0  0  0  0  0  0  0  0  0  0  0  0
  -22.5911   20.3205  -17.2334 C   0  0  0  0  0  0  0  0  0  0  0  0
  -22.1560   20.3618  -15.9707 N   0  0  0  0  0  0  0  0  0  0  0  0
  -21.0963   19.6727  -15.5403 C   0  0  0  0  0  0  0  0  0  0  0  0
  -20.7656   19.7918  -14.2160 C   0  0  0  0  0  0  0  0  0  0  0  0
  -21.4646   20.6036  -13.2877 N   0  0  0  0  0  0  0  0  0  0  0  0
  -19.6836   19.0595  -13.7826 C   0  0  0  0  0  0  0  0  0  0  0  0
  -18.9940   18.2722  -14.6212 N   0  0  0  0  0  0  0  0  0  0  0  0
  -19.3382   18.1671  -15.9320 C   0  0  0  0  0  0  0  0  0  0  0  0
  -18.5766   17.2931  -16.7493 N   0  0  0  0  0  0  0  0  0  0  0  0
  -20.4021   18.8599  -16.4614 C   0  0  0  0  0  0  0  0  0  0  0  0
  -22.4095   20.3709  -12.8968 H   0  0  0  0  0  0  0  0  0  0  0  0
  -21.0593   21.5082  -12.9266 H   0  0  0  0  0  0  0  0  0  0  0  0
  -18.9416   16.3751  -17.0027 H   0  0  0  0  0  0  0  0  0  0  0  0
  -17.6348   17.5965  -17.0503 H   0  0  0  0  0  0  0  0  0  0  0  0
  -23.3935   15.4176  -15.1353 C   0  0  0  0  0  0  0  0  0  0  0  0
  -22.1239   14.9111  -15.2593 C   0  0  0  0  0  0  0  0  0  0  0  0
  -21.3971   15.0759  -16.4369 C   0  0  0  0  0  0  0  0  0  0  0  0
  -21.9195   15.7559  -17.5360 C   0  0  0  0  0  0  0  0  0  0  0  0
  -23.1899   16.2512  -17.3817 C   0  0  0  0  0  0  0  0  0  0  0  0
  -23.9200   16.0976  -16.2244 C   0  0  0  0  0  0  0  0  0  0  0  0
  -23.9710   14.4060  -12.9575 C   0  0  0  0  0  0  0  0  0  0  0  0
  -24.1900   15.2969  -14.0065 O   0  0  0  0  0  0  0  0  0  0  0  0
 32 33  1  0  0  0
 33 26  1  0  0  0
 26 27  2  0  0  0
 27 28  1  0  0  0
 28 29  2  0  0  0
 29 30  1  0  0  0
 30 31  2  0  0  0
 29  1  1  0  0  0
  1  2  1  0  0  0
  2  3  2  0  0  0
  3  4  1  0  0  0
  4  5  2  0  0  0
  5  6  1  0  0  0
  6  7  2  0  0  0
  7  8  1  0  0  0
  8 10  1  0  0  0
 10 11  2  0  0  0
 11 12  1  0  0  0
 12 13  2  0  0  0
 13 14  1  0  0  0
 14 15  2  0  0  0
 15 16  1  0  0  0
 15 17  1  0  0  0
 17 18  2  0  0  0
 18 19  1  0  0  0
 19 20  1  0  0  0
 19 21  2  0  0  0
  8  9  2  0  0  0
 31 26  1  0  0  0
  9  1  1  0  0  0
  9  4  1  0  0  0
 21 10  1  0  0  0
 21 14  1  0  0  0
 16 22  1  0  0  0
 16 23  1  0  0  0
 20 24  1  0  0  0
 20 25  1  0  0  0
M  END
> <minimizedAffinity>
-5.07723

> <CNNscore>
0.2616740465

> <CNNaffinity>
5.9221196175

> <CNN_VS>
1.5496649742

> <CNNaffinity_variance>
0.0461906306

$$$$
[H]c1nc2c(N([H])[H])c([H])nc(N([H])[H])c2c(-c2c([H])nc([H])c3nc([H])n(-c4c([H])c([H])c(OC([H])([H])[H])c([H])c4[H])c23)c1[H]


 33 37  0  0  0  0  0  0  0  0999 V2000
  -20.1421   15.5991  -20.5923 N   0  0  0  0  0  0  0  0  0  0  0  0
  -21.3991   15.2390  -20.1411 C   0  0  0  0  0  0  0  0  0  0  0  0
  -21.3340   14.0638  -19.5205 N   0  0  0  0  0  0  0  0  0  0  0  0
  -20.0437   13.6808  -19.5789 C   0  0  0  0  0  0  0  0  0  0  0  0
  -19.4183   12.5613  -19.0775 C   0  0  0  0  0  0  0  0  0  0  0  0
  -18.1029   12.3744  -19.2244 N   0  0  0  0  0  0  0  0  0  0  0  0
  -17.3840   13.2701  -19.8595 C   0  0  0  0  0  0  0  0  0  0  0  0
  -17.9210   14.4265  -20.3994 C   0  0  0  0  0  0  0  0  0  0  0  0
  -19.2776   14.6420  -20.2569 C   0  0  0  0  0  0  0  0  0  0  0  0
  -17.0875   15.2270  -21.2193 C   0  0  0  0  0  0  0  0  0  0  0  0
  -16.6796   16.4365  -20.6880 C   0  0  0  0  0  0  0  0  0  0  0  0
  -15.9771   17.3480  -21.4177 C   0  0  0  0  0  0  0  0  0  0  0  0
  -15.6786   17.0505  -22.6857 N   0  0  0  0  0  0  0  0  0  0  0  0
  -16.0370   15.9051  -23.2711 C   0  0  0  0  0  0  0  0  0  0  0  0
  -15.6529   15.7184  -24.5731 C   0  0  0  0  0  0  0  0  0  0  0  0
  -14.9174   16.6628  -25.3324 N   0  0  0  0  0  0  0  0  0  0  0  0
  -16.0117   14.5245  -25.1565 C   0  0  0  0  0  0  0  0  0  0  0  0
  -16.7022   13.5968  -24.4773 N   0  0  0  0  0  0  0  0  0  0  0  0
  -17.0738   13.8006  -23.1858 C   0  0  0  0  0  0  0  0  0  0  0  0
  -17.7786   12.7610  -22.5268 N   0  0  0  0  0  0  0  0  0  0  0  0
  -16.7646   14.9614  -22.5156 C   0  0  0  0  0  0  0  0  0  0  0  0
  -13.8967   16.8611  -25.1961 H   0  0  0  0  0  0  0  0  0  0  0  0
  -15.3681   17.2295  -26.0997 H   0  0  0  0  0  0  0  0  0  0  0  0
  -17.2988   12.1525  -21.8636 H   0  0  0  0  0  0  0  0  0  0  0  0
  -18.7756   12.6169  -22.7610 H   0  0  0  0  0  0  0  0  0  0  0  0
  -19.2867   19.1686  -22.7170 C   0  0  0  0  0  0  0  0  0  0  0  0
  -19.4650   17.9661  -23.3540 C   0  0  0  0  0  0  0  0  0  0  0  0
  -19.7689   16.8112  -22.6357 C   0  0  0  0  0  0  0  0  0  0  0  0
  -19.9043   16.8209  -21.2482 C   0  0  0  0  0  0  0  0  0  0  0  0
  -19.7210   18.0372  -20.6400 C   0  0  0  0  0  0  0  0  0  0  0  0
  -19.4217   19.1869  -21.3359 C   0  0  0  0  0  0  0  0  0  0  0  0
  -19.8777   21.1561  -24.0587 C   0  0  0  0  0  0  0  0  0  0  0  0
  -18.9776   20.3638  -23.3486 O   0  0  0  0  0  0  0  0  0  0  0  0
 32 33  1  0  0  0
 33 26  1  0  0  0
 26 27  2  0  0  0
 27 28  1  0  0  0
 28 29  2  0  0  0
 29 30  1  0  0  0
 30 31  2  0  0  0
 29  1  1  0  0  0
  1  2  1  0  0  0
  2  3  2  0  0  0
  3  4  1  0  0  0
  4  5  2  0  0  0
  5  6  1  0  0  0
  6  7  2  0  0  0
  7  8  1  0  0  0
  8 10  1  0  0  0
 10 11  2  0  0  0
 11 12  1  0  0  0
 12 13  2  0  0  0
 13 14  1  0  0  0
 14 15  2  0  0  0
 15 16  1  0  0  0
 15 17  1  0  0  0
 17 18  2  0  0  0
 18 19  1  0  0  0
 19 20  1  0  0  0
 19 21  2  0  0  0
  8  9  2  0  0  0
 31 26  1  0  0  0
  9  1  1  0  0  0
  9  4  1  0  0  0
 21 10  1  0  0  0
 21 14  1  0  0  0
 16 22  1  0  0  0
 16 23  1  0  0  0
 20 24  1  0  0  0
 20 25  1  0  0  0
M  END
> <minimizedAffinity>
-7.91049

> <CNNscore>
0.2129447758

> <CNNaffinity>
6.6744360924

> <CNN_VS>
1.4212863445

> <CNNaffinity_variance>
0.1769335419

$$$$
[H]c1nc2c(N([H])[H])c([H])nc(N([H])[H])c2c(-c2c([H])nc([H])c3nc([H])n(-c4c([H])c([H])c(OC([H])([H])[H])c([H])c4[H])c23)c1[H]


 33 37  0  0  0  0  0  0  0  0999 V2000
  -20.2788   13.1747  -18.2415 N   0  0  0  0  0  0  0  0  0  0  0  0
  -20.8598   12.3826  -17.2676 C   0  0  0  0  0  0  0  0  0  0  0  0
  -20.0707   11.3443  -17.0035 N   0  0  0  0  0  0  0  0  0  0  0  0
  -18.9966   11.4769  -17.8057 C   0  0  0  0  0  0  0  0  0  0  0  0
  -17.8678   10.6979  -17.9269 C   0  0  0  0  0  0  0  0  0  0  0  0
  -16.8896   11.0179  -18.7799 N   0  0  0  0  0  0  0  0  0  0  0  0
  -16.9986   12.0944  -19.5227 C   0  0  0  0  0  0  0  0  0  0  0  0
  -18.0942   12.9395  -19.4734 C   0  0  0  0  0  0  0  0  0  0  0  0
  -19.1157   12.6301  -18.5971 C   0  0  0  0  0  0  0  0  0  0  0  0
  -18.1879   13.9643  -20.4475 C   0  0  0  0  0  0  0  0  0  0  0  0
  -18.4074   13.5572  -21.7505 C   0  0  0  0  0  0  0  0  0  0  0  0
  -18.3980   14.4330  -22.7943 C   0  0  0  0  0  0  0  0  0  0  0  0
  -18.1693   15.7240  -22.5365 N   0  0  0  0  0  0  0  0  0  0  0  0
  -17.9480   16.1953  -21.3069 C   0  0  0  0  0  0  0  0  0  0  0  0
  -17.7428   17.5440  -21.1789 C   0  0  0  0  0  0  0  0  0  0  0  0
  -17.7381   18.4578  -22.2626 N   0  0  0  0  0  0  0  0  0  0  0  0
  -17.5367   18.0179  -19.9032 C   0  0  0  0  0  0  0  0  0  0  0  0
  -17.5383   17.1938  -18.8450 N   0  0  0  0  0  0  0  0  0  0  0  0
  -17.7442   15.8584  -18.9925 C   0  0  0  0  0  0  0  0  0  0  0  0
  -17.7583   15.0565  -17.8226 N   0  0  0  0  0  0  0  0  0  0  0  0
  -17.9574   15.2883  -20.2260 C   0  0  0  0  0  0  0  0  0  0  0  0
  -18.5991   18.7690  -22.7740 H   0  0  0  0  0  0  0  0  0  0  0  0
  -16.8444   18.8897  -22.6201 H   0  0  0  0  0  0  0  0  0  0  0  0
  -18.6422   14.7344  -17.4288 H   0  0  0  0  0  0  0  0  0  0  0  0
  -16.8570   14.8382  -17.3647 H   0  0  0  0  0  0  0  0  0  0  0  0
  -22.1913   16.7831  -19.3857 C   0  0  0  0  0  0  0  0  0  0  0  0
  -21.7848   16.5509  -18.0955 C   0  0  0  0  0  0  0  0  0  0  0  0
  -21.1368   15.3667  -17.7490 C   0  0  0  0  0  0  0  0  0  0  0  0
  -20.8734   14.3695  -18.6869 C   0  0  0  0  0  0  0  0  0  0  0  0
  -21.2908   14.6306  -19.9677 C   0  0  0  0  0  0  0  0  0  0  0  0
  -21.9309   15.7959  -20.3257 C   0  0  0  0  0  0  0  0  0  0  0  0
  -23.9653   17.9487  -20.6482 C   0  0  0  0  0  0  0  0  0  0  0  0
  -22.8457   17.9265  -19.8186 O   0  0  0  0  0  0  0  0  0  0  0  0
 32 33  1  0  0  0
 33 26  1  0  0  0
 26 27  2  0  0  0
 27 28  1  0  0  0
 28 29  2  0  0  0
 29 30  1  0  0  0
 30 31  2  0  0  0
 29  1  1  0  0  0
  1  2  1  0  0  0
  2  3  2  0  0  0
  3  4  1  0  0  0
  4  5  2  0  0  0
  5  6  1  0  0  0
  6  7  2  0  0  0
  7  8  1  0  0  0
  8 10  1  0  0  0
 10 11  2  0  0  0
 11 12  1  0  0  0
 12 13  2  0  0  0
 13 14  1  0  0  0
 14 15  2  0  0  0
 15 16  1  0  0  0
 15 17  1  0  0  0
 17 18  2  0  0  0
 18 19  1  0  0  0
 19 20  1  0  0  0
 19 21  2  0  0  0
  8  9  2  0  0  0
 31 26  1  0  0  0
  9  1  1  0  0  0
  9  4  1  0  0  0
 21 10  1  0  0  0
 21 14  1  0  0  0
 16 22  1  0  0  0
 16 23  1  0  0  0
 20 24  1  0  0  0
 20 25  1  0  0  0
M  END
> <minimizedAffinity>
-6.13786

> <CNNscore>
0.2020493448

> <CNNaffinity>
6.5199823380

> <CNN_VS>
1.3173581362

> <CNNaffinity_variance>
0.2104422599

$$$$
[H]c1nc2c(N([H])[H])c([H])nc(N([H])[H])c2c(-c2c([H])nc([H])c3nc([H])n(-c4c([H])c([H])c(OC([H])([H])[H])c([H])c4[H])c23)c1[H]


 33 37  0  0  0  0  0  0  0  0999 V2000
  -20.9311   16.2454  -18.8246 N   0  0  0  0  0  0  0  0  0  0  0  0
  -21.0516   15.6219  -20.0535 C   0  0  0  0  0  0  0  0  0  0  0  0
  -20.4145   16.3314  -20.9816 N   0  0  0  0  0  0  0  0  0  0  0  0
  -19.8943   17.3987  -20.3451 C   0  0  0  0  0  0  0  0  0  0  0  0
  -19.1253   18.4374  -20.8199 C   0  0  0  0  0  0  0  0  0  0  0  0
  -18.6823   19.4029  -20.0084 N   0  0  0  0  0  0  0  0  0  0  0  0
  -18.9824   19.3698  -18.7312 C   0  0  0  0  0  0  0  0  0  0  0  0
  -19.7494   18.3685  -18.1602 C   0  0  0  0  0  0  0  0  0  0  0  0
  -20.2154   17.3589  -18.9791 C   0  0  0  0  0  0  0  0  0  0  0  0
  -20.1626   18.5327  -16.8148 C   0  0  0  0  0  0  0  0  0  0  0  0
  -19.4335   17.8497  -15.8590 C   0  0  0  0  0  0  0  0  0  0  0  0
  -19.8002   17.8285  -14.5468 C   0  0  0  0  0  0  0  0  0  0  0  0
  -20.9010   18.4940  -14.1853 N   0  0  0  0  0  0  0  0  0  0  0  0
  -21.6585   19.1762  -15.0479 C   0  0  0  0  0  0  0  0  0  0  0  0
  -22.7527   19.8283  -14.5432 C   0  0  0  0  0  0  0  0  0  0  0  0
  -23.1330   19.8122  -13.1777 N   0  0  0  0  0  0  0  0  0  0  0  0
  -23.5120   20.5441  -15.4408 C   0  0  0  0  0  0  0  0  0  0  0  0
  -23.1895   20.5949  -16.7417 N   0  0  0  0  0  0  0  0  0  0  0  0
  -22.0993   19.9412  -17.2231 C   0  0  0  0  0  0  0  0  0  0  0  0
  -21.8090   20.0654  -18.6060 N   0  0  0  0  0  0  0  0  0  0  0  0
  -21.2789   19.1979  -16.4068 C   0  0  0  0  0  0  0  0  0  0  0  0
  -22.6326   20.3384  -12.4211 H   0  0  0  0  0  0  0  0  0  0  0  0
  -23.9652   19.2587  -12.8402 H   0  0  0  0  0  0  0  0  0  0  0  0
  -21.0669   20.6890  -18.9231 H   0  0  0  0  0  0  0  0  0  0  0  0
  -22.3884   19.5366  -19.2799 H   0  0  0  0  0  0  0  0  0  0  0  0
  -22.4915   14.3695  -15.3557 C   0  0  0  0  0  0  0  0  0  0  0  0
  -21.3084   13.9744  -15.9284 C   0  0  0  0  0  0  0  0  0  0  0  0
  -20.8042   14.6223  -17.0545 C   0  0  0  0  0  0  0  0  0  0  0  0
  -21.4712   15.6924  -17.6491 C   0  0  0  0  0  0  0  0  0  0  0  0
  -22.6503   16.0647  -17.0539 C   0  0  0  0  0  0  0  0  0  0  0  0
  -23.1605   15.4354  -15.9406 C   0  0  0  0  0  0  0  0  0  0  0  0
  -22.8669   12.4660  -13.8276 C   0  0  0  0  0  0  0  0  0  0  0  0
  -23.0697   13.7813  -14.2409 O   0  0  0  0  0  0  0  0  0  0  0  0
 32 33  1  0  0  0
 33 26  1  0  0  0
 26 27  2  0  0  0
 27 28  1  0  0  0
 28 29  2  0  0  0
 29 30  1  0  0  0
 30 31  2  0  0  0
 29  1  1  0  0  0
  1  2  1  0  0  0
  2  3  2  0  0  0
  3  4  1  0  0  0
  4  5  2  0  0  0
  5  6  1  0  0  0
  6  7  2  0  0  0
  7  8  1  0  0  0
  8 10  1  0  0  0
 10 11  2  0  0  0
 11 12  1  0  0  0
 12 13  2  0  0  0
 13 14  1  0  0  0
 14 15  2  0  0  0
 15 16  1  0  0  0
 15 17  1  0  0  0
 17 18  2  0  0  0
 18 19  1  0  0  0
 19 20  1  0  0  0
 19 21  2  0  0  0
  8  9  2  0  0  0
 31 26  1  0  0  0
  9  1  1  0  0  0
  9  4  1  0  0  0
 21 10  1  0  0  0
 21 14  1  0  0  0
 16 22  1  0  0  0
 16 23  1  0  0  0
 20 24  1  0  0  0
 20 25  1  0  0  0
M  END
> <minimizedAffinity>
-4.51586

> <CNNscore>
0.2011930496

> <CNNaffinity>
5.7959990501

> <CNN_VS>
1.1661146879

> <CNNaffinity_variance>
0.2332083285

$$$$
[H]c1nc2c(N([H])[H])c([H])nc(N([H])[H])c2c(-c2c([H])nc([H])c3nc([H])n(-c4c([H])c([H])c(OC([H])([H])[H])c([H])c4[H])c23)c1[H]


 33 37  0  0  0  0  0  0  0  0999 V2000
  -19.2937   13.9466  -18.4130 N   0  0  0  0  0  0  0  0  0  0  0  0
  -19.9659   12.9578  -17.7173 C   0  0  0  0  0  0  0  0  0  0  0  0
  -19.5027   11.7629  -18.0750 N   0  0  0  0  0  0  0  0  0  0  0  0
  -18.5435   11.9927  -18.9926 C   0  0  0  0  0  0  0  0  0  0  0  0
  -17.7269   11.1174  -19.6729 C   0  0  0  0  0  0  0  0  0  0  0  0
  -16.8077   11.5539  -20.5398 N   0  0  0  0  0  0  0  0  0  0  0  0
  -16.6740   12.8417  -20.7549 C   0  0  0  0  0  0  0  0  0  0  0  0
  -17.4478   13.7988  -20.1207 C   0  0  0  0  0  0  0  0  0  0  0  0
  -18.4019   13.3708  -19.2186 C   0  0  0  0  0  0  0  0  0  0  0  0
  -17.3431   15.1401  -20.5653 C   0  0  0  0  0  0  0  0  0  0  0  0
  -16.8623   16.0569  -19.6488 C   0  0  0  0  0  0  0  0  0  0  0  0
  -16.8262   17.3933  -19.9120 C   0  0  0  0  0  0  0  0  0  0  0  0
  -17.2717   17.8181  -21.0979 N   0  0  0  0  0  0  0  0  0  0  0  0
  -17.7514   16.9966  -22.0350 C   0  0  0  0  0  0  0  0  0  0  0  0
  -18.1610   17.5608  -23.2146 C   0  0  0  0  0  0  0  0  0  0  0  0
  -18.1192   18.9501  -23.4927 N   0  0  0  0  0  0  0  0  0  0  0  0
  -18.6336   16.6993  -24.1785 C   0  0  0  0  0  0  0  0  0  0  0  0
  -18.6868   15.3763  -23.9651 N   0  0  0  0  0  0  0  0  0  0  0  0
  -18.2753   14.8356  -22.7879 C   0  0  0  0  0  0  0  0  0  0  0  0
  -18.3374   13.4254  -22.6484 N   0  0  0  0  0  0  0  0  0  0  0  0
  -17.7890   15.6127  -21.7624 C   0  0  0  0  0  0  0  0  0  0  0  0
  -17.2393   19.4841  -23.6934 H   0  0  0  0  0  0  0  0  0  0  0  0
  -18.9954   19.5373  -23.5181 H   0  0  0  0  0  0  0  0  0  0  0  0
  -17.4920   12.8612  -22.7324 H   0  0  0  0  0  0  0  0  0  0  0  0
  -19.2610   12.9863  -22.4944 H   0  0  0  0  0  0  0  0  0  0  0  0
  -20.0749   18.0247  -17.5492 C   0  0  0  0  0  0  0  0  0  0  0  0
  -19.2855   17.2464  -16.7399 C   0  0  0  0  0  0  0  0  0  0  0  0
  -19.0240   15.9149  -17.0578 C   0  0  0  0  0  0  0  0  0  0  0  0
  -19.5474   15.3143  -18.2018 C   0  0  0  0  0  0  0  0  0  0  0  0
  -20.3318   16.1174  -18.9910 C   0  0  0  0  0  0  0  0  0  0  0  0
  -20.5981   17.4345  -18.6910 C   0  0  0  0  0  0  0  0  0  0  0  0
  -21.5696   19.8062  -16.7175 C   0  0  0  0  0  0  0  0  0  0  0  0
  -20.3920   19.3532  -17.3091 O   0  0  0  0  0  0  0  0  0  0  0  0
 32 33  1  0  0  0
 33 26  1  0  0  0
 26 27  2  0  0  0
 27 28  1  0  0  0
 28 29  2  0  0  0
 29 30  1  0  0  0
 30 31  2  0  0  0
 29  1  1  0  0  0
  1  2  1  0  0  0
  2  3  2  0  0  0
  3  4  1  0  0  0
  4  5  2  0  0  0
  5  6  1  0  0  0
  6  7  2  0  0  0
  7  8  1  0  0  0
  8 10  1  0  0  0
 10 11  2  0  0  0
 11 12  1  0  0  0
 12 13  2  0  0  0
 13 14  1  0  0  0
 14 15  2  0  0  0
 15 16  1  0  0  0
 15 17  1  0  0  0
 17 18  2  0  0  0
 18 19  1  0  0  0
 19 20  1  0  0  0
 19 21  2  0  0  0
  8  9  2  0  0  0
 31 26  1  0  0  0
  9  1  1  0  0  0
  9  4  1  0  0  0
 21 10  1  0  0  0
 21 14  1  0  0  0
 16 22  1  0  0  0
 16 23  1  0  0  0
 20 24  1  0  0  0
 20 25  1  0  0  0
M  END
> <minimizedAffinity>
-5.35145

> <CNNscore>
0.1947299987

> <CNNaffinity>
6.5115404129

> <CNN_VS>
1.2679922581

> <CNNaffinity_variance>
0.1808687896

$$$$
[H]c1nc2c(N([H])[H])c([H])nc(N([H])[H])c2c(-c2c([H])nc([H])c3nc([H])n(-c4c([H])c([H])c(OC([H])([H])[H])c([H])c4[H])c23)c1[H]


 33 37  0  0  0  0  0  0  0  0999 V2000
  -17.4983   11.7490  -19.7422 N   0  0  0  0  0  0  0  0  0  0  0  0
  -16.6910   10.6403  -19.9224 C   0  0  0  0  0  0  0  0  0  0  0  0
  -16.1091   10.6978  -21.1176 N   0  0  0  0  0  0  0  0  0  0  0  0
  -16.5456   11.8356  -21.6920 C   0  0  0  0  0  0  0  0  0  0  0  0
  -16.2445   12.3948  -22.9136 C   0  0  0  0  0  0  0  0  0  0  0  0
  -16.7746   13.5613  -23.2947 N   0  0  0  0  0  0  0  0  0  0  0  0
  -17.6014   14.1939  -22.4955 C   0  0  0  0  0  0  0  0  0  0  0  0
  -17.9657   13.7124  -21.2495 C   0  0  0  0  0  0  0  0  0  0  0  0
  -17.4280   12.5103  -20.8337 C   0  0  0  0  0  0  0  0  0  0  0  0
  -19.0024   14.3833  -20.5545 C   0  0  0  0  0  0  0  0  0  0  0  0
  -20.1997   13.7034  -20.4285 C   0  0  0  0  0  0  0  0  0  0  0  0
  -21.3085   14.2832  -19.8889 C   0  0  0  0  0  0  0  0  0  0  0  0
  -21.2222   15.5494  -19.4711 N   0  0  0  0  0  0  0  0  0  0  0  0
  -20.1032   16.2729  -19.5588 C   0  0  0  0  0  0  0  0  0  0  0  0
  -20.1454   17.5553  -19.0781 C   0  0  0  0  0  0  0  0  0  0  0  0
  -21.2961   18.1586  -18.5113 N   0  0  0  0  0  0  0  0  0  0  0  0
  -18.9789   18.2817  -19.1564 C   0  0  0  0  0  0  0  0  0  0  0  0
  -17.8624   17.7528  -19.6785 N   0  0  0  0  0  0  0  0  0  0  0  0
  -17.8405   16.4781  -20.1500 C   0  0  0  0  0  0  0  0  0  0  0  0
  -16.6146   15.9817  -20.6623 N   0  0  0  0  0  0  0  0  0  0  0  0
  -18.9551   15.6726  -20.1179 C   0  0  0  0  0  0  0  0  0  0  0  0
  -21.6738   17.9282  -17.5605 H   0  0  0  0  0  0  0  0  0  0  0  0
  -21.8473   18.8955  -19.0274 H   0  0  0  0  0  0  0  0  0  0  0  0
  -16.0403   15.3503  -20.1039 H   0  0  0  0  0  0  0  0  0  0  0  0
  -16.3055   16.3020  -21.5958 H   0  0  0  0  0  0  0  0  0  0  0  0
  -19.8069   12.3136  -16.2295 C   0  0  0  0  0  0  0  0  0  0  0  0
  -19.8447   11.1438  -16.9464 C   0  0  0  0  0  0  0  0  0  0  0  0
  -19.0585   10.9735  -18.0845 C   0  0  0  0  0  0  0  0  0  0  0  0
  -18.2044   11.9739  -18.5462 C   0  0  0  0  0  0  0  0  0  0  0  0
  -18.1879   13.1309  -17.8086 C   0  0  0  0  0  0  0  0  0  0  0  0
  -18.9576   13.3136  -16.6817 C   0  0  0  0  0  0  0  0  0  0  0  0
  -20.9496   11.6207  -14.1525 C   0  0  0  0  0  0  0  0  0  0  0  0
  -20.5561   12.5722  -15.0916 O   0  0  0  0  0  0  0  0  0  0  0  0
 32 33  1  0  0  0
 33 26  1  0  0  0
 26 27  2  0  0  0
 27 28  1  0  0  0
 28 29  2  0  0  0
 29 30  1  0  0  0
 30 31  2  0  0  0
 29  1  1  0  0  0
  1  2  1  0  0  0
  2  3  2  0  0  0
  3  4  1  0  0  0
  4  5  2  0  0  0
  5  6  1  0  0  0
  6  7  2  0  0  0
  7  8  1  0  0  0
  8 10  1  0  0  0
 10 11  2  0  0  0
 11 12  1  0  0  0
 12 13  2  0  0  0
 13 14  1  0  0  0
 14 15  2  0  0  0
 15 16  1  0  0  0
 15 17  1  0  0  0
 17 18  2  0  0  0
 18 19  1  0  0  0
 19 20  1  0  0  0
 19 21  2  0  0  0
  8  9  2  0  0  0
 31 26  1  0  0  0
  9  1  1  0  0  0
  9  4  1  0  0  0
 21 10  1  0  0  0
 21 14  1  0  0  0
 16 22  1  0  0  0
 16 23  1  0  0  0
 20 24  1  0  0  0
 20 25  1  0  0  0
M  END
> <minimizedAffinity>
-8.08116

> <CNNscore>
0.1562526077

> <CNNaffinity>
6.7295885086

> <CNN_VS>
1.0515156984

> <CNNaffinity_variance>
0.2677024305

$$$$
