[H]c1nc2c([H])c(OC([H])([H])C([H])([H])C([H])([H])N3C([H])([H])C([H])([H])OC([H])([H])C3([H])[H])c(OC([H])([H])[H])c([H])c2c(Oc2c([H])c([H])c(N([H])C(=O)N([H])c3c(F)c([H])c([H])c([H])c3F)c([H])c2F)c1[H]


 44 48  0  0  0  0  0  0  0  0999 V2000
  -19.9752   11.3120  -16.0448 C   0  0  0  0  0  0  0  0  0  0  0  0
  -19.5846   12.3323  -16.8906 C   0  0  0  0  0  0  0  0  0  0  0  0
  -18.7762   12.1119  -17.9929 C   0  0  0  0  0  0  0  0  0  0  0  0
  -18.4007   13.1754  -18.8303 C   0  0  0  0  0  0  0  0  0  0  0  0
  -17.6048   12.9341  -19.9095 C   0  0  0  0  0  0  0  0  0  0  0  0
  -17.1889   11.6312  -20.1444 C   0  0  0  0  0  0  0  0  0  0  0  0
  -17.5396   10.6039  -19.3526 N   0  0  0  0  0  0  0  0  0  0  0  0
  -18.3271   10.8474  -18.2868 C   0  0  0  0  0  0  0  0  0  0  0  0
  -18.7228    9.8197  -17.4316 C   0  0  0  0  0  0  0  0  0  0  0  0
  -19.5318   10.0376  -16.3291 C   0  0  0  0  0  0  0  0  0  0  0  0
  -22.1941   11.3811  -15.1172 C   0  0  0  0  0  0  0  0  0  0  0  0
  -20.7865   11.5269  -14.9367 O   0  0  0  0  0  0  0  0  0  0  0  0
  -18.8825   14.4029  -18.4781 O   0  0  0  0  0  0  0  0  0  0  0  0
  -19.6238   15.2814  -19.2230 C   0  0  0  0  0  0  0  0  0  0  0  0
  -19.1130   16.5132  -19.5687 C   0  0  0  0  0  0  0  0  0  0  0  0
  -19.8611   17.3997  -20.3221 C   0  0  0  0  0  0  0  0  0  0  0  0
  -21.1344   17.1217  -20.7677 C   0  0  0  0  0  0  0  0  0  0  0  0
  -21.6311   15.8715  -20.4080 C   0  0  0  0  0  0  0  0  0  0  0  0
  -20.9016   14.9933  -19.6672 C   0  0  0  0  0  0  0  0  0  0  0  0
  -21.4032   13.7542  -19.3401 F   0  0  0  0  0  0  0  0  0  0  0  0
  -21.9319   18.0049  -21.5178 N   0  0  0  0  0  0  0  0  0  0  0  0
  -21.8836   18.2263  -22.8937 C   0  0  0  0  0  0  0  0  0  0  0  0
  -21.0853   17.6521  -23.6851 O   0  0  0  0  0  0  0  0  0  0  0  0
  -22.7667   19.1561  -23.5491 N   0  0  0  0  0  0  0  0  0  0  0  0
  -22.6558   18.5670  -20.9753 H   0  0  0  0  0  0  0  0  0  0  0  0
  -23.4465   19.6525  -22.9355 H   0  0  0  0  0  0  0  0  0  0  0  0
  -22.7496   19.4128  -24.9321 C   0  0  0  0  0  0  0  0  0  0  0  0
  -22.1412   20.5756  -25.4106 C   0  0  0  0  0  0  0  0  0  0  0  0
  -21.5659   21.4541  -24.5546 F   0  0  0  0  0  0  0  0  0  0  0  0
  -22.1563   20.7758  -26.7746 C   0  0  0  0  0  0  0  0  0  0  0  0
  -22.7328   19.8946  -27.6446 C   0  0  0  0  0  0  0  0  0  0  0  0
  -23.3283   18.7490  -27.1282 C   0  0  0  0  0  0  0  0  0  0  0  0
  -23.3450   18.4931  -25.7737 C   0  0  0  0  0  0  0  0  0  0  0  0
  -23.9341   17.3608  -25.2685 F   0  0  0  0  0  0  0  0  0  0  0  0
  -19.9183    9.0042  -15.4878 O   0  0  0  0  0  0  0  0  0  0  0  0
  -19.0823    8.4745  -14.4856 C   0  0  0  0  0  0  0  0  0  0  0  0
  -19.7165    8.7946  -13.1271 C   0  0  0  0  0  0  0  0  0  0  0  0
  -19.0062    7.9881  -12.0950 C   0  0  0  0  0  0  0  0  0  0  0  0
  -18.1406    8.7718  -11.2448 N   0  0  0  0  0  0  0  0  0  0  0  0
  -18.8147    9.9968  -10.8525 C   0  0  0  0  0  0  0  0  0  0  0  0
  -18.4883   10.3846   -9.4378 C   0  0  0  0  0  0  0  0  0  0  0  0
  -17.1602   10.1985   -9.1225 O   0  0  0  0  0  0  0  0  0  0  0  0
  -16.6841    8.9340   -9.3550 C   0  0  0  0  0  0  0  0  0  0  0  0
  -17.6549    8.0370  -10.0978 C   0  0  0  0  0  0  0  0  0  0  0  0
 11 12  1  0  0  0
 12  1  1  0  0  0
  1  2  2  0  0  0
  2  3  1  0  0  0
  3  4  2  0  0  0
  4 13  1  0  0  0
 13 14  1  0  0  0
 14 15  2  0  0  0
 15 16  1  0  0  0
 16 17  2  0  0  0
 17 21  1  0  0  0
 21 22  1  0  0  0
 22 23  2  0  0  0
 22 24  1  0  0  0
 24 27  1  0  0  0
 27 28  2  0  0  0
 28 29  1  0  0  0
 28 30  1  0  0  0
 30 31  2  0  0  0
 31 32  1  0  0  0
 32 33  2  0  0  0
 33 34  1  0  0  0
 17 18  1  0  0  0
 18 19  2  0  0  0
 19 20  1  0  0  0
  4  5  1  0  0  0
  5  6  2  0  0  0
  6  7  1  0  0  0
  7  8  2  0  0  0
  8  9  1  0  0  0
  9 10  2  0  0  0
 10 35  1  0  0  0
 35 36  1  0  0  0
 36 37  1  0  0  0
 37 38  1  0  0  0
 38 39  1  0  0  0
 39 40  1  0  0  0
 40 41  1  0  0  0
 41 42  1  0  0  0
 42 43  1  0  0  0
 43 44  1  0  0  0
 10  1  1  0  0  0
 44 39  1  0  0  0
  8  3  1  0  0  0
 19 14  1  0  0  0
 33 27  1  0  0  0
 21 25  1  0  0  0
 24 26  1  0  0  0
M  END
> <minimizedAffinity>
-8.58106

> <CNNscore>
0.3736400306

> <CNNaffinity>
6.7373909950

> <CNN_VS>
2.5173590183

> <CNNaffinity_variance>
0.0621478669

$$$$
[H]c1nc2c([H])c(OC([H])([H])C([H])([H])C([H])([H])N3C([H])([H])C([H])([H])OC([H])([H])C3([H])[H])c(OC([H])([H])[H])c([H])c2c(Oc2c([H])c([H])c(N([H])C(=O)N([H])c3c(F)c([H])c([H])c([H])c3F)c([H])c2F)c1[H]


 44 48  0  0  0  0  0  0  0  0999 V2000
  -20.2570   10.9289  -16.1948 C   0  0  0  0  0  0  0  0  0  0  0  0
  -19.5792   11.8064  -17.0191 C   0  0  0  0  0  0  0  0  0  0  0  0
  -18.6143   11.3831  -17.9175 C   0  0  0  0  0  0  0  0  0  0  0  0
  -17.9468   12.3059  -18.7399 C   0  0  0  0  0  0  0  0  0  0  0  0
  -17.0014   11.8658  -19.6166 C   0  0  0  0  0  0  0  0  0  0  0  0
  -16.7287   10.5060  -19.6653 C   0  0  0  0  0  0  0  0  0  0  0  0
  -17.3585    9.6115  -18.8851 N   0  0  0  0  0  0  0  0  0  0  0  0
  -18.2930   10.0515  -18.0200 C   0  0  0  0  0  0  0  0  0  0  0  0
  -18.9787    9.1683  -17.1869 C   0  0  0  0  0  0  0  0  0  0  0  0
  -19.9444    9.5892  -16.2883 C   0  0  0  0  0  0  0  0  0  0  0  0
  -21.5280   12.7416  -15.2526 C   0  0  0  0  0  0  0  0  0  0  0  0
  -21.2266   11.3477  -15.2909 O   0  0  0  0  0  0  0  0  0  0  0  0
  -18.3160   13.6107  -18.5842 O   0  0  0  0  0  0  0  0  0  0  0  0
  -18.5907   14.5468  -19.5457 C   0  0  0  0  0  0  0  0  0  0  0  0
  -17.7899   15.6582  -19.6918 C   0  0  0  0  0  0  0  0  0  0  0  0
  -18.0666   16.6027  -20.6636 C   0  0  0  0  0  0  0  0  0  0  0  0
  -19.1326   16.5021  -21.5300 C   0  0  0  0  0  0  0  0  0  0  0  0
  -19.9284   15.3712  -21.3657 C   0  0  0  0  0  0  0  0  0  0  0  0
  -19.6631   14.4370  -20.4123 C   0  0  0  0  0  0  0  0  0  0  0  0
  -20.4500   13.3158  -20.2802 F   0  0  0  0  0  0  0  0  0  0  0  0
  -19.4564   17.4515  -22.5162 N   0  0  0  0  0  0  0  0  0  0  0  0
  -20.7025   18.0291  -22.7567 C   0  0  0  0  0  0  0  0  0  0  0  0
  -21.7523   17.7667  -22.1069 O   0  0  0  0  0  0  0  0  0  0  0  0
  -20.9045   19.0037  -23.7975 N   0  0  0  0  0  0  0  0  0  0  0  0
  -18.6606   17.7670  -23.1500 H   0  0  0  0  0  0  0  0  0  0  0  0
  -20.0641   19.2547  -24.3594 H   0  0  0  0  0  0  0  0  0  0  0  0
  -22.1437   19.6080  -24.0770 C   0  0  0  0  0  0  0  0  0  0  0  0
  -22.4454   20.8531  -23.5205 C   0  0  0  0  0  0  0  0  0  0  0  0
  -21.5539   21.4830  -22.7180 F   0  0  0  0  0  0  0  0  0  0  0  0
  -23.6749   21.3962  -23.8275 C   0  0  0  0  0  0  0  0  0  0  0  0
  -24.5788   20.7685  -24.6367 C   0  0  0  0  0  0  0  0  0  0  0  0
  -24.2404   19.5300  -25.1708 C   0  0  0  0  0  0  0  0  0  0  0  0
  -23.0260   18.9359  -24.9007 C   0  0  0  0  0  0  0  0  0  0  0  0
  -22.6964   17.7132  -25.4303 F   0  0  0  0  0  0  0  0  0  0  0  0
  -20.6193    8.6978  -15.4666 O   0  0  0  0  0  0  0  0  0  0  0  0
  -19.9629    7.7636  -14.6419 C   0  0  0  0  0  0  0  0  0  0  0  0
  -18.9681    8.5303  -13.7627 C   0  0  0  0  0  0  0  0  0  0  0  0
  -19.6582    8.8654  -12.4854 C   0  0  0  0  0  0  0  0  0  0  0  0
  -18.7987    9.5016  -11.5144 N   0  0  0  0  0  0  0  0  0  0  0  0
  -19.5309   10.5449  -10.8186 C   0  0  0  0  0  0  0  0  0  0  0  0
  -19.1462   10.6238   -9.3680 C   0  0  0  0  0  0  0  0  0  0  0  0
  -17.7917   10.4796   -9.1628 O   0  0  0  0  0  0  0  0  0  0  0  0
  -17.2440    9.3451   -9.7039 C   0  0  0  0  0  0  0  0  0  0  0  0
  -18.1939    8.5658  -10.5924 C   0  0  0  0  0  0  0  0  0  0  0  0
 11 12  1  0  0  0
 12  1  1  0  0  0
  1  2  2  0  0  0
  2  3  1  0  0  0
  3  4  2  0  0  0
  4 13  1  0  0  0
 13 14  1  0  0  0
 14 15  2  0  0  0
 15 16  1  0  0  0
 16 17  2  0  0  0
 17 21  1  0  0  0
 21 22  1  0  0  0
 22 23  2  0  0  0
 22 24  1  0  0  0
 24 27  1  0  0  0
 27 28  2  0  0  0
 28 29  1  0  0  0
 28 30  1  0  0  0
 30 31  2  0  0  0
 31 32  1  0  0  0
 32 33  2  0  0  0
 33 34  1  0  0  0
 17 18  1  0  0  0
 18 19  2  0  0  0
 19 20  1  0  0  0
  4  5  1  0  0  0
  5  6  2  0  0  0
  6  7  1  0  0  0
  7  8  2  0  0  0
  8  9  1  0  0  0
  9 10  2  0  0  0
 10 35  1  0  0  0
 35 36  1  0  0  0
 36 37  1  0  0  0
 37 38  1  0  0  0
 38 39  1  0  0  0
 39 40  1  0  0  0
 40 41  1  0  0  0
 41 42  1  0  0  0
 42 43  1  0  0  0
 43 44  1  0  0  0
 10  1  1  0  0  0
 44 39  1  0  0  0
  8  3  1  0  0  0
 19 14  1  0  0  0
 33 27  1  0  0  0
 21 25  1  0  0  0
 24 26  1  0  0  0
M  END
> <minimizedAffinity>
-8.45753

> <CNNscore>
0.3193324506

> <CNNaffinity>
6.9343400002

> <CNN_VS>
2.2143597603

> <CNNaffinity_variance>
0.0497196540

$$$$
[H]c1nc2c([H])c(OC([H])([H])C([H])([H])C([H])([H])N3C([H])([H])C([H])([H])OC([H])([H])C3([H])[H])c(OC([H])([H])[H])c([H])c2c(Oc2c([H])c([H])c(N([H])C(=O)N([H])c3c(F)c([H])c([H])c([H])c3F)c([H])c2F)c1[H]


 44 48  0  0  0  0  0  0  0  0999 V2000
  -21.5801   12.1177  -13.8737 C   0  0  0  0  0  0  0  0  0  0  0  0
  -20.8936   11.8048  -15.0311 C   0  0  0  0  0  0  0  0  0  0  0  0
  -20.3447   10.5528  -15.2512 C   0  0  0  0  0  0  0  0  0  0  0  0
  -19.6540   10.2723  -16.4418 C   0  0  0  0  0  0  0  0  0  0  0  0
  -19.1229    9.0328  -16.6361 C   0  0  0  0  0  0  0  0  0  0  0  0
  -19.2852    8.0816  -15.6388 C   0  0  0  0  0  0  0  0  0  0  0  0
  -19.9430    8.3350  -14.4950 N   0  0  0  0  0  0  0  0  0  0  0  0
  -20.4669    9.5621  -14.3075 C   0  0  0  0  0  0  0  0  0  0  0  0
  -21.1602    9.8806  -13.1404 C   0  0  0  0  0  0  0  0  0  0  0  0
  -21.7104   11.1318  -12.9185 C   0  0  0  0  0  0  0  0  0  0  0  0
  -23.1803   13.7944  -14.5192 C   0  0  0  0  0  0  0  0  0  0  0  0
  -22.1332   13.3727  -13.6469 O   0  0  0  0  0  0  0  0  0  0  0  0
  -19.5712   11.3026  -17.3332 O   0  0  0  0  0  0  0  0  0  0  0  0
  -18.7859   11.4118  -18.4501 C   0  0  0  0  0  0  0  0  0  0  0  0
  -17.6947   10.5889  -18.6237 C   0  0  0  0  0  0  0  0  0  0  0  0
  -16.9025   10.6984  -19.7522 C   0  0  0  0  0  0  0  0  0  0  0  0
  -17.1415   11.6123  -20.7546 C   0  0  0  0  0  0  0  0  0  0  0  0
  -18.2494   12.4333  -20.5597 C   0  0  0  0  0  0  0  0  0  0  0  0
  -19.0341   12.3320  -19.4524 C   0  0  0  0  0  0  0  0  0  0  0  0
  -20.1368   13.1390  -19.2890 F   0  0  0  0  0  0  0  0  0  0  0  0
  -16.3474   11.7659  -21.9054 N   0  0  0  0  0  0  0  0  0  0  0  0
  -16.4485   12.7624  -22.8754 C   0  0  0  0  0  0  0  0  0  0  0  0
  -17.3008   13.6935  -22.8613 O   0  0  0  0  0  0  0  0  0  0  0  0
  -15.5631   12.8168  -24.0098 N   0  0  0  0  0  0  0  0  0  0  0  0
  -15.5807   11.0413  -22.0525 H   0  0  0  0  0  0  0  0  0  0  0  0
  -14.8398   12.0691  -24.0626 H   0  0  0  0  0  0  0  0  0  0  0  0
  -15.6322   13.8007  -25.0129 C   0  0  0  0  0  0  0  0  0  0  0  0
  -14.7244   14.8623  -25.0019 C   0  0  0  0  0  0  0  0  0  0  0  0
  -13.7780   14.9492  -24.0364 F   0  0  0  0  0  0  0  0  0  0  0  0
  -14.8407   15.7975  -26.0082 C   0  0  0  0  0  0  0  0  0  0  0  0
  -15.7909   15.7167  -26.9861 C   0  0  0  0  0  0  0  0  0  0  0  0
  -16.6760   14.6444  -26.9615 C   0  0  0  0  0  0  0  0  0  0  0  0
  -16.6097   13.6773  -25.9813 C   0  0  0  0  0  0  0  0  0  0  0  0
  -17.4856   12.6206  -25.9612 F   0  0  0  0  0  0  0  0  0  0  0  0
  -22.3990   11.4334  -11.7523 O   0  0  0  0  0  0  0  0  0  0  0  0
  -21.7615   11.8612  -10.5713 C   0  0  0  0  0  0  0  0  0  0  0  0
  -21.5191   10.6270   -9.6947 C   0  0  0  0  0  0  0  0  0  0  0  0
  -20.3251   10.9020   -8.8468 C   0  0  0  0  0  0  0  0  0  0  0  0
  -19.2492    9.9580   -9.0411 N   0  0  0  0  0  0  0  0  0  0  0  0
  -19.7080    8.8520   -9.8628 C   0  0  0  0  0  0  0  0  0  0  0  0
  -18.6360    8.3711  -10.7997 C   0  0  0  0  0  0  0  0  0  0  0  0
  -17.3912    8.3216  -10.2117 O   0  0  0  0  0  0  0  0  0  0  0  0
  -16.9792    9.4948   -9.6341 C   0  0  0  0  0  0  0  0  0  0  0  0
  -18.0521   10.5648   -9.5798 C   0  0  0  0  0  0  0  0  0  0  0  0
 11 12  1  0  0  0
 12  1  1  0  0  0
  1  2  2  0  0  0
  2  3  1  0  0  0
  3  4  2  0  0  0
  4 13  1  0  0  0
 13 14  1  0  0  0
 14 15  2  0  0  0
 15 16  1  0  0  0
 16 17  2  0  0  0
 17 21  1  0  0  0
 21 22  1  0  0  0
 22 23  2  0  0  0
 22 24  1  0  0  0
 24 27  1  0  0  0
 27 28  2  0  0  0
 28 29  1  0  0  0
 28 30  1  0  0  0
 30 31  2  0  0  0
 31 32  1  0  0  0
 32 33  2  0  0  0
 33 34  1  0  0  0
 17 18  1  0  0  0
 18 19  2  0  0  0
 19 20  1  0  0  0
  4  5  1  0  0  0
  5  6  2  0  0  0
  6  7  1  0  0  0
  7  8  2  0  0  0
  8  9  1  0  0  0
  9 10  2  0  0  0
 10 35  1  0  0  0
 35 36  1  0  0  0
 36 37  1  0  0  0
 37 38  1  0  0  0
 38 39  1  0  0  0
 39 40  1  0  0  0
 40 41  1  0  0  0
 41 42  1  0  0  0
 42 43  1  0  0  0
 43 44  1  0  0  0
 10  1  1  0  0  0
 44 39  1  0  0  0
  8  3  1  0  0  0
 19 14  1  0  0  0
 33 27  1  0  0  0
 21 25  1  0  0  0
 24 26  1  0  0  0
M  END
> <minimizedAffinity>
-9.62301

> <CNNscore>
0.3146316111

> <CNNaffinity>
7.0097260475

> <CNN_VS>
2.2054812908

> <CNNaffinity_variance>
0.0713878945

$$$$
[H]c1nc2c([H])c(OC([H])([H])C([H])([H])C([H])([H])N3C([H])([H])C([H])([H])OC([H])([H])C3([H])[H])c(OC([H])([H])[H])c([H])c2c(Oc2c([H])c([H])c(N([H])C(=O)N([H])c3c(F)c([H])c([H])c([H])c3F)c([H])c2F)c1[H]


 44 48  0  0  0  0  0  0  0  0999 V2000
  -19.2527   12.5182  -19.4758 C   0  0  0  0  0  0  0  0  0  0  0  0
  -18.6031   12.5855  -20.6934 C   0  0  0  0  0  0  0  0  0  0  0  0
  -17.4189   11.9114  -20.9392 C   0  0  0  0  0  0  0  0  0  0  0  0
  -16.7882   12.0039  -22.1910 C   0  0  0  0  0  0  0  0  0  0  0  0
  -15.6238   11.3312  -22.4097 C   0  0  0  0  0  0  0  0  0  0  0  0
  -15.0969   10.5706  -21.3755 C   0  0  0  0  0  0  0  0  0  0  0  0
  -15.6884   10.4725  -20.1731 N   0  0  0  0  0  0  0  0  0  0  0  0
  -16.8400   11.1392  -19.9616 C   0  0  0  0  0  0  0  0  0  0  0  0
  -17.4978   11.0732  -18.7340 C   0  0  0  0  0  0  0  0  0  0  0  0
  -18.6824   11.7459  -18.4860 C   0  0  0  0  0  0  0  0  0  0  0  0
  -20.7180   14.3504  -20.0094 C   0  0  0  0  0  0  0  0  0  0  0  0
  -20.4416   13.1927  -19.2229 O   0  0  0  0  0  0  0  0  0  0  0  0
  -17.4186   12.7879  -23.1134 O   0  0  0  0  0  0  0  0  0  0  0  0
  -17.4718   14.1546  -23.1872 C   0  0  0  0  0  0  0  0  0  0  0  0
  -16.7851   14.9334  -22.2817 C   0  0  0  0  0  0  0  0  0  0  0  0
  -16.8378   16.3135  -22.3572 C   0  0  0  0  0  0  0  0  0  0  0  0
  -17.5605   16.9884  -23.3159 C   0  0  0  0  0  0  0  0  0  0  0  0
  -18.2462   16.1826  -24.2213 C   0  0  0  0  0  0  0  0  0  0  0  0
  -18.1995   14.8241  -24.1543 C   0  0  0  0  0  0  0  0  0  0  0  0
  -18.8678   14.0458  -25.0717 F   0  0  0  0  0  0  0  0  0  0  0  0
  -17.6537   18.3887  -23.4116 N   0  0  0  0  0  0  0  0  0  0  0  0
  -18.7681   19.1821  -23.1419 C   0  0  0  0  0  0  0  0  0  0  0  0
  -19.8902   18.7401  -22.7693 O   0  0  0  0  0  0  0  0  0  0  0  0
  -18.7334   20.6162  -23.2685 N   0  0  0  0  0  0  0  0  0  0  0  0
  -16.7740   18.9022  -23.7230 H   0  0  0  0  0  0  0  0  0  0  0  0
  -17.8255   21.0275  -23.5711 H   0  0  0  0  0  0  0  0  0  0  0  0
  -19.8339   21.4537  -23.0109 C   0  0  0  0  0  0  0  0  0  0  0  0
  -20.7631   21.7033  -24.0236 C   0  0  0  0  0  0  0  0  0  0  0  0
  -20.6140   21.1434  -25.2483 F   0  0  0  0  0  0  0  0  0  0  0  0
  -21.8200   22.5329  -23.7147 C   0  0  0  0  0  0  0  0  0  0  0  0
  -21.9785   23.1003  -22.4823 C   0  0  0  0  0  0  0  0  0  0  0  0
  -21.0315   22.8269  -21.5014 C   0  0  0  0  0  0  0  0  0  0  0  0
  -19.9529   22.0050  -21.7497 C   0  0  0  0  0  0  0  0  0  0  0  0
  -19.0206   21.7380  -20.7783 F   0  0  0  0  0  0  0  0  0  0  0  0
  -19.3260   11.6693  -17.2593 O   0  0  0  0  0  0  0  0  0  0  0  0
  -19.9044   10.4832  -16.7668 C   0  0  0  0  0  0  0  0  0  0  0  0
  -20.1844   10.6821  -15.2727 C   0  0  0  0  0  0  0  0  0  0  0  0
  -19.7251    9.4572  -14.5594 C   0  0  0  0  0  0  0  0  0  0  0  0
  -20.7996    8.5615  -14.1996 N   0  0  0  0  0  0  0  0  0  0  0  0
  -22.0298    9.3137  -14.0272 C   0  0  0  0  0  0  0  0  0  0  0  0
  -23.2248    8.5500  -14.5241 C   0  0  0  0  0  0  0  0  0  0  0  0
  -23.1835    7.2132  -14.1939 O   0  0  0  0  0  0  0  0  0  0  0  0
  -22.0454    6.5572  -14.5866 C   0  0  0  0  0  0  0  0  0  0  0  0
  -20.9657    7.4702  -15.1339 C   0  0  0  0  0  0  0  0  0  0  0  0
 11 12  1  0  0  0
 12  1  1  0  0  0
  1  2  2  0  0  0
  2  3  1  0  0  0
  3  4  2  0  0  0
  4 13  1  0  0  0
 13 14  1  0  0  0
 14 15  2  0  0  0
 15 16  1  0  0  0
 16 17  2  0  0  0
 17 21  1  0  0  0
 21 22  1  0  0  0
 22 23  2  0  0  0
 22 24  1  0  0  0
 24 27  1  0  0  0
 27 28  2  0  0  0
 28 29  1  0  0  0
 28 30  1  0  0  0
 30 31  2  0  0  0
 31 32  1  0  0  0
 32 33  2  0  0  0
 33 34  1  0  0  0
 17 18  1  0  0  0
 18 19  2  0  0  0
 19 20  1  0  0  0
  4  5  1  0  0  0
  5  6  2  0  0  0
  6  7  1  0  0  0
  7  8  2  0  0  0
  8  9  1  0  0  0
  9 10  2  0  0  0
 10 35  1  0  0  0
 35 36  1  0  0  0
 36 37  1  0  0  0
 37 38  1  0  0  0
 38 39  1  0  0  0
 39 40  1  0  0  0
 40 41  1  0  0  0
 41 42  1  0  0  0
 42 43  1  0  0  0
 43 44  1  0  0  0
 10  1  1  0  0  0
 44 39  1  0  0  0
  8  3  1  0  0  0
 19 14  1  0  0  0
 33 27  1  0  0  0
 21 25  1  0  0  0
 24 26  1  0  0  0
M  END
> <minimizedAffinity>
-8.28155

> <CNNscore>
0.2738682032

> <CNNaffinity>
7.0762434006

> <CNN_VS>
1.9379581213

> <CNNaffinity_variance>
0.0772467330

$$$$
[H]c1nc2c([H])c(OC([H])([H])C([H])([H])C([H])([H])N3C([H])([H])C([H])([H])OC([H])([H])C3([H])[H])c(OC([H])([H])[H])c([H])c2c(Oc2c([H])c([H])c(N([H])C(=O)N([H])c3c(F)c([H])c([H])c([H])c3F)c([H])c2F)c1[H]


 44 48  0  0  0  0  0  0  0  0999 V2000
  -18.3872   16.9422  -21.7117 C   0  0  0  0  0  0  0  0  0  0  0  0
  -17.7916   15.6961  -21.6740 C   0  0  0  0  0  0  0  0  0  0  0  0
  -17.7927   14.8415  -22.7634 C   0  0  0  0  0  0  0  0  0  0  0  0
  -17.1756   13.5819  -22.6868 C   0  0  0  0  0  0  0  0  0  0  0  0
  -17.1891   12.7583  -23.7720 C   0  0  0  0  0  0  0  0  0  0  0  0
  -17.8199   13.1988  -24.9269 C   0  0  0  0  0  0  0  0  0  0  0  0
  -18.4144   14.4004  -25.0153 N   0  0  0  0  0  0  0  0  0  0  0  0
  -18.3981   15.2117  -23.9397 C   0  0  0  0  0  0  0  0  0  0  0  0
  -18.9984   16.4697  -23.9748 C   0  0  0  0  0  0  0  0  0  0  0  0
  -18.9980   17.3263  -22.8868 C   0  0  0  0  0  0  0  0  0  0  0  0
  -17.1413   18.3788  -20.2377 C   0  0  0  0  0  0  0  0  0  0  0  0
  -18.3896   17.8045  -20.6214 O   0  0  0  0  0  0  0  0  0  0  0  0
  -16.5949   13.2807  -21.4889 O   0  0  0  0  0  0  0  0  0  0  0  0
  -16.9248   12.2942  -20.5977 C   0  0  0  0  0  0  0  0  0  0  0  0
  -17.8467   12.5286  -19.6011 C   0  0  0  0  0  0  0  0  0  0  0  0
  -18.1806   11.5320  -18.7021 C   0  0  0  0  0  0  0  0  0  0  0  0
  -17.6308   10.2697  -18.7382 C   0  0  0  0  0  0  0  0  0  0  0  0
  -16.7023   10.0538  -19.7535 C   0  0  0  0  0  0  0  0  0  0  0  0
  -16.3682   11.0288  -20.6422 C   0  0  0  0  0  0  0  0  0  0  0  0
  -15.4636   10.7885  -21.6511 F   0  0  0  0  0  0  0  0  0  0  0  0
  -17.9307    9.2383  -17.8300 N   0  0  0  0  0  0  0  0  0  0  0  0
  -19.0479    9.1400  -17.0014 C   0  0  0  0  0  0  0  0  0  0  0  0
  -19.9743    9.9953  -16.9417 O   0  0  0  0  0  0  0  0  0  0  0  0
  -19.2467    8.0210  -16.1169 N   0  0  0  0  0  0  0  0  0  0  0  0
  -17.2271    8.4410  -17.7688 H   0  0  0  0  0  0  0  0  0  0  0  0
  -18.5080    7.2869  -16.1338 H   0  0  0  0  0  0  0  0  0  0  0  0
  -20.3555    7.8837  -15.2621 C   0  0  0  0  0  0  0  0  0  0  0  0
  -21.3549    6.9583  -15.5717 C   0  0  0  0  0  0  0  0  0  0  0  0
  -21.2627    6.1916  -16.6848 F   0  0  0  0  0  0  0  0  0  0  0  0
  -22.4186    6.8683  -14.6992 C   0  0  0  0  0  0  0  0  0  0  0  0
  -22.5187    7.6365  -13.5741 C   0  0  0  0  0  0  0  0  0  0  0  0
  -21.5027    8.5460  -13.3016 C   0  0  0  0  0  0  0  0  0  0  0  0
  -20.4136    8.6817  -14.1359 C   0  0  0  0  0  0  0  0  0  0  0  0
  -19.4132    9.5810  -13.8627 F   0  0  0  0  0  0  0  0  0  0  0  0
  -19.5985   18.5760  -22.9376 O   0  0  0  0  0  0  0  0  0  0  0  0
  -20.7186   18.9235  -22.1574 C   0  0  0  0  0  0  0  0  0  0  0  0
  -21.8248   17.9009  -22.4419 C   0  0  0  0  0  0  0  0  0  0  0  0
  -23.0872   18.6552  -22.6817 C   0  0  0  0  0  0  0  0  0  0  0  0
  -23.5929   18.5215  -24.0281 N   0  0  0  0  0  0  0  0  0  0  0  0
  -23.5640   19.8115  -24.6944 C   0  0  0  0  0  0  0  0  0  0  0  0
  -23.2008   19.6811  -26.1468 C   0  0  0  0  0  0  0  0  0  0  0  0
  -23.8059   18.6045  -26.7573 O   0  0  0  0  0  0  0  0  0  0  0  0
  -23.5963   17.3986  -26.1395 C   0  0  0  0  0  0  0  0  0  0  0  0
  -22.9040   17.5072  -24.7950 C   0  0  0  0  0  0  0  0  0  0  0  0
 11 12  1  0  0  0
 12  1  1  0  0  0
  1  2  2  0  0  0
  2  3  1  0  0  0
  3  4  2  0  0  0
  4 13  1  0  0  0
 13 14  1  0  0  0
 14 15  2  0  0  0
 15 16  1  0  0  0
 16 17  2  0  0  0
 17 21  1  0  0  0
 21 22  1  0  0  0
 22 23  2  0  0  0
 22 24  1  0  0  0
 24 27  1  0  0  0
 27 28  2  0  0  0
 28 29  1  0  0  0
 28 30  1  0  0  0
 30 31  2  0  0  0
 31 32  1  0  0  0
 32 33  2  0  0  0
 33 34  1  0  0  0
 17 18  1  0  0  0
 18 19  2  0  0  0
 19 20  1  0  0  0
  4  5  1  0  0  0
  5  6  2  0  0  0
  6  7  1  0  0  0
  7  8  2  0  0  0
  8  9  1  0  0  0
  9 10  2  0  0  0
 10 35  1  0  0  0
 35 36  1  0  0  0
 36 37  1  0  0  0
 37 38  1  0  0  0
 38 39  1  0  0  0
 39 40  1  0  0  0
 40 41  1  0  0  0
 41 42  1  0  0  0
 42 43  1  0  0  0
 43 44  1  0  0  0
 10  1  1  0  0  0
 44 39  1  0  0  0
  8  3  1  0  0  0
 19 14  1  0  0  0
 33 27  1  0  0  0
 21 25  1  0  0  0
 24 26  1  0  0  0
M  END
> <minimizedAffinity>
-9.01986

> <CNNscore>
0.1936476529

> <CNNaffinity>
6.6403503418

> <CNN_VS>
1.2858883142

> <CNNaffinity_variance>
0.6442340612

$$$$
[H]c1nc2c([H])c(OC([H])([H])C([H])([H])C([H])([H])N3C([H])([H])C([H])([H])OC([H])([H])C3([H])[H])c(OC([H])([H])[H])c([H])c2c(Oc2c([H])c([H])c(N([H])C(=O)N([H])c3c(F)c([H])c([H])c([H])c3F)c([H])c2F)c1[H]


 44 48  0  0  0  0  0  0  0  0999 V2000
  -18.4764   16.2438  -21.6051 C   0  0  0  0  0  0  0  0  0  0  0  0
  -18.0511   14.9756  -21.9509 C   0  0  0  0  0  0  0  0  0  0  0  0
  -16.8513   14.7492  -22.6038 C   0  0  0  0  0  0  0  0  0  0  0  0
  -16.4524   13.4444  -22.9384 C   0  0  0  0  0  0  0  0  0  0  0  0
  -15.2673   13.2464  -23.5804 C   0  0  0  0  0  0  0  0  0  0  0  0
  -14.4883   14.3539  -23.8844 C   0  0  0  0  0  0  0  0  0  0  0  0
  -14.8564   15.6075  -23.5711 N   0  0  0  0  0  0  0  0  0  0  0  0
  -16.0291   15.7984  -22.9358 C   0  0  0  0  0  0  0  0  0  0  0  0
  -16.4609   17.0771  -22.5856 C   0  0  0  0  0  0  0  0  0  0  0  0
  -17.6600   17.3058  -21.9321 C   0  0  0  0  0  0  0  0  0  0  0  0
  -20.2923   15.3706  -20.2901 C   0  0  0  0  0  0  0  0  0  0  0  0
  -19.6798   16.4775  -20.9497 O   0  0  0  0  0  0  0  0  0  0  0  0
  -17.3177   12.4520  -22.5787 O   0  0  0  0  0  0  0  0  0  0  0  0
  -17.3995   11.7709  -21.3932 C   0  0  0  0  0  0  0  0  0  0  0  0
  -18.3832   12.0729  -20.4771 C   0  0  0  0  0  0  0  0  0  0  0  0
  -18.4665   11.3841  -19.2805 C   0  0  0  0  0  0  0  0  0  0  0  0
  -17.5965   10.3757  -18.9296 C   0  0  0  0  0  0  0  0  0  0  0  0
  -16.6109   10.0861  -19.8697 C   0  0  0  0  0  0  0  0  0  0  0  0
  -16.5219   10.7587  -21.0495 C   0  0  0  0  0  0  0  0  0  0  0  0
  -15.5529   10.4427  -21.9742 F   0  0  0  0  0  0  0  0  0  0  0  0
  -17.6380    9.6677  -17.7148 N   0  0  0  0  0  0  0  0  0  0  0  0
  -18.7376    9.4931  -16.8753 C   0  0  0  0  0  0  0  0  0  0  0  0
  -19.8869    9.9687  -17.0902 O   0  0  0  0  0  0  0  0  0  0  0  0
  -18.6539    8.7326  -15.6553 N   0  0  0  0  0  0  0  0  0  0  0  0
  -16.7283    9.2113  -17.4008 H   0  0  0  0  0  0  0  0  0  0  0  0
  -17.7238    8.3175  -15.4371 H   0  0  0  0  0  0  0  0  0  0  0  0
  -19.7357    8.5350  -14.7780 C   0  0  0  0  0  0  0  0  0  0  0  0
  -20.6875    7.5540  -15.0661 C   0  0  0  0  0  0  0  0  0  0  0  0
  -20.5748    6.7913  -16.1801 F   0  0  0  0  0  0  0  0  0  0  0  0
  -21.7265    7.4063  -14.1721 C   0  0  0  0  0  0  0  0  0  0  0  0
  -21.8469    8.1701  -13.0460 C   0  0  0  0  0  0  0  0  0  0  0  0
  -20.8785    9.1360  -12.7952 C   0  0  0  0  0  0  0  0  0  0  0  0
  -19.8159    9.3310  -13.6516 C   0  0  0  0  0  0  0  0  0  0  0  0
  -18.8623   10.2857  -13.3999 F   0  0  0  0  0  0  0  0  0  0  0  0
  -18.0755   18.5844  -21.5888 O   0  0  0  0  0  0  0  0  0  0  0  0
  -18.6069   19.4967  -22.5211 C   0  0  0  0  0  0  0  0  0  0  0  0
  -20.0843   19.7156  -22.1747 C   0  0  0  0  0  0  0  0  0  0  0  0
  -20.8760   19.5109  -23.4202 C   0  0  0  0  0  0  0  0  0  0  0  0
  -21.8631   18.4621  -23.3112 N   0  0  0  0  0  0  0  0  0  0  0  0
  -22.3376   18.3741  -21.9415 C   0  0  0  0  0  0  0  0  0  0  0  0
  -23.8049   18.0555  -21.8790 C   0  0  0  0  0  0  0  0  0  0  0  0
  -24.1889   17.1083  -22.8027 O   0  0  0  0  0  0  0  0  0  0  0  0
  -23.8551   17.3996  -24.1001 C   0  0  0  0  0  0  0  0  0  0  0  0
  -22.9551   18.6109  -24.2477 C   0  0  0  0  0  0  0  0  0  0  0  0
 11 12  1  0  0  0
 12  1  1  0  0  0
  1  2  2  0  0  0
  2  3  1  0  0  0
  3  4  2  0  0  0
  4 13  1  0  0  0
 13 14  1  0  0  0
 14 15  2  0  0  0
 15 16  1  0  0  0
 16 17  2  0  0  0
 17 21  1  0  0  0
 21 22  1  0  0  0
 22 23  2  0  0  0
 22 24  1  0  0  0
 24 27  1  0  0  0
 27 28  2  0  0  0
 28 29  1  0  0  0
 28 30  1  0  0  0
 30 31  2  0  0  0
 31 32  1  0  0  0
 32 33  2  0  0  0
 33 34  1  0  0  0
 17 18  1  0  0  0
 18 19  2  0  0  0
 19 20  1  0  0  0
  4  5  1  0  0  0
  5  6  2  0  0  0
  6  7  1  0  0  0
  7  8  2  0  0  0
  8  9  1  0  0  0
  9 10  2  0  0  0
 10 35  1  0  0  0
 35 36  1  0  0  0
 36 37  1  0  0  0
 37 38  1  0  0  0
 38 39  1  0  0  0
 39 40  1  0  0  0
 40 41  1  0  0  0
 41 42  1  0  0  0
 42 43  1  0  0  0
 43 44  1  0  0  0
 10  1  1  0  0  0
 44 39  1  0  0  0
  8  3  1  0  0  0
 19 14  1  0  0  0
 33 27  1  0  0  0
 21 25  1  0  0  0
 24 26  1  0  0  0
M  END
> <minimizedAffinity>
-9.03278

> <CNNscore>
0.1881793588

> <CNNaffinity>
6.8087906837

> <CNN_VS>
1.2812738419

> <CNNaffinity_variance>
0.6848729253

$$$$
[H]c1nc2c([H])c(OC([H])([H])C([H])([H])C([H])([H])N3C([H])([H])C([H])([H])OC([H])([H])C3([H])[H])c(OC([H])([H])[H])c([H])c2c(Oc2c([H])c([H])c(N([H])C(=O)N([H])c3c(F)c([H])c([H])c([H])c3F)c([H])c2F)c1[H]


 44 48  0  0  0  0  0  0  0  0999 V2000
  -19.8806   11.5374  -16.3949 C   0  0  0  0  0  0  0  0  0  0  0  0
  -19.2927   12.3623  -17.3345 C   0  0  0  0  0  0  0  0  0  0  0  0
  -18.4524   11.8781  -18.3227 C   0  0  0  0  0  0  0  0  0  0  0  0
  -17.8738   12.7486  -19.2613 C   0  0  0  0  0  0  0  0  0  0  0  0
  -17.0504   12.2490  -20.2249 C   0  0  0  0  0  0  0  0  0  0  0  0
  -16.8102   10.8824  -20.2440 C   0  0  0  0  0  0  0  0  0  0  0  0
  -17.3561   10.0375  -19.3533 N   0  0  0  0  0  0  0  0  0  0  0  0
  -18.1701   10.5361  -18.4024 C   0  0  0  0  0  0  0  0  0  0  0  0
  -18.7647    9.7061  -17.4529 C   0  0  0  0  0  0  0  0  0  0  0  0
  -19.6059   10.1879  -16.4641 C   0  0  0  0  0  0  0  0  0  0  0  0
  -21.4187   13.2363  -15.6620 C   0  0  0  0  0  0  0  0  0  0  0  0
  -20.7249   12.0175  -15.4004 O   0  0  0  0  0  0  0  0  0  0  0  0
  -18.1977   14.0672  -19.1219 O   0  0  0  0  0  0  0  0  0  0  0  0
  -18.6437   14.9477  -20.0715 C   0  0  0  0  0  0  0  0  0  0  0  0
  -19.9916   15.1830  -20.2322 C   0  0  0  0  0  0  0  0  0  0  0  0
  -20.4419   16.0732  -21.1903 C   0  0  0  0  0  0  0  0  0  0  0  0
  -19.5983   16.7682  -22.0284 C   0  0  0  0  0  0  0  0  0  0  0  0
  -18.2406   16.5163  -21.8488 C   0  0  0  0  0  0  0  0  0  0  0  0
  -17.7891   15.6422  -20.9084 C   0  0  0  0  0  0  0  0  0  0  0  0
  -16.4418   15.4232  -20.7330 F   0  0  0  0  0  0  0  0  0  0  0  0
  -20.0202   17.6652  -23.0265 N   0  0  0  0  0  0  0  0  0  0  0  0
  -20.5233   18.9533  -22.8476 C   0  0  0  0  0  0  0  0  0  0  0  0
  -20.6841   19.5113  -21.7268 O   0  0  0  0  0  0  0  0  0  0  0  0
  -20.9137   19.7819  -23.9587 N   0  0  0  0  0  0  0  0  0  0  0  0
  -19.9454   17.3241  -24.0327 H   0  0  0  0  0  0  0  0  0  0  0  0
  -20.7958   19.3640  -24.9055 H   0  0  0  0  0  0  0  0  0  0  0  0
  -21.4292   21.0838  -23.8238 C   0  0  0  0  0  0  0  0  0  0  0  0
  -22.8031   21.2675  -23.6508 C   0  0  0  0  0  0  0  0  0  0  0  0
  -23.6403   20.2031  -23.6090 F   0  0  0  0  0  0  0  0  0  0  0  0
  -23.2518   22.5651  -23.5259 C   0  0  0  0  0  0  0  0  0  0  0  0
  -22.4144   23.6436  -23.5656 C   0  0  0  0  0  0  0  0  0  0  0  0
  -21.0533   23.4184  -23.7395 C   0  0  0  0  0  0  0  0  0  0  0  0
  -20.5444   22.1438  -23.8700 C   0  0  0  0  0  0  0  0  0  0  0  0
  -19.1999   21.9263  -24.0415 F   0  0  0  0  0  0  0  0  0  0  0  0
  -20.1914    9.3490  -15.5269 O   0  0  0  0  0  0  0  0  0  0  0  0
  -19.4505    8.4756  -14.7070 C   0  0  0  0  0  0  0  0  0  0  0  0
  -19.1383    9.2111  -13.3985 C   0  0  0  0  0  0  0  0  0  0  0  0
  -19.4850    8.2984  -12.2729 C   0  0  0  0  0  0  0  0  0  0  0  0
  -19.0460    8.7792  -10.9835 N   0  0  0  0  0  0  0  0  0  0  0  0
  -17.8416    8.0751  -10.5804 C   0  0  0  0  0  0  0  0  0  0  0  0
  -16.8839    8.9782   -9.8554 C   0  0  0  0  0  0  0  0  0  0  0  0
  -17.5116    9.8294   -8.9728 O   0  0  0  0  0  0  0  0  0  0  0  0
  -18.5106   10.5928   -9.5195 C   0  0  0  0  0  0  0  0  0  0  0  0
  -18.8663   10.2137  -10.9438 C   0  0  0  0  0  0  0  0  0  0  0  0
 11 12  1  0  0  0
 12  1  1  0  0  0
  1  2  2  0  0  0
  2  3  1  0  0  0
  3  4  2  0  0  0
  4 13  1  0  0  0
 13 14  1  0  0  0
 14 15  2  0  0  0
 15 16  1  0  0  0
 16 17  2  0  0  0
 17 21  1  0  0  0
 21 22  1  0  0  0
 22 23  2  0  0  0
 22 24  1  0  0  0
 24 27  1  0  0  0
 27 28  2  0  0  0
 28 29  1  0  0  0
 28 30  1  0  0  0
 30 31  2  0  0  0
 31 32  1  0  0  0
 32 33  2  0  0  0
 33 34  1  0  0  0
 17 18  1  0  0  0
 18 19  2  0  0  0
 19 20  1  0  0  0
  4  5  1  0  0  0
  5  6  2  0  0  0
  6  7  1  0  0  0
  7  8  2  0  0  0
  8  9  1  0  0  0
  9 10  2  0  0  0
 10 35  1  0  0  0
 35 36  1  0  0  0
 36 37  1  0  0  0
 37 38  1  0  0  0
 38 39  1  0  0  0
 39 40  1  0  0  0
 40 41  1  0  0  0
 41 42  1  0  0  0
 42 43  1  0  0  0
 43 44  1  0  0  0
 10  1  1  0  0  0
 44 39  1  0  0  0
  8  3  1  0  0  0
 19 14  1  0  0  0
 33 27  1  0  0  0
 21 25  1  0  0  0
 24 26  1  0  0  0
M  END
> <minimizedAffinity>
-8.10519

> <CNNscore>
0.1775069833

> <CNNaffinity>
6.8750748634

> <CNN_VS>
1.2203737497

> <CNNaffinity_variance>
0.3339909911

$$$$
[H]c1nc2c([H])c(OC([H])([H])C([H])([H])C([H])([H])N3C([H])([H])C([H])([H])OC([H])([H])C3([H])[H])c(OC([H])([H])[H])c([H])c2c(Oc2c([H])c([H])c(N([H])C(=O)N([H])c3c(F)c([H])c([H])c([H])c3F)c([H])c2F)c1[H]


 44 48  0  0  0  0  0  0  0  0999 V2000
  -20.0592   13.0296  -18.7940 C   0  0  0  0  0  0  0  0  0  0  0  0
  -19.2410   13.0395  -19.9073 C   0  0  0  0  0  0  0  0  0  0  0  0
  -18.1822   12.1598  -20.0560 C   0  0  0  0  0  0  0  0  0  0  0  0
  -17.3727   12.2001  -21.2034 C   0  0  0  0  0  0  0  0  0  0  0  0
  -16.3367   11.3241  -21.3277 C   0  0  0  0  0  0  0  0  0  0  0  0
  -16.1161   10.4135  -20.3040 C   0  0  0  0  0  0  0  0  0  0  0  0
  -16.8815   10.3628  -19.2009 N   0  0  0  0  0  0  0  0  0  0  0  0
  -17.9052   11.2309  -19.0826 C   0  0  0  0  0  0  0  0  0  0  0  0
  -18.7325   11.2233  -17.9603 C   0  0  0  0  0  0  0  0  0  0  0  0
  -19.7923   12.1016  -17.8097 C   0  0  0  0  0  0  0  0  0  0  0  0
  -21.1240   15.0861  -19.4466 C   0  0  0  0  0  0  0  0  0  0  0  0
  -21.1236   13.9102  -18.6389 O   0  0  0  0  0  0  0  0  0  0  0  0
  -17.7054   13.1475  -22.1278 O   0  0  0  0  0  0  0  0  0  0  0  0
  -17.6224   14.5111  -22.0293 C   0  0  0  0  0  0  0  0  0  0  0  0
  -17.0130   15.1002  -20.9432 C   0  0  0  0  0  0  0  0  0  0  0  0
  -16.9280   16.4772  -20.8445 C   0  0  0  0  0  0  0  0  0  0  0  0
  -17.4325   17.3334  -21.7981 C   0  0  0  0  0  0  0  0  0  0  0  0
  -18.0434   16.7175  -22.8875 C   0  0  0  0  0  0  0  0  0  0  0  0
  -18.1311   15.3634  -22.9926 C   0  0  0  0  0  0  0  0  0  0  0  0
  -18.7204   14.7742  -24.0877 F   0  0  0  0  0  0  0  0  0  0  0  0
  -17.3824   18.7371  -21.7222 N   0  0  0  0  0  0  0  0  0  0  0  0
  -18.4598   19.6180  -21.6352 C   0  0  0  0  0  0  0  0  0  0  0  0
  -19.6726   19.2686  -21.6200 O   0  0  0  0  0  0  0  0  0  0  0  0
  -18.2758   21.0439  -21.5523 N   0  0  0  0  0  0  0  0  0  0  0  0
  -16.4128   19.1780  -21.7299 H   0  0  0  0  0  0  0  0  0  0  0  0
  -17.2898   21.3797  -21.5584 H   0  0  0  0  0  0  0  0  0  0  0  0
  -19.3331   21.9679  -21.4673 C   0  0  0  0  0  0  0  0  0  0  0  0
  -19.8264   22.5610  -22.6318 C   0  0  0  0  0  0  0  0  0  0  0  0
  -19.2974   22.2509  -23.8399 F   0  0  0  0  0  0  0  0  0  0  0  0
  -20.8615   23.4602  -22.4878 C   0  0  0  0  0  0  0  0  0  0  0  0
  -21.4015   23.7773  -21.2739 C   0  0  0  0  0  0  0  0  0  0  0  0
  -20.8820   23.1652  -20.1385 C   0  0  0  0  0  0  0  0  0  0  0  0
  -19.8474   22.2576  -20.2183 C   0  0  0  0  0  0  0  0  0  0  0  0
  -19.3379   21.6558  -19.0947 F   0  0  0  0  0  0  0  0  0  0  0  0
  -20.6078   12.0808  -16.6873 O   0  0  0  0  0  0  0  0  0  0  0  0
  -21.1551   10.8967  -16.1559 C   0  0  0  0  0  0  0  0  0  0  0  0
  -20.6361   10.7417  -14.7217 C   0  0  0  0  0  0  0  0  0  0  0  0
  -19.6654    9.6114  -14.7116 C   0  0  0  0  0  0  0  0  0  0  0  0
  -18.9664    9.4617  -13.4565 N   0  0  0  0  0  0  0  0  0  0  0  0
  -19.2713   10.5843  -12.5871 C   0  0  0  0  0  0  0  0  0  0  0  0
  -19.3836   10.1617  -11.1493 C   0  0  0  0  0  0  0  0  0  0  0  0
  -18.4209    9.2477  -10.7812 O   0  0  0  0  0  0  0  0  0  0  0  0
  -18.3597    8.1264  -11.5676 C   0  0  0  0  0  0  0  0  0  0  0  0
  -19.2285    8.1958  -12.8083 C   0  0  0  0  0  0  0  0  0  0  0  0
 11 12  1  0  0  0
 12  1  1  0  0  0
  1  2  2  0  0  0
  2  3  1  0  0  0
  3  4  2  0  0  0
  4 13  1  0  0  0
 13 14  1  0  0  0
 14 15  2  0  0  0
 15 16  1  0  0  0
 16 17  2  0  0  0
 17 21  1  0  0  0
 21 22  1  0  0  0
 22 23  2  0  0  0
 22 24  1  0  0  0
 24 27  1  0  0  0
 27 28  2  0  0  0
 28 29  1  0  0  0
 28 30  1  0  0  0
 30 31  2  0  0  0
 31 32  1  0  0  0
 32 33  2  0  0  0
 33 34  1  0  0  0
 17 18  1  0  0  0
 18 19  2  0  0  0
 19 20  1  0  0  0
  4  5  1  0  0  0
  5  6  2  0  0  0
  6  7  1  0  0  0
  7  8  2  0  0  0
  8  9  1  0  0  0
  9 10  2  0  0  0
 10 35  1  0  0  0
 35 36  1  0  0  0
 36 37  1  0  0  0
 37 38  1  0  0  0
 38 39  1  0  0  0
 39 40  1  0  0  0
 40 41  1  0  0  0
 41 42  1  0  0  0
 42 43  1  0  0  0
 43 44  1  0  0  0
 10  1  1  0  0  0
 44 39  1  0  0  0
  8  3  1  0  0  0
 19 14  1  0  0  0
 33 27  1  0  0  0
 21 25  1  0  0  0
 24 26  1  0  0  0
M  END
> <minimizedAffinity>
-8.42199

> <CNNscore>
0.1774929613

> <CNNaffinity>
6.8143110275

> <CNN_VS>
1.2094922066

> <CNNaffinity_variance>
0.1137731895

$$$$
[H]c1nc2c([H])c(OC([H])([H])C([H])([H])C([H])([H])N3C([H])([H])C([H])([H])OC([H])([H])C3([H])[H])c(OC([H])([H])[H])c([H])c2c(Oc2c([H])c([H])c(N([H])C(=O)N([H])c3c(F)c([H])c([H])c([H])c3F)c([H])c2F)c1[H]


 44 48  0  0  0  0  0  0  0  0999 V2000
  -20.3219   11.4655  -16.2466 C   0  0  0  0  0  0  0  0  0  0  0  0
  -19.9307   12.5495  -17.0087 C   0  0  0  0  0  0  0  0  0  0  0  0
  -19.0436   12.4305  -18.0651 C   0  0  0  0  0  0  0  0  0  0  0  0
  -18.6702   13.5564  -18.8178 C   0  0  0  0  0  0  0  0  0  0  0  0
  -17.7960   13.4146  -19.8530 C   0  0  0  0  0  0  0  0  0  0  0  0
  -17.3001   12.1483  -20.1292 C   0  0  0  0  0  0  0  0  0  0  0  0
  -17.6477   11.0623  -19.4185 N   0  0  0  0  0  0  0  0  0  0  0  0
  -18.5129   11.2074  -18.3959 C   0  0  0  0  0  0  0  0  0  0  0  0
  -18.9094   10.1153  -17.6250 C   0  0  0  0  0  0  0  0  0  0  0  0
  -19.7969   10.2318  -16.5685 C   0  0  0  0  0  0  0  0  0  0  0  0
  -20.6589   11.6603  -13.8722 C   0  0  0  0  0  0  0  0  0  0  0  0
  -21.2120   11.5786  -15.1848 O   0  0  0  0  0  0  0  0  0  0  0  0
  -19.2355   14.7377  -18.4331 O   0  0  0  0  0  0  0  0  0  0  0  0
  -19.9032   15.6594  -19.1952 C   0  0  0  0  0  0  0  0  0  0  0  0
  -19.4391   16.9524  -19.2991 C   0  0  0  0  0  0  0  0  0  0  0  0
  -20.1128   17.8826  -20.0698 C   0  0  0  0  0  0  0  0  0  0  0  0
  -21.2633   17.5906  -20.7684 C   0  0  0  0  0  0  0  0  0  0  0  0
  -21.7145   16.2785  -20.6504 C   0  0  0  0  0  0  0  0  0  0  0  0
  -21.0576   15.3569  -19.8944 C   0  0  0  0  0  0  0  0  0  0  0  0
  -21.5088   14.0597  -19.8078 F   0  0  0  0  0  0  0  0  0  0  0  0
  -21.9857   18.5144  -21.5453 N   0  0  0  0  0  0  0  0  0  0  0  0
  -21.7993   18.8128  -22.8945 C   0  0  0  0  0  0  0  0  0  0  0  0
  -20.9213   18.2842  -23.6315 O   0  0  0  0  0  0  0  0  0  0  0  0
  -22.6167   19.7777  -23.5834 N   0  0  0  0  0  0  0  0  0  0  0  0
  -22.7644   19.0450  -21.0486 H   0  0  0  0  0  0  0  0  0  0  0  0
  -23.3583   20.2387  -23.0154 H   0  0  0  0  0  0  0  0  0  0  0  0
  -22.4608   20.1118  -24.9410 C   0  0  0  0  0  0  0  0  0  0  0  0
  -21.6290   21.1754  -25.2987 C   0  0  0  0  0  0  0  0  0  0  0  0
  -20.9703   21.8838  -24.3501 F   0  0  0  0  0  0  0  0  0  0  0  0
  -21.5158   21.4585  -26.6432 C   0  0  0  0  0  0  0  0  0  0  0  0
  -22.1751   20.7486  -27.6061 C   0  0  0  0  0  0  0  0  0  0  0  0
  -22.9939   19.6972  -27.2087 C   0  0  0  0  0  0  0  0  0  0  0  0
  -23.1473   19.3656  -25.8794 C   0  0  0  0  0  0  0  0  0  0  0  0
  -23.9566   18.3269  -25.4918 F   0  0  0  0  0  0  0  0  0  0  0  0
  -20.1831    9.1352  -15.8113 O   0  0  0  0  0  0  0  0  0  0  0  0
  -19.2669    8.2092  -15.2755 C   0  0  0  0  0  0  0  0  0  0  0  0
  -20.0698    7.0756  -14.6268 C   0  0  0  0  0  0  0  0  0  0  0  0
  -21.2622    6.8188  -15.4825 C   0  0  0  0  0  0  0  0  0  0  0  0
  -22.2476    5.9663  -14.8589 N   0  0  0  0  0  0  0  0  0  0  0  0
  -22.3903    4.7396  -15.6229 C   0  0  0  0  0  0  0  0  0  0  0  0
  -22.6134    3.5503  -14.7316 C   0  0  0  0  0  0  0  0  0  0  0  0
  -23.4724    3.8149  -13.6877 O   0  0  0  0  0  0  0  0  0  0  0  0
  -23.1226    4.8893  -12.9112 C   0  0  0  0  0  0  0  0  0  0  0  0
  -21.9672    5.6999  -13.4654 C   0  0  0  0  0  0  0  0  0  0  0  0
 11 12  1  0  0  0
 12  1  1  0  0  0
  1  2  2  0  0  0
  2  3  1  0  0  0
  3  4  2  0  0  0
  4 13  1  0  0  0
 13 14  1  0  0  0
 14 15  2  0  0  0
 15 16  1  0  0  0
 16 17  2  0  0  0
 17 21  1  0  0  0
 21 22  1  0  0  0
 22 23  2  0  0  0
 22 24  1  0  0  0
 24 27  1  0  0  0
 27 28  2  0  0  0
 28 29  1  0  0  0
 28 30  1  0  0  0
 30 31  2  0  0  0
 31 32  1  0  0  0
 32 33  2  0  0  0
 33 34  1  0  0  0
 17 18  1  0  0  0
 18 19  2  0  0  0
 19 20  1  0  0  0
  4  5  1  0  0  0
  5  6  2  0  0  0
  6  7  1  0  0  0
  7  8  2  0  0  0
  8  9  1  0  0  0
  9 10  2  0  0  0
 10 35  1  0  0  0
 35 36  1  0  0  0
 36 37  1  0  0  0
 37 38  1  0  0  0
 38 39  1  0  0  0
 39 40  1  0  0  0
 40 41  1  0  0  0
 41 42  1  0  0  0
 42 43  1  0  0  0
 43 44  1  0  0  0
 10  1  1  0  0  0
 44 39  1  0  0  0
  8  3  1  0  0  0
 19 14  1  0  0  0
 33 27  1  0  0  0
 21 25  1  0  0  0
 24 26  1  0  0  0
M  END
> <minimizedAffinity>
-7.60227

> <CNNscore>
0.1728899330

> <CNNaffinity>
6.6220564842

> <CNN_VS>
1.1448868513

> <CNNaffinity_variance>
0.0629155859

$$$$
[H]c1nc2c([H])c(OC([H])([H])C([H])([H])C([H])([H])N3C([H])([H])C([H])([H])OC([H])([H])C3([H])[H])c(OC([H])([H])[H])c([H])c2c(Oc2c([H])c([H])c(N([H])C(=O)N([H])c3c(Cl)c([H])c([H])c([H])c3Cl)c([H])c2F)c1[H]


 44 48  0  0  0  0  0  0  0  0999 V2000
  -18.9263   14.8352  -21.0966 C   0  0  0  0  0  0  0  0  0  0  0  0
  -18.9164   13.8403  -20.1244 C   0  0  0  0  0  0  0  0  0  0  0  0
  -18.1397   12.6941  -20.2184 C   0  0  0  0  0  0  0  0  0  0  0  0
  -18.1414   11.7052  -19.2708 C   0  0  0  0  0  0  0  0  0  0  0  0
  -17.3565   10.5494  -19.4128 C   0  0  0  0  0  0  0  0  0  0  0  0
  -16.5923   10.4705  -20.5471 C   0  0  0  0  0  0  0  0  0  0  0  0
  -16.5904   11.4390  -21.4721 N   0  0  0  0  0  0  0  0  0  0  0  0
  -17.3402   12.5524  -21.3448 C   0  0  0  0  0  0  0  0  0  0  0  0
  -17.3421   13.5332  -22.3128 C   0  0  0  0  0  0  0  0  0  0  0  0
  -18.1222   14.6658  -22.2025 C   0  0  0  0  0  0  0  0  0  0  0  0
  -20.7159   16.0980  -19.9958 C   0  0  0  0  0  0  0  0  0  0  0  0
  -19.7185   15.9836  -20.9885 O   0  0  0  0  0  0  0  0  0  0  0  0
  -18.9391   11.8413  -18.1304 O   0  0  0  0  0  0  0  0  0  0  0  0
  -19.2125   10.6940  -17.3619 C   0  0  0  0  0  0  0  0  0  0  0  0
  -18.3228    9.6514  -17.3445 C   0  0  0  0  0  0  0  0  0  0  0  0
  -18.5961    8.5170  -16.5948 C   0  0  0  0  0  0  0  0  0  0  0  0
  -19.7592    8.3898  -15.8418 C   0  0  0  0  0  0  0  0  0  0  0  0
  -20.6146    9.4722  -15.8925 C   0  0  0  0  0  0  0  0  0  0  0  0
  -20.3753   10.6014  -16.6214 C   0  0  0  0  0  0  0  0  0  0  0  0
  -21.2418   11.6678  -16.6618 F   0  0  0  0  0  0  0  0  0  0  0  0
  -20.1428    7.1930  -15.1771 N   0  0  0  0  0  0  0  0  0  0  0  0
  -19.7623    7.1421  -13.7613 C   0  0  0  0  0  0  0  0  0  0  0  0
  -19.1531    8.2276  -13.3603 O   0  0  0  0  0  0  0  0  0  0  0  0
  -20.0098    6.0867  -12.9998 N   0  0  0  0  0  0  0  0  0  0  0  0
  -20.6276    6.4284  -15.5994 H   0  0  0  0  0  0  0  0  0  0  0  0
  -19.3293    6.6641  -11.9295 H   0  0  0  0  0  0  0  0  0  0  0  0
  -20.2291    5.0307  -12.1532 C   0  0  0  0  0  0  0  0  0  0  0  0
  -19.2270    4.4215  -11.4138 C   0  0  0  0  0  0  0  0  0  0  0  0
  -17.6116    5.0516  -11.5476 Cl  0  0  0  0  0  0  0  0  0  0  0  0
  -19.4665    3.3579  -10.5955 C   0  0  0  0  0  0  0  0  0  0  0  0
  -20.7466    2.8588  -10.4868 C   0  0  0  0  0  0  0  0  0  0  0  0
  -21.7580    3.4438  -11.2069 C   0  0  0  0  0  0  0  0  0  0  0  0
  -21.5260    4.5233  -12.0413 C   0  0  0  0  0  0  0  0  0  0  0  0
  -22.8548    5.2363  -12.9287 Cl  0  0  0  0  0  0  0  0  0  0  0  0
  -18.1144   15.6462  -23.1858 O   0  0  0  0  0  0  0  0  0  0  0  0
  -17.2565   16.7442  -23.1882 C   0  0  0  0  0  0  0  0  0  0  0  0
  -15.8450   16.2729  -23.4772 C   0  0  0  0  0  0  0  0  0  0  0  0
  -15.4418   16.5681  -24.8718 C   0  0  0  0  0  0  0  0  0  0  0  0
  -15.2862   15.4873  -25.7562 N   0  0  0  0  0  0  0  0  0  0  0  0
  -15.8489   14.2426  -25.3844 C   0  0  0  0  0  0  0  0  0  0  0  0
  -17.0479   13.8366  -26.2002 C   0  0  0  0  0  0  0  0  0  0  0  0
  -16.6672   13.8088  -27.5349 O   0  0  0  0  0  0  0  0  0  0  0  0
  -16.3535   15.0930  -27.9500 C   0  0  0  0  0  0  0  0  0  0  0  0
  -15.2155   15.7166  -27.1484 C   0  0  0  0  0  0  0  0  0  0  0  0
 11 12  1  0  0  0
 12  1  1  0  0  0
  1  2  2  0  0  0
  2  3  1  0  0  0
  3  4  2  0  0  0
  4 13  1  0  0  0
 13 14  1  0  0  0
 14 15  2  0  0  0
 15 16  1  0  0  0
 16 17  2  0  0  0
 17 21  1  0  0  0
 21 22  1  0  0  0
 22 23  2  0  0  0
 22 24  1  0  0  0
 24 27  1  0  0  0
 27 28  2  0  0  0
 28 29  1  0  0  0
 28 30  1  0  0  0
 30 31  2  0  0  0
 31 32  1  0  0  0
 32 33  2  0  0  0
 33 34  1  0  0  0
 17 18  1  0  0  0
 18 19  2  0  0  0
 19 20  1  0  0  0
  4  5  1  0  0  0
  5  6  2  0  0  0
  6  7  1  0  0  0
  7  8  2  0  0  0
  8  9  1  0  0  0
  9 10  2  0  0  0
 10 35  1  0  0  0
 35 36  1  0  0  0
 36 37  1  0  0  0
 37 38  1  0  0  0
 38 39  1  0  0  0
 39 40  1  0  0  0
 40 41  1  0  0  0
 41 42  1  0  0  0
 42 43  1  0  0  0
 43 44  1  0  0  0
 10  1  1  0  0  0
 44 39  1  0  0  0
  8  3  1  0  0  0
 19 14  1  0  0  0
 33 27  1  0  0  0
 21 25  1  0  0  0
 24 26  1  0  0  0
M  END
> <minimizedAffinity>
-8.67573

> <CNNscore>
0.1876927763

> <CNNaffinity>
7.1213598251

> <CNN_VS>
1.3366278410

> <CNNaffinity_variance>
0.0988260955

$$$$
[H]c1nc2c([H])c(OC([H])([H])C([H])([H])C([H])([H])N3C([H])([H])C([H])([H])OC([H])([H])C3([H])[H])c(OC([H])([H])[H])c([H])c2c(Oc2c([H])c([H])c(N([H])C(=O)N([H])c3c(Cl)c([H])c([H])c([H])c3Cl)c([H])c2F)c1[H]


 44 48  0  0  0  0  0  0  0  0999 V2000
  -20.5137   10.5200  -15.3720 C   0  0  0  0  0  0  0  0  0  0  0  0
  -19.9241   11.5610  -16.0818 C   0  0  0  0  0  0  0  0  0  0  0  0
  -19.0447   11.3589  -17.1362 C   0  0  0  0  0  0  0  0  0  0  0  0
  -18.4496   12.3821  -17.8251 C   0  0  0  0  0  0  0  0  0  0  0  0
  -17.5480   12.1362  -18.8734 C   0  0  0  0  0  0  0  0  0  0  0  0
  -17.3015   10.8206  -19.1656 C   0  0  0  0  0  0  0  0  0  0  0  0
  -17.8854    9.8210  -18.4921 N   0  0  0  0  0  0  0  0  0  0  0  0
  -18.7525   10.0469  -17.4844 C   0  0  0  0  0  0  0  0  0  0  0  0
  -19.3327    9.0088  -16.7882 C   0  0  0  0  0  0  0  0  0  0  0  0
  -20.2040    9.2293  -15.7415 C   0  0  0  0  0  0  0  0  0  0  0  0
  -21.7225   12.0468  -13.8830 C   0  0  0  0  0  0  0  0  0  0  0  0
  -21.3958   10.7407  -14.3083 O   0  0  0  0  0  0  0  0  0  0  0  0
  -18.7417   13.7067  -17.4854 O   0  0  0  0  0  0  0  0  0  0  0  0
  -19.3405   14.5320  -18.4559 C   0  0  0  0  0  0  0  0  0  0  0  0
  -20.4875   14.1274  -19.0880 C   0  0  0  0  0  0  0  0  0  0  0  0
  -21.0727   14.9361  -20.0509 C   0  0  0  0  0  0  0  0  0  0  0  0
  -20.5346   16.1682  -20.4094 C   0  0  0  0  0  0  0  0  0  0  0  0
  -19.3835   16.5261  -19.7365 C   0  0  0  0  0  0  0  0  0  0  0  0
  -18.7827   15.7524  -18.7856 C   0  0  0  0  0  0  0  0  0  0  0  0
  -17.6340   16.1250  -18.1290 F   0  0  0  0  0  0  0  0  0  0  0  0
  -21.0203   16.9587  -21.4867 N   0  0  0  0  0  0  0  0  0  0  0  0
  -22.0718   17.9095  -21.1094 C   0  0  0  0  0  0  0  0  0  0  0  0
  -22.3573   17.8705  -19.8338 O   0  0  0  0  0  0  0  0  0  0  0  0
  -22.6618   18.6994  -21.9943 N   0  0  0  0  0  0  0  0  0  0  0  0
  -20.7033   16.9026  -22.4323 H   0  0  0  0  0  0  0  0  0  0  0  0
  -23.5363   19.1820  -21.0224 H   0  0  0  0  0  0  0  0  0  0  0  0
  -23.3182   19.5435  -22.8526 C   0  0  0  0  0  0  0  0  0  0  0  0
  -23.7172   19.1785  -24.1292 C   0  0  0  0  0  0  0  0  0  0  0  0
  -23.3920   17.5533  -24.6561 Cl  0  0  0  0  0  0  0  0  0  0  0  0
  -24.3489   20.0433  -24.9724 C   0  0  0  0  0  0  0  0  0  0  0  0
  -24.6093   21.3309  -24.5554 C   0  0  0  0  0  0  0  0  0  0  0  0
  -24.2260   21.7185  -23.2959 C   0  0  0  0  0  0  0  0  0  0  0  0
  -23.5833   20.8491  -22.4319 C   0  0  0  0  0  0  0  0  0  0  0  0
  -23.1257   21.3937  -20.8332 Cl  0  0  0  0  0  0  0  0  0  0  0  0
  -20.7814    8.1736  -15.0484 O   0  0  0  0  0  0  0  0  0  0  0  0
  -20.1970    6.9163  -14.9102 C   0  0  0  0  0  0  0  0  0  0  0  0
  -20.3797    6.4363  -13.4839 C   0  0  0  0  0  0  0  0  0  0  0  0
  -20.3764    7.5617  -12.5206 C   0  0  0  0  0  0  0  0  0  0  0  0
  -19.1388    8.1305  -12.1752 N   0  0  0  0  0  0  0  0  0  0  0  0
  -19.0769    9.5365  -12.0229 C   0  0  0  0  0  0  0  0  0  0  0  0
  -18.8993    9.9982  -10.6006 C   0  0  0  0  0  0  0  0  0  0  0  0
  -17.7434    9.4128  -10.1023 O   0  0  0  0  0  0  0  0  0  0  0  0
  -17.9188    8.0404  -10.0279 C   0  0  0  0  0  0  0  0  0  0  0  0
  -18.2235    7.4048  -11.3806 C   0  0  0  0  0  0  0  0  0  0  0  0
 11 12  1  0  0  0
 12  1  1  0  0  0
  1  2  2  0  0  0
  2  3  1  0  0  0
  3  4  2  0  0  0
  4 13  1  0  0  0
 13 14  1  0  0  0
 14 15  2  0  0  0
 15 16  1  0  0  0
 16 17  2  0  0  0
 17 21  1  0  0  0
 21 22  1  0  0  0
 22 23  2  0  0  0
 22 24  1  0  0  0
 24 27  1  0  0  0
 27 28  2  0  0  0
 28 29  1  0  0  0
 28 30  1  0  0  0
 30 31  2  0  0  0
 31 32  1  0  0  0
 32 33  2  0  0  0
 33 34  1  0  0  0
 17 18  1  0  0  0
 18 19  2  0  0  0
 19 20  1  0  0  0
  4  5  1  0  0  0
  5  6  2  0  0  0
  6  7  1  0  0  0
  7  8  2  0  0  0
  8  9  1  0  0  0
  9 10  2  0  0  0
 10 35  1  0  0  0
 35 36  1  0  0  0
 36 37  1  0  0  0
 37 38  1  0  0  0
 38 39  1  0  0  0
 39 40  1  0  0  0
 40 41  1  0  0  0
 41 42  1  0  0  0
 42 43  1  0  0  0
 43 44  1  0  0  0
 10  1  1  0  0  0
 44 39  1  0  0  0
  8  3  1  0  0  0
 19 14  1  0  0  0
 33 27  1  0  0  0
 21 25  1  0  0  0
 24 26  1  0  0  0
M  END
> <minimizedAffinity>
-7.47163

> <CNNscore>
0.1869457364

> <CNNaffinity>
6.6822471619

> <CNN_VS>
1.2492176294

> <CNNaffinity_variance>
0.0549324974

$$$$
[H]c1nc2c([H])c(OC([H])([H])C([H])([H])C([H])([H])N3C([H])([H])C([H])([H])OC([H])([H])C3([H])[H])c(OC([H])([H])[H])c([H])c2c(Oc2c([H])c([H])c(N([H])C(=O)N([H])c3c(Cl)c([H])c([H])c([H])c3Cl)c([H])c2F)c1[H]


 44 48  0  0  0  0  0  0  0  0999 V2000
  -20.0370    9.9714  -15.6824 C   0  0  0  0  0  0  0  0  0  0  0  0
  -19.7640   11.2122  -16.2491 C   0  0  0  0  0  0  0  0  0  0  0  0
  -18.9596   11.3757  -17.3680 C   0  0  0  0  0  0  0  0  0  0  0  0
  -18.6753   12.5978  -17.9171 C   0  0  0  0  0  0  0  0  0  0  0  0
  -17.8388   12.7236  -19.0381 C   0  0  0  0  0  0  0  0  0  0  0  0
  -17.3283   11.5589  -19.5479 C   0  0  0  0  0  0  0  0  0  0  0  0
  -17.6084   10.3645  -19.0109 N   0  0  0  0  0  0  0  0  0  0  0  0
  -18.4104   10.2333  -17.9349 C   0  0  0  0  0  0  0  0  0  0  0  0
  -18.6762    8.9995  -17.3817 C   0  0  0  0  0  0  0  0  0  0  0  0
  -19.4777    8.8566  -16.2679 C   0  0  0  0  0  0  0  0  0  0  0  0
  -20.4199   10.2602  -13.2785 C   0  0  0  0  0  0  0  0  0  0  0  0
  -20.8475    9.8238  -14.5513 O   0  0  0  0  0  0  0  0  0  0  0  0
  -19.2279   13.7535  -17.3566 O   0  0  0  0  0  0  0  0  0  0  0  0
  -19.8950   14.6578  -18.2045 C   0  0  0  0  0  0  0  0  0  0  0  0
  -20.8736   14.2090  -19.0528 C   0  0  0  0  0  0  0  0  0  0  0  0
  -21.5247   15.0981  -19.8950 C   0  0  0  0  0  0  0  0  0  0  0  0
  -21.2217   16.4559  -19.9149 C   0  0  0  0  0  0  0  0  0  0  0  0
  -20.2331   16.8514  -19.0361 C   0  0  0  0  0  0  0  0  0  0  0  0
  -19.5729   16.0013  -18.1963 C   0  0  0  0  0  0  0  0  0  0  0  0
  -18.5883   16.4142  -17.3305 F   0  0  0  0  0  0  0  0  0  0  0  0
  -21.7619   17.3720  -20.8585 N   0  0  0  0  0  0  0  0  0  0  0  0
  -20.8715   17.6704  -21.9855 C   0  0  0  0  0  0  0  0  0  0  0  0
  -19.7410   17.0155  -21.9264 O   0  0  0  0  0  0  0  0  0  0  0  0
  -21.2004   18.5300  -22.9384 N   0  0  0  0  0  0  0  0  0  0  0  0
  -22.6624   17.7999  -20.7970 H   0  0  0  0  0  0  0  0  0  0  0  0
  -19.9473   18.3936  -23.5330 H   0  0  0  0  0  0  0  0  0  0  0  0
  -21.4705   19.4077  -23.9565 C   0  0  0  0  0  0  0  0  0  0  0  0
  -20.7296   20.5551  -24.1949 C   0  0  0  0  0  0  0  0  0  0  0  0
  -19.3678   20.8801  -23.1631 Cl  0  0  0  0  0  0  0  0  0  0  0  0
  -21.0319   21.4243  -25.2004 C   0  0  0  0  0  0  0  0  0  0  0  0
  -22.1095   21.1668  -26.0202 C   0  0  0  0  0  0  0  0  0  0  0  0
  -22.8595   20.0374  -25.8073 C   0  0  0  0  0  0  0  0  0  0  0  0
  -22.5622   19.1486  -24.7889 C   0  0  0  0  0  0  0  0  0  0  0  0
  -23.5468   17.7189  -24.5690 Cl  0  0  0  0  0  0  0  0  0  0  0  0
  -19.7370    7.6070  -15.7208 O   0  0  0  0  0  0  0  0  0  0  0  0
  -20.9581    6.9445  -15.8282 C   0  0  0  0  0  0  0  0  0  0  0  0
  -21.0992    5.9701  -14.6755 C   0  0  0  0  0  0  0  0  0  0  0  0
  -21.6877    6.6157  -13.4791 C   0  0  0  0  0  0  0  0  0  0  0  0
  -20.9543    6.5776  -12.2812 N   0  0  0  0  0  0  0  0  0  0  0  0
  -21.4562    5.7813  -11.2238 C   0  0  0  0  0  0  0  0  0  0  0  0
  -20.6483    4.5413  -10.9450 C   0  0  0  0  0  0  0  0  0  0  0  0
  -19.3450    4.9329  -10.6707 O   0  0  0  0  0  0  0  0  0  0  0  0
  -18.7847    5.4932  -11.8073 C   0  0  0  0  0  0  0  0  0  0  0  0
  -19.5485    6.7151  -12.3074 C   0  0  0  0  0  0  0  0  0  0  0  0
 11 12  1  0  0  0
 12  1  1  0  0  0
  1  2  2  0  0  0
  2  3  1  0  0  0
  3  4  2  0  0  0
  4 13  1  0  0  0
 13 14  1  0  0  0
 14 15  2  0  0  0
 15 16  1  0  0  0
 16 17  2  0  0  0
 17 21  1  0  0  0
 21 22  1  0  0  0
 22 23  2  0  0  0
 22 24  1  0  0  0
 24 27  1  0  0  0
 27 28  2  0  0  0
 28 29  1  0  0  0
 28 30  1  0  0  0
 30 31  2  0  0  0
 31 32  1  0  0  0
 32 33  2  0  0  0
 33 34  1  0  0  0
 17 18  1  0  0  0
 18 19  2  0  0  0
 19 20  1  0  0  0
  4  5  1  0  0  0
  5  6  2  0  0  0
  6  7  1  0  0  0
  7  8  2  0  0  0
  8  9  1  0  0  0
  9 10  2  0  0  0
 10 35  1  0  0  0
 35 36  1  0  0  0
 36 37  1  0  0  0
 37 38  1  0  0  0
 38 39  1  0  0  0
 39 40  1  0  0  0
 40 41  1  0  0  0
 41 42  1  0  0  0
 42 43  1  0  0  0
 43 44  1  0  0  0
 10  1  1  0  0  0
 44 39  1  0  0  0
  8  3  1  0  0  0
 19 14  1  0  0  0
 33 27  1  0  0  0
 21 25  1  0  0  0
 24 26  1  0  0  0
M  END
> <minimizedAffinity>
-7.39310

> <CNNscore>
0.1466394663

> <CNNaffinity>
6.8312616348

> <CNN_VS>
1.0017325878

> <CNNaffinity_variance>
0.0984332711

$$$$
[H]c1nc2c([H])c(OC([H])([H])C([H])([H])C([H])([H])N3C([H])([H])C([H])([H])OC([H])([H])C3([H])[H])c(OC([H])([H])[H])c([H])c2c(Oc2c([H])c([H])c(N([H])C(=O)N([H])c3c(Cl)c([H])c([H])c([H])c3Cl)c([H])c2F)c1[H]


 44 48  0  0  0  0  0  0  0  0999 V2000
  -20.6120   10.0722  -15.9282 C   0  0  0  0  0  0  0  0  0  0  0  0
  -20.1887   11.2168  -16.5959 C   0  0  0  0  0  0  0  0  0  0  0  0
  -19.1404   11.2218  -17.5052 C   0  0  0  0  0  0  0  0  0  0  0  0
  -18.7107   12.3507  -18.1506 C   0  0  0  0  0  0  0  0  0  0  0  0
  -17.6314   12.3186  -19.0487 C   0  0  0  0  0  0  0  0  0  0  0  0
  -17.0385   11.0987  -19.2412 C   0  0  0  0  0  0  0  0  0  0  0  0
  -17.4607    9.9953  -18.6106 N   0  0  0  0  0  0  0  0  0  0  0  0
  -18.4960   10.0158  -17.7469 C   0  0  0  0  0  0  0  0  0  0  0  0
  -18.9089    8.8761  -17.0915 C   0  0  0  0  0  0  0  0  0  0  0  0
  -19.9528    8.8908  -16.1895 C   0  0  0  0  0  0  0  0  0  0  0  0
  -23.0114    9.9799  -15.4349 C   0  0  0  0  0  0  0  0  0  0  0  0
  -21.6687   10.0847  -15.0110 O   0  0  0  0  0  0  0  0  0  0  0  0
  -19.3567   13.5689  -17.9180 O   0  0  0  0  0  0  0  0  0  0  0  0
  -19.2524   14.5805  -18.8913 C   0  0  0  0  0  0  0  0  0  0  0  0
  -18.3956   15.6329  -18.6984 C   0  0  0  0  0  0  0  0  0  0  0  0
  -18.2993   16.6346  -19.6528 C   0  0  0  0  0  0  0  0  0  0  0  0
  -19.0502   16.6158  -20.8240 C   0  0  0  0  0  0  0  0  0  0  0  0
  -19.8908   15.5300  -20.9670 C   0  0  0  0  0  0  0  0  0  0  0  0
  -20.0094   14.5294  -20.0460 C   0  0  0  0  0  0  0  0  0  0  0  0
  -20.8552   13.4576  -20.2052 F   0  0  0  0  0  0  0  0  0  0  0  0
  -19.0870   17.6889  -21.7559 N   0  0  0  0  0  0  0  0  0  0  0  0
  -20.2049   18.6183  -21.5600 C   0  0  0  0  0  0  0  0  0  0  0  0
  -20.9580   18.2984  -20.5398 O   0  0  0  0  0  0  0  0  0  0  0  0
  -20.4119   19.6543  -22.3593 N   0  0  0  0  0  0  0  0  0  0  0  0
  -18.4313   17.8337  -22.4955 H   0  0  0  0  0  0  0  0  0  0  0  0
  -21.5935   19.9697  -21.6911 H   0  0  0  0  0  0  0  0  0  0  0  0
  -20.6905   20.7426  -23.1455 C   0  0  0  0  0  0  0  0  0  0  0  0
  -21.5476   20.7010  -24.2344 C   0  0  0  0  0  0  0  0  0  0  0  0
  -22.3320   19.1931  -24.6026 Cl  0  0  0  0  0  0  0  0  0  0  0  0
  -21.7912   21.7919  -25.0146 C   0  0  0  0  0  0  0  0  0  0  0  0
  -21.1719   22.9881  -24.7226 C   0  0  0  0  0  0  0  0  0  0  0  0
  -20.3194   23.0577  -23.6494 C   0  0  0  0  0  0  0  0  0  0  0  0
  -20.0641   21.9562  -22.8512 C   0  0  0  0  0  0  0  0  0  0  0  0
  -18.9755   22.1042  -21.4893 Cl  0  0  0  0  0  0  0  0  0  0  0  0
  -20.3583    7.7347  -15.5359 O   0  0  0  0  0  0  0  0  0  0  0  0
  -19.7946    7.2682  -14.3502 C   0  0  0  0  0  0  0  0  0  0  0  0
  -19.9601    5.7630  -14.2785 C   0  0  0  0  0  0  0  0  0  0  0  0
  -20.2896    5.3111  -12.9067 C   0  0  0  0  0  0  0  0  0  0  0  0
  -19.5623    4.2328  -12.3749 N   0  0  0  0  0  0  0  0  0  0  0  0
  -20.0350    2.9241  -12.6354 C   0  0  0  0  0  0  0  0  0  0  0  0
  -19.1752    2.1327  -13.5852 C   0  0  0  0  0  0  0  0  0  0  0  0
  -17.8920    2.0807  -13.0580 O   0  0  0  0  0  0  0  0  0  0  0  0
  -17.3501    3.3558  -13.0415 C   0  0  0  0  0  0  0  0  0  0  0  0
  -18.1638    4.3378  -12.2049 C   0  0  0  0  0  0  0  0  0  0  0  0
 11 12  1  0  0  0
 12  1  1  0  0  0
  1  2  2  0  0  0
  2  3  1  0  0  0
  3  4  2  0  0  0
  4 13  1  0  0  0
 13 14  1  0  0  0
 14 15  2  0  0  0
 15 16  1  0  0  0
 16 17  2  0  0  0
 17 21  1  0  0  0
 21 22  1  0  0  0
 22 23  2  0  0  0
 22 24  1  0  0  0
 24 27  1  0  0  0
 27 28  2  0  0  0
 28 29  1  0  0  0
 28 30  1  0  0  0
 30 31  2  0  0  0
 31 32  1  0  0  0
 32 33  2  0  0  0
 33 34  1  0  0  0
 17 18  1  0  0  0
 18 19  2  0  0  0
 19 20  1  0  0  0
  4  5  1  0  0  0
  5  6  2  0  0  0
  6  7  1  0  0  0
  7  8  2  0  0  0
  8  9  1  0  0  0
  9 10  2  0  0  0
 10 35  1  0  0  0
 35 36  1  0  0  0
 36 37  1  0  0  0
 37 38  1  0  0  0
 38 39  1  0  0  0
 39 40  1  0  0  0
 40 41  1  0  0  0
 41 42  1  0  0  0
 42 43  1  0  0  0
 43 44  1  0  0  0
 10  1  1  0  0  0
 44 39  1  0  0  0
  8  3  1  0  0  0
 19 14  1  0  0  0
 33 27  1  0  0  0
 21 25  1  0  0  0
 24 26  1  0  0  0
M  END
> <minimizedAffinity>
-7.21320

> <CNNscore>
0.1445378363

> <CNNaffinity>
6.7117929459

> <CNN_VS>
0.9701080322

> <CNNaffinity_variance>
0.1055753455

$$$$
[H]c1nc2c([H])c(OC([H])([H])C([H])([H])C([H])([H])N3C([H])([H])C([H])([H])OC([H])([H])C3([H])[H])c(OC([H])([H])[H])c([H])c2c(Oc2c([H])c([H])c(N([H])C(=O)N([H])c3c(Cl)c([H])c([H])c([H])c3Cl)c([H])c2F)c1[H]


 44 48  0  0  0  0  0  0  0  0999 V2000
  -20.3475   10.3348  -15.6492 C   0  0  0  0  0  0  0  0  0  0  0  0
  -19.8254   11.4824  -16.2371 C   0  0  0  0  0  0  0  0  0  0  0  0
  -18.9504   11.4534  -17.3138 C   0  0  0  0  0  0  0  0  0  0  0  0
  -18.4215   12.5813  -17.8830 C   0  0  0  0  0  0  0  0  0  0  0  0
  -17.5218   12.5093  -18.9589 C   0  0  0  0  0  0  0  0  0  0  0  0
  -17.2075   11.2523  -19.4040 C   0  0  0  0  0  0  0  0  0  0  0  0
  -17.7267   10.1504  -18.8475 N   0  0  0  0  0  0  0  0  0  0  0  0
  -18.5913   10.2090  -17.8144 C   0  0  0  0  0  0  0  0  0  0  0  0
  -19.1044    9.0664  -17.2398 C   0  0  0  0  0  0  0  0  0  0  0  0
  -19.9725    9.1150  -16.1686 C   0  0  0  0  0  0  0  0  0  0  0  0
  -20.7990   10.8211  -13.2894 C   0  0  0  0  0  0  0  0  0  0  0  0
  -21.2262   10.3810  -14.5611 O   0  0  0  0  0  0  0  0  0  0  0  0
  -18.7812   13.8391  -17.3894 O   0  0  0  0  0  0  0  0  0  0  0  0
  -19.5372   14.6929  -18.2147 C   0  0  0  0  0  0  0  0  0  0  0  0
  -20.5517   14.1837  -18.9831 C   0  0  0  0  0  0  0  0  0  0  0  0
  -21.2907   15.0230  -19.8034 C   0  0  0  0  0  0  0  0  0  0  0  0
  -21.0422   16.3899  -19.8803 C   0  0  0  0  0  0  0  0  0  0  0  0
  -20.0137   16.8471  -19.0809 C   0  0  0  0  0  0  0  0  0  0  0  0
  -19.2673   16.0470  -18.2645 C   0  0  0  0  0  0  0  0  0  0  0  0
  -18.2443   16.5211  -17.4783 F   0  0  0  0  0  0  0  0  0  0  0  0
  -21.6784   17.2572  -20.8100 N   0  0  0  0  0  0  0  0  0  0  0  0
  -20.9021   17.5063  -22.0295 C   0  0  0  0  0  0  0  0  0  0  0  0
  -19.7649   16.8607  -22.0479 O   0  0  0  0  0  0  0  0  0  0  0  0
  -21.3283   18.3178  -22.9860 N   0  0  0  0  0  0  0  0  0  0  0  0
  -22.5731   17.6830  -20.6830 H   0  0  0  0  0  0  0  0  0  0  0  0
  -20.1362   18.1597  -23.6903 H   0  0  0  0  0  0  0  0  0  0  0  0
  -21.7024   19.1447  -24.0137 C   0  0  0  0  0  0  0  0  0  0  0  0
  -22.7054   18.8348  -24.9193 C   0  0  0  0  0  0  0  0  0  0  0  0
  -23.5519   17.3287  -24.7206 Cl  0  0  0  0  0  0  0  0  0  0  0  0
  -23.0439   19.6642  -25.9467 C   0  0  0  0  0  0  0  0  0  0  0  0
  -22.3754   20.8591  -26.1041 C   0  0  0  0  0  0  0  0  0  0  0  0
  -21.3787   21.1914  -25.2210 C   0  0  0  0  0  0  0  0  0  0  0  0
  -21.0261   20.3566  -24.1750 C   0  0  0  0  0  0  0  0  0  0  0  0
  -19.7540   20.8351  -23.0729 Cl  0  0  0  0  0  0  0  0  0  0  0  0
  -20.4819    7.9555  -15.5992 O   0  0  0  0  0  0  0  0  0  0  0  0
  -19.8011    7.1798  -14.6630 C   0  0  0  0  0  0  0  0  0  0  0  0
  -20.7949    6.3075  -13.9217 C   0  0  0  0  0  0  0  0  0  0  0  0
  -22.0970    6.2384  -14.6249 C   0  0  0  0  0  0  0  0  0  0  0  0
  -22.5189    4.9891  -15.1104 N   0  0  0  0  0  0  0  0  0  0  0  0
  -22.0111    4.5598  -16.3601 C   0  0  0  0  0  0  0  0  0  0  0  0
  -21.0348    3.4165  -16.2722 C   0  0  0  0  0  0  0  0  0  0  0  0
  -21.6674    2.3629  -15.6264 O   0  0  0  0  0  0  0  0  0  0  0  0
  -21.9367    2.7226  -14.3158 C   0  0  0  0  0  0  0  0  0  0  0  0
  -22.8363    3.9496  -14.2078 C   0  0  0  0  0  0  0  0  0  0  0  0
 11 12  1  0  0  0
 12  1  1  0  0  0
  1  2  2  0  0  0
  2  3  1  0  0  0
  3  4  2  0  0  0
  4 13  1  0  0  0
 13 14  1  0  0  0
 14 15  2  0  0  0
 15 16  1  0  0  0
 16 17  2  0  0  0
 17 21  1  0  0  0
 21 22  1  0  0  0
 22 23  2  0  0  0
 22 24  1  0  0  0
 24 27  1  0  0  0
 27 28  2  0  0  0
 28 29  1  0  0  0
 28 30  1  0  0  0
 30 31  2  0  0  0
 31 32  1  0  0  0
 32 33  2  0  0  0
 33 34  1  0  0  0
 17 18  1  0  0  0
 18 19  2  0  0  0
 19 20  1  0  0  0
  4  5  1  0  0  0
  5  6  2  0  0  0
  6  7  1  0  0  0
  7  8  2  0  0  0
  8  9  1  0  0  0
  9 10  2  0  0  0
 10 35  1  0  0  0
 35 36  1  0  0  0
 36 37  1  0  0  0
 37 38  1  0  0  0
 38 39  1  0  0  0
 39 40  1  0  0  0
 40 41  1  0  0  0
 41 42  1  0  0  0
 42 43  1  0  0  0
 43 44  1  0  0  0
 10  1  1  0  0  0
 44 39  1  0  0  0
  8  3  1  0  0  0
 19 14  1  0  0  0
 33 27  1  0  0  0
 21 25  1  0  0  0
 24 26  1  0  0  0
M  END
> <minimizedAffinity>
-7.57202

> <CNNscore>
0.1438768506

> <CNNaffinity>
6.8215546608

> <CNN_VS>
0.9814637899

> <CNNaffinity_variance>
0.0519752130

$$$$
[H]c1nc2c([H])c(OC([H])([H])C([H])([H])C([H])([H])N3C([H])([H])C([H])([H])OC([H])([H])C3([H])[H])c(OC([H])([H])[H])c([H])c2c(Oc2c([H])c([H])c(N([H])C(=O)N([H])c3c(Cl)c([H])c([H])c([H])c3Cl)c([H])c2F)c1[H]


 44 48  0  0  0  0  0  0  0  0999 V2000
  -20.4332   10.2522  -15.8812 C   0  0  0  0  0  0  0  0  0  0  0  0
  -20.0121   11.3777  -16.5820 C   0  0  0  0  0  0  0  0  0  0  0  0
  -19.0399   11.3368  -17.5714 C   0  0  0  0  0  0  0  0  0  0  0  0
  -18.6115   12.4464  -18.2504 C   0  0  0  0  0  0  0  0  0  0  0  0
  -17.6093   12.3669  -19.2310 C   0  0  0  0  0  0  0  0  0  0  0  0
  -17.0898   11.1216  -19.4681 C   0  0  0  0  0  0  0  0  0  0  0  0
  -17.5108   10.0373  -18.8045 N   0  0  0  0  0  0  0  0  0  0  0  0
  -18.4725   10.1032  -17.8616 C   0  0  0  0  0  0  0  0  0  0  0  0
  -18.8839    8.9821  -17.1739 C   0  0  0  0  0  0  0  0  0  0  0  0
  -19.8514    9.0425  -16.1921 C   0  0  0  0  0  0  0  0  0  0  0  0
  -21.1299   10.8437  -13.6067 C   0  0  0  0  0  0  0  0  0  0  0  0
  -21.4124   10.3110  -14.8833 O   0  0  0  0  0  0  0  0  0  0  0  0
  -19.1807   13.6922  -17.9691 O   0  0  0  0  0  0  0  0  0  0  0  0
  -19.1259   14.6936  -18.9570 C   0  0  0  0  0  0  0  0  0  0  0  0
  -18.2647   15.7506  -18.8159 C   0  0  0  0  0  0  0  0  0  0  0  0
  -18.2169   16.7422  -19.7845 C   0  0  0  0  0  0  0  0  0  0  0  0
  -19.0222   16.7085  -20.9187 C   0  0  0  0  0  0  0  0  0  0  0  0
  -19.8647   15.6186  -21.0103 C   0  0  0  0  0  0  0  0  0  0  0  0
  -19.9363   14.6277  -20.0740 C   0  0  0  0  0  0  0  0  0  0  0  0
  -20.7850   13.5517  -20.1818 F   0  0  0  0  0  0  0  0  0  0  0  0
  -19.1066   17.7713  -21.8592 N   0  0  0  0  0  0  0  0  0  0  0  0
  -20.0437   18.8353  -21.4827 C   0  0  0  0  0  0  0  0  0  0  0  0
  -20.6192   18.6196  -20.3284 O   0  0  0  0  0  0  0  0  0  0  0  0
  -20.2728   19.8836  -22.2596 N   0  0  0  0  0  0  0  0  0  0  0  0
  -18.5931   17.8274  -22.7142 H   0  0  0  0  0  0  0  0  0  0  0  0
  -21.2558   20.3497  -21.3886 H   0  0  0  0  0  0  0  0  0  0  0  0
  -20.5627   20.9929  -23.0115 C   0  0  0  0  0  0  0  0  0  0  0  0
  -20.0418   22.2512  -22.7519 C   0  0  0  0  0  0  0  0  0  0  0  0
  -18.9393   22.4223  -21.4177 Cl  0  0  0  0  0  0  0  0  0  0  0  0
  -20.3630   23.3438  -23.5010 C   0  0  0  0  0  0  0  0  0  0  0  0
  -21.2349   23.2093  -24.5599 C   0  0  0  0  0  0  0  0  0  0  0  0
  -21.7645   21.9746  -24.8400 C   0  0  0  0  0  0  0  0  0  0  0  0
  -21.4461   20.8588  -24.0856 C   0  0  0  0  0  0  0  0  0  0  0  0
  -22.1433   19.3067  -24.4936 Cl  0  0  0  0  0  0  0  0  0  0  0  0
  -20.2564    7.9047  -15.5069 O   0  0  0  0  0  0  0  0  0  0  0  0
  -19.6306    7.4178  -14.3611 C   0  0  0  0  0  0  0  0  0  0  0  0
  -20.6700    6.7863  -13.4561 C   0  0  0  0  0  0  0  0  0  0  0  0
  -20.1719    5.5367  -12.8356 C   0  0  0  0  0  0  0  0  0  0  0  0
  -19.6592    5.6080  -11.5292 N   0  0  0  0  0  0  0  0  0  0  0  0
  -18.2641    5.4416  -11.3565 C   0  0  0  0  0  0  0  0  0  0  0  0
  -17.5339    6.6996  -10.9663 C   0  0  0  0  0  0  0  0  0  0  0  0
  -18.1058    7.1803   -9.7963 O   0  0  0  0  0  0  0  0  0  0  0  0
  -19.4105    7.5718  -10.0497 C   0  0  0  0  0  0  0  0  0  0  0  0
  -20.2838    6.4337  -10.5680 C   0  0  0  0  0  0  0  0  0  0  0  0
 11 12  1  0  0  0
 12  1  1  0  0  0
  1  2  2  0  0  0
  2  3  1  0  0  0
  3  4  2  0  0  0
  4 13  1  0  0  0
 13 14  1  0  0  0
 14 15  2  0  0  0
 15 16  1  0  0  0
 16 17  2  0  0  0
 17 21  1  0  0  0
 21 22  1  0  0  0
 22 23  2  0  0  0
 22 24  1  0  0  0
 24 27  1  0  0  0
 27 28  2  0  0  0
 28 29  1  0  0  0
 28 30  1  0  0  0
 30 31  2  0  0  0
 31 32  1  0  0  0
 32 33  2  0  0  0
 33 34  1  0  0  0
 17 18  1  0  0  0
 18 19  2  0  0  0
 19 20  1  0  0  0
  4  5  1  0  0  0
  5  6  2  0  0  0
  6  7  1  0  0  0
  7  8  2  0  0  0
  8  9  1  0  0  0
  9 10  2  0  0  0
 10 35  1  0  0  0
 35 36  1  0  0  0
 36 37  1  0  0  0
 37 38  1  0  0  0
 38 39  1  0  0  0
 39 40  1  0  0  0
 40 41  1  0  0  0
 41 42  1  0  0  0
 42 43  1  0  0  0
 43 44  1  0  0  0
 10  1  1  0  0  0
 44 39  1  0  0  0
  8  3  1  0  0  0
 19 14  1  0  0  0
 33 27  1  0  0  0
 21 25  1  0  0  0
 24 26  1  0  0  0
M  END
> <minimizedAffinity>
-7.22333

> <CNNscore>
0.1136180684

> <CNNaffinity>
6.5957899094

> <CNN_VS>
0.7494009137

> <CNNaffinity_variance>
0.0566160679

$$$$
[H]c1nc2c([H])c(OC([H])([H])C([H])([H])C([H])([H])N3C([H])([H])C([H])([H])OC([H])([H])C3([H])[H])c(OC([H])([H])[H])c([H])c2c(Oc2c([H])c([H])c(N([H])C(=O)N([H])c3c(Cl)c([H])c([H])c([H])c3Cl)c([H])c2F)c1[H]


 44 48  0  0  0  0  0  0  0  0999 V2000
  -20.3355   10.5312  -15.7049 C   0  0  0  0  0  0  0  0  0  0  0  0
  -19.7782   11.5535  -16.4660 C   0  0  0  0  0  0  0  0  0  0  0  0
  -18.8710   11.3287  -17.4918 C   0  0  0  0  0  0  0  0  0  0  0  0
  -18.3078   12.3349  -18.2310 C   0  0  0  0  0  0  0  0  0  0  0  0
  -17.3765   12.0677  -19.2476 C   0  0  0  0  0  0  0  0  0  0  0  0
  -17.0677   10.7494  -19.4563 C   0  0  0  0  0  0  0  0  0  0  0  0
  -17.6203    9.7665  -18.7339 N   0  0  0  0  0  0  0  0  0  0  0  0
  -18.5154   10.0127  -17.7559 C   0  0  0  0  0  0  0  0  0  0  0  0
  -19.0631    8.9929  -17.0084 C   0  0  0  0  0  0  0  0  0  0  0  0
  -19.9630    9.2359  -15.9912 C   0  0  0  0  0  0  0  0  0  0  0  0
  -20.8202   11.2556  -13.4137 C   0  0  0  0  0  0  0  0  0  0  0  0
  -21.2464   10.7749  -14.6710 O   0  0  0  0  0  0  0  0  0  0  0  0
  -18.6636   13.6629  -17.9761 O   0  0  0  0  0  0  0  0  0  0  0  0
  -18.8361   14.5331  -19.0691 C   0  0  0  0  0  0  0  0  0  0  0  0
  -17.8577   15.4392  -19.3862 C   0  0  0  0  0  0  0  0  0  0  0  0
  -18.0312   16.3031  -20.4573 C   0  0  0  0  0  0  0  0  0  0  0  0
  -19.1801   16.2878  -21.2420 C   0  0  0  0  0  0  0  0  0  0  0  0
  -20.1279   15.3515  -20.8800 C   0  0  0  0  0  0  0  0  0  0  0  0
  -19.9878   14.4890  -19.8311 C   0  0  0  0  0  0  0  0  0  0  0  0
  -20.9451   13.5656  -19.4842 F   0  0  0  0  0  0  0  0  0  0  0  0
  -19.4579   17.2466  -22.2545 N   0  0  0  0  0  0  0  0  0  0  0  0
  -20.0530   18.4918  -21.7574 C   0  0  0  0  0  0  0  0  0  0  0  0
  -20.2002   18.5006  -20.4579 O   0  0  0  0  0  0  0  0  0  0  0  0
  -20.4078   19.4787  -22.5669 N   0  0  0  0  0  0  0  0  0  0  0  0
  -19.2815   17.1232  -23.2299 H   0  0  0  0  0  0  0  0  0  0  0  0
  -20.9455   20.1975  -21.5009 H   0  0  0  0  0  0  0  0  0  0  0  0
  -20.8021   20.5384  -23.3424 C   0  0  0  0  0  0  0  0  0  0  0  0
  -20.3106   21.8254  -23.1869 C   0  0  0  0  0  0  0  0  0  0  0  0
  -19.1084   22.1009  -21.9608 Cl  0  0  0  0  0  0  0  0  0  0  0  0
  -20.7353   22.8676  -23.9562 C   0  0  0  0  0  0  0  0  0  0  0  0
  -21.6864   22.6503  -24.9297 C   0  0  0  0  0  0  0  0  0  0  0  0
  -22.1892   21.3855  -25.1058 C   0  0  0  0  0  0  0  0  0  0  0  0
  -21.7660   20.3205  -24.3299 C   0  0  0  0  0  0  0  0  0  0  0  0
  -22.4340   18.7267  -24.6043 Cl  0  0  0  0  0  0  0  0  0  0  0  0
  -20.5071    8.1985  -15.2457 O   0  0  0  0  0  0  0  0  0  0  0  0
  -19.7822    7.4160  -14.3492 C   0  0  0  0  0  0  0  0  0  0  0  0
  -20.7320    6.4904  -13.6148 C   0  0  0  0  0  0  0  0  0  0  0  0
  -22.1198    6.6157  -14.1176 C   0  0  0  0  0  0  0  0  0  0  0  0
  -22.6539    5.5444  -14.8536 N   0  0  0  0  0  0  0  0  0  0  0  0
  -22.4346    5.5288  -16.2521 C   0  0  0  0  0  0  0  0  0  0  0  0
  -21.4781    4.4626  -16.7171 C   0  0  0  0  0  0  0  0  0  0  0  0
  -21.9702    3.2343  -16.2973 O   0  0  0  0  0  0  0  0  0  0  0  0
  -21.9445    3.1778  -14.9131 C   0  0  0  0  0  0  0  0  0  0  0  0
  -22.7825    4.2703  -14.2569 C   0  0  0  0  0  0  0  0  0  0  0  0
 11 12  1  0  0  0
 12  1  1  0  0  0
  1  2  2  0  0  0
  2  3  1  0  0  0
  3  4  2  0  0  0
  4 13  1  0  0  0
 13 14  1  0  0  0
 14 15  2  0  0  0
 15 16  1  0  0  0
 16 17  2  0  0  0
 17 21  1  0  0  0
 21 22  1  0  0  0
 22 23  2  0  0  0
 22 24  1  0  0  0
 24 27  1  0  0  0
 27 28  2  0  0  0
 28 29  1  0  0  0
 28 30  1  0  0  0
 30 31  2  0  0  0
 31 32  1  0  0  0
 32 33  2  0  0  0
 33 34  1  0  0  0
 17 18  1  0  0  0
 18 19  2  0  0  0
 19 20  1  0  0  0
  4  5  1  0  0  0
  5  6  2  0  0  0
  6  7  1  0  0  0
  7  8  2  0  0  0
  8  9  1  0  0  0
  9 10  2  0  0  0
 10 35  1  0  0  0
 35 36  1  0  0  0
 36 37  1  0  0  0
 37 38  1  0  0  0
 38 39  1  0  0  0
 39 40  1  0  0  0
 40 41  1  0  0  0
 41 42  1  0  0  0
 42 43  1  0  0  0
 43 44  1  0  0  0
 10  1  1  0  0  0
 44 39  1  0  0  0
  8  3  1  0  0  0
 19 14  1  0  0  0
 33 27  1  0  0  0
 21 25  1  0  0  0
 24 26  1  0  0  0
M  END
> <minimizedAffinity>
-7.28127

> <CNNscore>
0.1118394583

> <CNNaffinity>
6.6921982765

> <CNN_VS>
0.7484518290

> <CNNaffinity_variance>
0.0716787279

$$$$
[H]c1nc2c([H])c(OC([H])([H])C([H])([H])C([H])([H])N3C([H])([H])C([H])([H])OC([H])([H])C3([H])[H])c(OC([H])([H])[H])c([H])c2c(Oc2c([H])c([H])c(N([H])C(=O)N([H])c3c(Cl)c([H])c([H])c([H])c3Cl)c([H])c2F)c1[H]


 44 48  0  0  0  0  0  0  0  0999 V2000
  -19.8062   14.8688  -16.6471 C   0  0  0  0  0  0  0  0  0  0  0  0
  -19.2983   13.5846  -16.8137 C   0  0  0  0  0  0  0  0  0  0  0  0
  -20.0107   12.4382  -16.4909 C   0  0  0  0  0  0  0  0  0  0  0  0
  -19.5061   11.1735  -16.6378 C   0  0  0  0  0  0  0  0  0  0  0  0
  -20.2513   10.0383  -16.2795 C   0  0  0  0  0  0  0  0  0  0  0  0
  -21.5055   10.2690  -15.7790 C   0  0  0  0  0  0  0  0  0  0  0  0
  -21.9983   11.5062  -15.6375 N   0  0  0  0  0  0  0  0  0  0  0  0
  -21.2908   12.6023  -15.9787 C   0  0  0  0  0  0  0  0  0  0  0  0
  -21.8034   13.8704  -15.8113 C   0  0  0  0  0  0  0  0  0  0  0  0
  -21.0795   14.9989  -16.1369 C   0  0  0  0  0  0  0  0  0  0  0  0
  -17.9543   15.9522  -17.8328 C   0  0  0  0  0  0  0  0  0  0  0  0
  -19.0732   16.0152  -16.9741 O   0  0  0  0  0  0  0  0  0  0  0  0
  -18.2200   10.9978  -17.1578 O   0  0  0  0  0  0  0  0  0  0  0  0
  -17.9857   11.3473  -18.5011 C   0  0  0  0  0  0  0  0  0  0  0  0
  -19.0169   11.7997  -19.2826 C   0  0  0  0  0  0  0  0  0  0  0  0
  -18.7884   12.1354  -20.6088 C   0  0  0  0  0  0  0  0  0  0  0  0
  -17.5295   12.0320  -21.1922 C   0  0  0  0  0  0  0  0  0  0  0  0
  -16.5291   11.5768  -20.3568 C   0  0  0  0  0  0  0  0  0  0  0  0
  -16.7220   11.2371  -19.0487 C   0  0  0  0  0  0  0  0  0  0  0  0
  -15.7129   10.7821  -18.2336 F   0  0  0  0  0  0  0  0  0  0  0  0
  -17.2830   12.2285  -22.5786 N   0  0  0  0  0  0  0  0  0  0  0  0
  -16.9768   13.6156  -22.9449 C   0  0  0  0  0  0  0  0  0  0  0  0
  -16.9651   14.4216  -21.9151 O   0  0  0  0  0  0  0  0  0  0  0  0
  -16.7561   13.9840  -24.1981 N   0  0  0  0  0  0  0  0  0  0  0  0
  -17.3080   11.5139  -23.2761 H   0  0  0  0  0  0  0  0  0  0  0  0
  -16.6603   15.3213  -23.8179 H   0  0  0  0  0  0  0  0  0  0  0  0
  -16.5206   14.4388  -25.4700 C   0  0  0  0  0  0  0  0  0  0  0  0
  -16.8897   13.7445  -26.6119 C   0  0  0  0  0  0  0  0  0  0  0  0
  -17.7216   12.2297  -26.4168 Cl  0  0  0  0  0  0  0  0  0  0  0  0
  -16.6243   14.2074  -27.8662 C   0  0  0  0  0  0  0  0  0  0  0  0
  -15.9670   15.4087  -28.0223 C   0  0  0  0  0  0  0  0  0  0  0  0
  -15.5911   16.1173  -26.9087 C   0  0  0  0  0  0  0  0  0  0  0  0
  -15.8546   15.6564  -25.6306 C   0  0  0  0  0  0  0  0  0  0  0  0
  -15.3612   16.6059  -24.2462 Cl  0  0  0  0  0  0  0  0  0  0  0  0
  -21.6084   16.2709  -15.9629 O   0  0  0  0  0  0  0  0  0  0  0  0
  -22.9719   16.5580  -15.9673 C   0  0  0  0  0  0  0  0  0  0  0  0
  -23.1970   17.9156  -15.3313 C   0  0  0  0  0  0  0  0  0  0  0  0
  -22.3272   18.1199  -14.1497 C   0  0  0  0  0  0  0  0  0  0  0  0
  -22.8872   18.7344  -13.0168 N   0  0  0  0  0  0  0  0  0  0  0  0
  -23.3575   17.8983  -11.9758 C   0  0  0  0  0  0  0  0  0  0  0  0
  -22.5210   17.9377  -10.7241 C   0  0  0  0  0  0  0  0  0  0  0  0
  -22.4637   19.2549  -10.2896 O   0  0  0  0  0  0  0  0  0  0  0  0
  -21.7752   20.0162  -11.2202 C   0  0  0  0  0  0  0  0  0  0  0  0
  -22.4265   20.0030  -12.5994 C   0  0  0  0  0  0  0  0  0  0  0  0
 11 12  1  0  0  0
 12  1  1  0  0  0
  1  2  2  0  0  0
  2  3  1  0  0  0
  3  4  2  0  0  0
  4 13  1  0  0  0
 13 14  1  0  0  0
 14 15  2  0  0  0
 15 16  1  0  0  0
 16 17  2  0  0  0
 17 21  1  0  0  0
 21 22  1  0  0  0
 22 23  2  0  0  0
 22 24  1  0  0  0
 24 27  1  0  0  0
 27 28  2  0  0  0
 28 29  1  0  0  0
 28 30  1  0  0  0
 30 31  2  0  0  0
 31 32  1  0  0  0
 32 33  2  0  0  0
 33 34  1  0  0  0
 17 18  1  0  0  0
 18 19  2  0  0  0
 19 20  1  0  0  0
  4  5  1  0  0  0
  5  6  2  0  0  0
  6  7  1  0  0  0
  7  8  2  0  0  0
  8  9  1  0  0  0
  9 10  2  0  0  0
 10 35  1  0  0  0
 35 36  1  0  0  0
 36 37  1  0  0  0
 37 38  1  0  0  0
 38 39  1  0  0  0
 39 40  1  0  0  0
 40 41  1  0  0  0
 41 42  1  0  0  0
 42 43  1  0  0  0
 43 44  1  0  0  0
 10  1  1  0  0  0
 44 39  1  0  0  0
  8  3  1  0  0  0
 19 14  1  0  0  0
 33 27  1  0  0  0
 21 25  1  0  0  0
 24 26  1  0  0  0
M  END
> <minimizedAffinity>
-7.80888

> <CNNscore>
0.1115675718

> <CNNaffinity>
6.9189119339

> <CNN_VS>
0.7719262242

> <CNNaffinity_variance>
0.0753691047

$$$$
[H]c1nc2c([H])c(OC([H])([H])C([H])([H])C([H])([H])N3C([H])([H])C([H])([H])OC([H])([H])C3([H])[H])c(OC([H])([H])[H])c([H])c2c(Oc2c([H])c([H])c(N([H])C(=O)N([H])c3c(Cl)c([H])c([H])c([H])c3Cl)c([H])c2F)c1[H]


 44 48  0  0  0  0  0  0  0  0999 V2000
  -17.9750   14.6001  -21.5632 C   0  0  0  0  0  0  0  0  0  0  0  0
  -17.8096   14.0696  -20.2879 C   0  0  0  0  0  0  0  0  0  0  0  0
  -17.5347   12.7299  -20.0524 C   0  0  0  0  0  0  0  0  0  0  0  0
  -17.3887   12.2021  -18.7970 C   0  0  0  0  0  0  0  0  0  0  0  0
  -17.1317   10.8357  -18.5992 C   0  0  0  0  0  0  0  0  0  0  0  0
  -17.0345   10.0668  -19.7289 C   0  0  0  0  0  0  0  0  0  0  0  0
  -17.1758   10.5846  -20.9559 N   0  0  0  0  0  0  0  0  0  0  0  0
  -17.4225   11.8950  -21.1562 C   0  0  0  0  0  0  0  0  0  0  0  0
  -17.5832   12.4114  -22.4237 C   0  0  0  0  0  0  0  0  0  0  0  0
  -17.8575   13.7463  -22.6383 C   0  0  0  0  0  0  0  0  0  0  0  0
  -19.4950   16.5171  -21.4101 C   0  0  0  0  0  0  0  0  0  0  0  0
  -18.2558   15.9531  -21.7837 O   0  0  0  0  0  0  0  0  0  0  0  0
  -17.4946   13.0358  -17.6794 O   0  0  0  0  0  0  0  0  0  0  0  0
  -18.7750   13.4621  -17.2790 C   0  0  0  0  0  0  0  0  0  0  0  0
  -19.7993   12.5569  -17.1773 C   0  0  0  0  0  0  0  0  0  0  0  0
  -21.0632   12.9781  -16.7918 C   0  0  0  0  0  0  0  0  0  0  0  0
  -21.3418   14.3088  -16.4957 C   0  0  0  0  0  0  0  0  0  0  0  0
  -20.2718   15.1736  -16.6096 C   0  0  0  0  0  0  0  0  0  0  0  0
  -19.0171   14.7909  -16.9878 C   0  0  0  0  0  0  0  0  0  0  0  0
  -17.9650   15.6684  -17.0987 F   0  0  0  0  0  0  0  0  0  0  0  0
  -22.6494   14.8033  -16.2368 N   0  0  0  0  0  0  0  0  0  0  0  0
  -23.0942   15.8457  -17.1682 C   0  0  0  0  0  0  0  0  0  0  0  0
  -22.2056   16.1163  -18.0889 O   0  0  0  0  0  0  0  0  0  0  0  0
  -24.2714   16.4422  -17.0525 N   0  0  0  0  0  0  0  0  0  0  0  0
  -23.2457   14.4977  -15.4959 H   0  0  0  0  0  0  0  0  0  0  0  0
  -23.9704   17.3029  -18.1065 H   0  0  0  0  0  0  0  0  0  0  0  0
  -25.4704   17.1046  -16.9936 C   0  0  0  0  0  0  0  0  0  0  0  0
  -26.6828   16.4737  -16.7608 C   0  0  0  0  0  0  0  0  0  0  0  0
  -26.6751   14.7541  -16.5012 Cl  0  0  0  0  0  0  0  0  0  0  0  0
  -27.8650   17.1516  -16.7291 C   0  0  0  0  0  0  0  0  0  0  0  0
  -27.8724   18.5148  -16.9324 C   0  0  0  0  0  0  0  0  0  0  0  0
  -26.6860   19.1648  -17.1640 C   0  0  0  0  0  0  0  0  0  0  0  0
  -25.4802   18.4865  -17.1992 C   0  0  0  0  0  0  0  0  0  0  0  0
  -23.9964   19.3673  -17.4889 Cl  0  0  0  0  0  0  0  0  0  0  0  0
  -18.0172   14.2532  -23.9211 O   0  0  0  0  0  0  0  0  0  0  0  0
  -18.3664   13.4828  -25.0284 C   0  0  0  0  0  0  0  0  0  0  0  0
  -17.1150   13.1434  -25.8137 C   0  0  0  0  0  0  0  0  0  0  0  0
  -16.6841   14.2695  -26.6745 C   0  0  0  0  0  0  0  0  0  0  0  0
  -15.7642   15.1901  -26.1446 N   0  0  0  0  0  0  0  0  0  0  0  0
  -16.1988   16.5239  -25.9546 C   0  0  0  0  0  0  0  0  0  0  0  0
  -16.3683   16.9204  -24.5117 C   0  0  0  0  0  0  0  0  0  0  0  0
  -15.1556   16.7170  -23.8672 O   0  0  0  0  0  0  0  0  0  0  0  0
  -14.8670   15.3620  -23.8483 C   0  0  0  0  0  0  0  0  0  0  0  0
  -14.7664   14.7551  -25.2440 C   0  0  0  0  0  0  0  0  0  0  0  0
 11 12  1  0  0  0
 12  1  1  0  0  0
  1  2  2  0  0  0
  2  3  1  0  0  0
  3  4  2  0  0  0
  4 13  1  0  0  0
 13 14  1  0  0  0
 14 15  2  0  0  0
 15 16  1  0  0  0
 16 17  2  0  0  0
 17 21  1  0  0  0
 21 22  1  0  0  0
 22 23  2  0  0  0
 22 24  1  0  0  0
 24 27  1  0  0  0
 27 28  2  0  0  0
 28 29  1  0  0  0
 28 30  1  0  0  0
 30 31  2  0  0  0
 31 32  1  0  0  0
 32 33  2  0  0  0
 33 34  1  0  0  0
 17 18  1  0  0  0
 18 19  2  0  0  0
 19 20  1  0  0  0
  4  5  1  0  0  0
  5  6  2  0  0  0
  6  7  1  0  0  0
  7  8  2  0  0  0
  8  9  1  0  0  0
  9 10  2  0  0  0
 10 35  1  0  0  0
 35 36  1  0  0  0
 36 37  1  0  0  0
 37 38  1  0  0  0
 38 39  1  0  0  0
 39 40  1  0  0  0
 40 41  1  0  0  0
 41 42  1  0  0  0
 42 43  1  0  0  0
 43 44  1  0  0  0
 10  1  1  0  0  0
 44 39  1  0  0  0
  8  3  1  0  0  0
 19 14  1  0  0  0
 33 27  1  0  0  0
 21 25  1  0  0  0
 24 26  1  0  0  0
M  END
> <minimizedAffinity>
-7.79737

> <CNNscore>
0.1014575809

> <CNNaffinity>
6.9700880051

> <CNN_VS>
0.7071682811

> <CNNaffinity_variance>
0.1731743217

$$$$
[H]c1nc2c([H])c(OC([H])([H])C([H])([H])C([H])([H])N3C([H])([H])C([H])([H])OC([H])([H])C3([H])[H])c(OC([H])([H])[H])c([H])c2c(Oc2c([H])c([H])c(N([H])C(=O)c3c(F)c([H])c([H])c([H])c3F)c([H])c2F)c1[H]


 42 46  0  0  0  0  0  0  0  0999 V2000
  -18.5658   11.7797  -18.5032 C   0  0  0  0  0  0  0  0  0  0  0  0
  -18.4159   12.5855  -19.5896 C   0  0  0  0  0  0  0  0  0  0  0  0
  -17.5419   12.2672  -20.5929 C   0  0  0  0  0  0  0  0  0  0  0  0
  -17.4075   13.1147  -21.7025 C   0  0  0  0  0  0  0  0  0  0  0  0
  -16.5226   12.7566  -22.6824 C   0  0  0  0  0  0  0  0  0  0  0  0
  -15.7885   11.5842  -22.5640 C   0  0  0  0  0  0  0  0  0  0  0  0
  -15.9238   10.7763  -21.4958 N   0  0  0  0  0  0  0  0  0  0  0  0
  -16.8002   11.1096  -20.5018 C   0  0  0  0  0  0  0  0  0  0  0  0
  -16.9248   10.2614  -19.4102 C   0  0  0  0  0  0  0  0  0  0  0  0
  -17.8112   10.6041  -18.4124 C   0  0  0  0  0  0  0  0  0  0  0  0
  -19.3710   13.3981  -16.8640 C   0  0  0  0  0  0  0  0  0  0  0  0
  -19.4680   12.1418  -17.5029 O   0  0  0  0  0  0  0  0  0  0  0  0
  -18.1506   14.2380  -21.7603 O   0  0  0  0  0  0  0  0  0  0  0  0
  -18.3791   15.2220  -20.8626 C   0  0  0  0  0  0  0  0  0  0  0  0
  -19.6367   15.4253  -20.3488 C   0  0  0  0  0  0  0  0  0  0  0  0
  -19.8538   16.4539  -19.4186 C   0  0  0  0  0  0  0  0  0  0  0  0
  -18.8581   17.2833  -18.9854 C   0  0  0  0  0  0  0  0  0  0  0  0
  -17.5763   17.0632  -19.5212 C   0  0  0  0  0  0  0  0  0  0  0  0
  -17.3675   16.0536  -20.4340 C   0  0  0  0  0  0  0  0  0  0  0  0
  -16.0742   15.9562  -20.8917 F   0  0  0  0  0  0  0  0  0  0  0  0
  -19.0077   18.3268  -18.0155 N   0  0  0  0  0  0  0  0  0  0  0  0
  -20.0625   19.2234  -18.0233 C   0  0  0  0  0  0  0  0  0  0  0  0
  -20.9338   19.0686  -18.9533 O   0  0  0  0  0  0  0  0  0  0  0  0
  -18.2344   18.3460  -17.2935 H   0  0  0  0  0  0  0  0  0  0  0  0
  -20.3171   20.3261  -17.1091 C   0  0  0  0  0  0  0  0  0  0  0  0
  -20.3098   21.6497  -17.4471 C   0  0  0  0  0  0  0  0  0  0  0  0
  -20.0644   22.0305  -18.7269 F   0  0  0  0  0  0  0  0  0  0  0  0
  -20.5486   22.6834  -16.5491 C   0  0  0  0  0  0  0  0  0  0  0  0
  -20.8095   22.3863  -15.2420 C   0  0  0  0  0  0  0  0  0  0  0  0
  -20.8259   21.0645  -14.8625 C   0  0  0  0  0  0  0  0  0  0  0  0
  -20.5891   20.0608  -15.7578 C   0  0  0  0  0  0  0  0  0  0  0  0
  -20.6139   18.7828  -15.3485 F   0  0  0  0  0  0  0  0  0  0  0  0
  -18.0387    9.8711  -17.2780 O   0  0  0  0  0  0  0  0  0  0  0  0
  -18.6786    8.6999  -17.0390 C   0  0  0  0  0  0  0  0  0  0  0  0
  -19.7279    8.6788  -15.9529 C   0  0  0  0  0  0  0  0  0  0  0  0
  -19.6494    9.8761  -15.0555 C   0  0  0  0  0  0  0  0  0  0  0  0
  -19.1333    9.6232  -13.7517 N   0  0  0  0  0  0  0  0  0  0  0  0
  -19.4744    8.3045  -13.2580 C   0  0  0  0  0  0  0  0  0  0  0  0
  -18.7306    7.9324  -12.0202 C   0  0  0  0  0  0  0  0  0  0  0  0
  -18.3835    9.0494  -11.2589 O   0  0  0  0  0  0  0  0  0  0  0  0
  -19.3282   10.0658  -11.3946 C   0  0  0  0  0  0  0  0  0  0  0  0
  -19.3534   10.6548  -12.7892 C   0  0  0  0  0  0  0  0  0  0  0  0
 11 12  1  0  0  0
 12  1  1  0  0  0
  1  2  2  0  0  0
  2  3  1  0  0  0
  3  4  2  0  0  0
  4 13  1  0  0  0
 13 14  1  0  0  0
 14 15  2  0  0  0
 15 16  1  0  0  0
 16 17  2  0  0  0
 17 21  1  0  0  0
 21 22  1  0  0  0
 22 23  2  0  0  0
 22 25  1  0  0  0
 25 26  2  0  0  0
 26 27  1  0  0  0
 26 28  1  0  0  0
 28 29  2  0  0  0
 29 30  1  0  0  0
 30 31  2  0  0  0
 31 32  1  0  0  0
 17 18  1  0  0  0
 18 19  2  0  0  0
 19 20  1  0  0  0
  4  5  1  0  0  0
  5  6  2  0  0  0
  6  7  1  0  0  0
  7  8  2  0  0  0
  8  9  1  0  0  0
  9 10  2  0  0  0
 10 33  1  0  0  0
 33 34  1  0  0  0
 34 35  1  0  0  0
 35 36  1  0  0  0
 36 37  1  0  0  0
 37 38  1  0  0  0
 38 39  1  0  0  0
 39 40  1  0  0  0
 40 41  1  0  0  0
 41 42  1  0  0  0
 10  1  1  0  0  0
 42 37  1  0  0  0
  8  3  1  0  0  0
 19 14  1  0  0  0
 31 25  1  0  0  0
 21 24  1  0  0  0
M  END
> <minimizedAffinity>
-8.18771

> <CNNscore>
0.6589409709

> <CNNaffinity>
7.4314665794

> <CNN_VS>
4.8968977928

> <CNNaffinity_variance>
0.0224477127

$$$$
[H]c1nc2c([H])c(OC([H])([H])C([H])([H])C([H])([H])N3C([H])([H])C([H])([H])OC([H])([H])C3([H])[H])c(OC([H])([H])[H])c([H])c2c(Oc2c([H])c([H])c(N([H])C(=O)c3c(F)c([H])c([H])c([H])c3F)c([H])c2F)c1[H]


 42 46  0  0  0  0  0  0  0  0999 V2000
  -18.6406   11.3701  -18.7602 C   0  0  0  0  0  0  0  0  0  0  0  0
  -18.4681   12.0166  -19.9453 C   0  0  0  0  0  0  0  0  0  0  0  0
  -17.3837   11.7626  -20.7398 C   0  0  0  0  0  0  0  0  0  0  0  0
  -17.2304   12.4419  -21.9574 C   0  0  0  0  0  0  0  0  0  0  0  0
  -16.1316   12.1557  -22.7202 C   0  0  0  0  0  0  0  0  0  0  0  0
  -15.2065   11.2164  -22.2850 C   0  0  0  0  0  0  0  0  0  0  0  0
  -15.3613   10.5687  -21.1153 N   0  0  0  0  0  0  0  0  0  0  0  0
  -16.4494   10.8351  -20.3328 C   0  0  0  0  0  0  0  0  0  0  0  0
  -16.5898   10.1547  -19.1313 C   0  0  0  0  0  0  0  0  0  0  0  0
  -17.6902   10.4285  -18.3483 C   0  0  0  0  0  0  0  0  0  0  0  0
  -20.0544   12.9892  -17.6049 C   0  0  0  0  0  0  0  0  0  0  0  0
  -19.7606   11.6593  -17.9806 O   0  0  0  0  0  0  0  0  0  0  0  0
  -18.1650   13.3410  -22.3258 O   0  0  0  0  0  0  0  0  0  0  0  0
  -18.1515   14.6910  -22.3858 C   0  0  0  0  0  0  0  0  0  0  0  0
  -17.9139   15.4414  -21.2601 C   0  0  0  0  0  0  0  0  0  0  0  0
  -17.9057   16.8426  -21.3429 C   0  0  0  0  0  0  0  0  0  0  0  0
  -18.1257   17.5170  -22.5108 C   0  0  0  0  0  0  0  0  0  0  0  0
  -18.3684   16.7349  -23.6545 C   0  0  0  0  0  0  0  0  0  0  0  0
  -18.3762   15.3606  -23.5690 C   0  0  0  0  0  0  0  0  0  0  0  0
  -18.6421   14.7164  -24.7546 F   0  0  0  0  0  0  0  0  0  0  0  0
  -18.0973   18.9406  -22.6674 N   0  0  0  0  0  0  0  0  0  0  0  0
  -19.1873   19.7536  -22.4082 C   0  0  0  0  0  0  0  0  0  0  0  0
  -20.2512   19.1647  -21.9965 O   0  0  0  0  0  0  0  0  0  0  0  0
  -17.1633   19.3100  -23.0003 H   0  0  0  0  0  0  0  0  0  0  0  0
  -19.2877   21.1989  -22.5407 C   0  0  0  0  0  0  0  0  0  0  0  0
  -19.5152   21.8709  -23.7081 C   0  0  0  0  0  0  0  0  0  0  0  0
  -19.6829   21.1906  -24.8709 F   0  0  0  0  0  0  0  0  0  0  0  0
  -19.5978   23.2550  -23.8058 C   0  0  0  0  0  0  0  0  0  0  0  0
  -19.4461   24.0146  -22.6811 C   0  0  0  0  0  0  0  0  0  0  0  0
  -19.2156   23.3746  -21.4858 C   0  0  0  0  0  0  0  0  0  0  0  0
  -19.1373   22.0134  -21.4073 C   0  0  0  0  0  0  0  0  0  0  0  0
  -18.9111   21.4260  -20.2220 F   0  0  0  0  0  0  0  0  0  0  0  0
  -17.9608    9.8412  -17.1409 O   0  0  0  0  0  0  0  0  0  0  0  0
  -18.5172    8.6570  -16.7854 C   0  0  0  0  0  0  0  0  0  0  0  0
  -19.1858    8.5698  -15.4339 C   0  0  0  0  0  0  0  0  0  0  0  0
  -19.5229    9.9174  -14.8722 C   0  0  0  0  0  0  0  0  0  0  0  0
  -19.2829   10.0689  -13.4759 N   0  0  0  0  0  0  0  0  0  0  0  0
  -19.1248    8.8017  -12.7917 C   0  0  0  0  0  0  0  0  0  0  0  0
  -18.6193    8.9488  -11.3964 C   0  0  0  0  0  0  0  0  0  0  0  0
  -18.9899   10.1686  -10.8283 O   0  0  0  0  0  0  0  0  0  0  0  0
  -20.2181   10.6037  -11.3243 C   0  0  0  0  0  0  0  0  0  0  0  0
  -20.1569   10.9680  -12.7927 C   0  0  0  0  0  0  0  0  0  0  0  0
 11 12  1  0  0  0
 12  1  1  0  0  0
  1  2  2  0  0  0
  2  3  1  0  0  0
  3  4  2  0  0  0
  4 13  1  0  0  0
 13 14  1  0  0  0
 14 15  2  0  0  0
 15 16  1  0  0  0
 16 17  2  0  0  0
 17 21  1  0  0  0
 21 22  1  0  0  0
 22 23  2  0  0  0
 22 25  1  0  0  0
 25 26  2  0  0  0
 26 27  1  0  0  0
 26 28  1  0  0  0
 28 29  2  0  0  0
 29 30  1  0  0  0
 30 31  2  0  0  0
 31 32  1  0  0  0
 17 18  1  0  0  0
 18 19  2  0  0  0
 19 20  1  0  0  0
  4  5  1  0  0  0
  5  6  2  0  0  0
  6  7  1  0  0  0
  7  8  2  0  0  0
  8  9  1  0  0  0
  9 10  2  0  0  0
 10 33  1  0  0  0
 33 34  1  0  0  0
 34 35  1  0  0  0
 35 36  1  0  0  0
 36 37  1  0  0  0
 37 38  1  0  0  0
 38 39  1  0  0  0
 39 40  1  0  0  0
 40 41  1  0  0  0
 41 42  1  0  0  0
 10  1  1  0  0  0
 42 37  1  0  0  0
  8  3  1  0  0  0
 19 14  1  0  0  0
 31 25  1  0  0  0
 21 24  1  0  0  0
M  END
> <minimizedAffinity>
-7.97227

> <CNNscore>
0.6293386221

> <CNNaffinity>
7.4052267075

> <CNN_VS>
4.6603951454

> <CNNaffinity_variance>
0.0917930603

$$$$
[H]c1nc2c([H])c(OC([H])([H])C([H])([H])C([H])([H])N3C([H])([H])C([H])([H])OC([H])([H])C3([H])[H])c(OC([H])([H])[H])c([H])c2c(Oc2c([H])c([H])c(N([H])C(=O)c3c(F)c([H])c([H])c([H])c3F)c([H])c2F)c1[H]


 42 46  0  0  0  0  0  0  0  0999 V2000
  -19.1496   12.4986  -19.2750 C   0  0  0  0  0  0  0  0  0  0  0  0
  -18.5349   12.6651  -20.4777 C   0  0  0  0  0  0  0  0  0  0  0  0
  -17.4222   11.9423  -20.8110 C   0  0  0  0  0  0  0  0  0  0  0  0
  -16.8086   12.1323  -22.0579 C   0  0  0  0  0  0  0  0  0  0  0  0
  -15.6990   11.3873  -22.3494 C   0  0  0  0  0  0  0  0  0  0  0  0
  -15.2099   10.4743  -21.4249 C   0  0  0  0  0  0  0  0  0  0  0  0
  -15.8050   10.2979  -20.2305 N   0  0  0  0  0  0  0  0  0  0  0  0
  -16.9149   11.0289  -19.9126 C   0  0  0  0  0  0  0  0  0  0  0  0
  -17.5132   10.8299  -18.6762 C   0  0  0  0  0  0  0  0  0  0  0  0
  -18.6324   11.5704  -18.3636 C   0  0  0  0  0  0  0  0  0  0  0  0
  -20.5521   14.4559  -19.6708 C   0  0  0  0  0  0  0  0  0  0  0  0
  -20.2818   13.2562  -18.9753 O   0  0  0  0  0  0  0  0  0  0  0  0
  -17.3332   13.0324  -22.9136 O   0  0  0  0  0  0  0  0  0  0  0  0
  -17.4489   14.3777  -22.8572 C   0  0  0  0  0  0  0  0  0  0  0  0
  -16.8172   15.0958  -21.8713 C   0  0  0  0  0  0  0  0  0  0  0  0
  -16.9513   16.4925  -21.8289 C   0  0  0  0  0  0  0  0  0  0  0  0
  -17.6931   17.1934  -22.7375 C   0  0  0  0  0  0  0  0  0  0  0  0
  -18.3344   16.4440  -23.7404 C   0  0  0  0  0  0  0  0  0  0  0  0
  -18.2010   15.0740  -23.7781 C   0  0  0  0  0  0  0  0  0  0  0  0
  -18.8914   14.4611  -24.7975 F   0  0  0  0  0  0  0  0  0  0  0  0
  -17.8415   18.6178  -22.7685 N   0  0  0  0  0  0  0  0  0  0  0  0
  -18.8975   19.2831  -22.1695 C   0  0  0  0  0  0  0  0  0  0  0  0
  -19.7557   18.5519  -21.5555 O   0  0  0  0  0  0  0  0  0  0  0  0
  -17.0666   19.1116  -23.2933 H   0  0  0  0  0  0  0  0  0  0  0  0
  -19.1654   20.7128  -22.1427 C   0  0  0  0  0  0  0  0  0  0  0  0
  -19.1954   21.4895  -21.0193 C   0  0  0  0  0  0  0  0  0  0  0  0
  -18.9506   20.9442  -19.8003 F   0  0  0  0  0  0  0  0  0  0  0  0
  -19.4628   22.8535  -21.0234 C   0  0  0  0  0  0  0  0  0  0  0  0
  -19.7144   23.4817  -22.2096 C   0  0  0  0  0  0  0  0  0  0  0  0
  -19.6930   22.7334  -23.3633 C   0  0  0  0  0  0  0  0  0  0  0  0
  -19.4285   21.3938  -23.3416 C   0  0  0  0  0  0  0  0  0  0  0  0
  -19.4167   20.6980  -24.4892 F   0  0  0  0  0  0  0  0  0  0  0  0
  -19.3261   11.4862  -17.1855 O   0  0  0  0  0  0  0  0  0  0  0  0
  -20.1987   10.5791  -16.6816 C   0  0  0  0  0  0  0  0  0  0  0  0
  -21.2194   11.0640  -15.6795 C   0  0  0  0  0  0  0  0  0  0  0  0
  -21.3226   12.5583  -15.6425 C   0  0  0  0  0  0  0  0  0  0  0  0
  -21.9036   13.0962  -14.4578 N   0  0  0  0  0  0  0  0  0  0  0  0
  -22.3788   12.0723  -13.5496 C   0  0  0  0  0  0  0  0  0  0  0  0
  -22.7468   12.6061  -12.2067 C   0  0  0  0  0  0  0  0  0  0  0  0
  -23.1667   13.9358  -12.2657 O   0  0  0  0  0  0  0  0  0  0  0  0
  -23.7968   14.2124  -13.4783 C   0  0  0  0  0  0  0  0  0  0  0  0
  -22.8469   14.1498  -14.6556 C   0  0  0  0  0  0  0  0  0  0  0  0
 11 12  1  0  0  0
 12  1  1  0  0  0
  1  2  2  0  0  0
  2  3  1  0  0  0
  3  4  2  0  0  0
  4 13  1  0  0  0
 13 14  1  0  0  0
 14 15  2  0  0  0
 15 16  1  0  0  0
 16 17  2  0  0  0
 17 21  1  0  0  0
 21 22  1  0  0  0
 22 23  2  0  0  0
 22 25  1  0  0  0
 25 26  2  0  0  0
 26 27  1  0  0  0
 26 28  1  0  0  0
 28 29  2  0  0  0
 29 30  1  0  0  0
 30 31  2  0  0  0
 31 32  1  0  0  0
 17 18  1  0  0  0
 18 19  2  0  0  0
 19 20  1  0  0  0
  4  5  1  0  0  0
  5  6  2  0  0  0
  6  7  1  0  0  0
  7  8  2  0  0  0
  8  9  1  0  0  0
  9 10  2  0  0  0
 10 33  1  0  0  0
 33 34  1  0  0  0
 34 35  1  0  0  0
 35 36  1  0  0  0
 36 37  1  0  0  0
 37 38  1  0  0  0
 38 39  1  0  0  0
 39 40  1  0  0  0
 40 41  1  0  0  0
 41 42  1  0  0  0
 10  1  1  0  0  0
 42 37  1  0  0  0
  8  3  1  0  0  0
 19 14  1  0  0  0
 31 25  1  0  0  0
 21 24  1  0  0  0
M  END
> <minimizedAffinity>
-8.14730

> <CNNscore>
0.5163311958

> <CNNaffinity>
7.2729544640

> <CNN_VS>
3.7552533150

> <CNNaffinity_variance>
0.0716048256

$$$$
[H]c1nc2c([H])c(OC([H])([H])C([H])([H])C([H])([H])N3C([H])([H])C([H])([H])OC([H])([H])C3([H])[H])c(OC([H])([H])[H])c([H])c2c(Oc2c([H])c([H])c(N([H])C(=O)c3c(F)c([H])c([H])c([H])c3F)c([H])c2F)c1[H]


 42 46  0  0  0  0  0  0  0  0999 V2000
  -19.2854   12.5142  -19.2584 C   0  0  0  0  0  0  0  0  0  0  0  0
  -18.6467   12.6836  -20.4481 C   0  0  0  0  0  0  0  0  0  0  0  0
  -17.5298   11.9587  -20.7624 C   0  0  0  0  0  0  0  0  0  0  0  0
  -16.8912   12.1518  -21.9963 C   0  0  0  0  0  0  0  0  0  0  0  0
  -15.7783   11.4046  -22.2688 C   0  0  0  0  0  0  0  0  0  0  0  0
  -15.3101   10.4865  -21.3386 C   0  0  0  0  0  0  0  0  0  0  0  0
  -15.9291   10.3072  -20.1568 N   0  0  0  0  0  0  0  0  0  0  0  0
  -17.0429   11.0403  -19.8579 C   0  0  0  0  0  0  0  0  0  0  0  0
  -17.6660   10.8383  -18.6343 C   0  0  0  0  0  0  0  0  0  0  0  0
  -18.7890   11.5809  -18.3407 C   0  0  0  0  0  0  0  0  0  0  0  0
  -20.9343   14.1830  -19.9301 C   0  0  0  0  0  0  0  0  0  0  0  0
  -20.4211   13.2741  -18.9780 O   0  0  0  0  0  0  0  0  0  0  0  0
  -17.3962   13.0569  -22.8585 O   0  0  0  0  0  0  0  0  0  0  0  0
  -17.4951   14.4036  -22.8057 C   0  0  0  0  0  0  0  0  0  0  0  0
  -16.8870   15.1132  -21.7990 C   0  0  0  0  0  0  0  0  0  0  0  0
  -17.0030   16.5116  -21.7609 C   0  0  0  0  0  0  0  0  0  0  0  0
  -17.7041   17.2225  -22.6938 C   0  0  0  0  0  0  0  0  0  0  0  0
  -18.3217   16.4818  -23.7177 C   0  0  0  0  0  0  0  0  0  0  0  0
  -18.2061   15.1100  -23.7512 C   0  0  0  0  0  0  0  0  0  0  0  0
  -18.8704   14.5065  -24.7933 F   0  0  0  0  0  0  0  0  0  0  0  0
  -17.8317   18.6488  -22.7294 N   0  0  0  0  0  0  0  0  0  0  0  0
  -18.9416   19.3228  -22.2496 C   0  0  0  0  0  0  0  0  0  0  0  0
  -19.8728   18.5979  -21.7441 O   0  0  0  0  0  0  0  0  0  0  0  0
  -16.9961   19.1367  -23.1578 H   0  0  0  0  0  0  0  0  0  0  0  0
  -19.1943   20.7555  -22.2414 C   0  0  0  0  0  0  0  0  0  0  0  0
  -19.4644   21.5160  -23.3437 C   0  0  0  0  0  0  0  0  0  0  0  0
  -19.5288   20.9446  -24.5735 F   0  0  0  0  0  0  0  0  0  0  0  0
  -19.6937   22.8864  -23.3063 C   0  0  0  0  0  0  0  0  0  0  0  0
  -19.6528   23.5384  -22.1071 C   0  0  0  0  0  0  0  0  0  0  0  0
  -19.3841   22.8070  -20.9738 C   0  0  0  0  0  0  0  0  0  0  0  0
  -19.1609   21.4608  -21.0282 C   0  0  0  0  0  0  0  0  0  0  0  0
  -18.9018   20.7819  -19.8998 F   0  0  0  0  0  0  0  0  0  0  0  0
  -19.5059   11.4942  -17.1769 O   0  0  0  0  0  0  0  0  0  0  0  0
  -19.9430   10.4518  -16.4281 C   0  0  0  0  0  0  0  0  0  0  0  0
  -21.3063   10.5662  -15.7883 C   0  0  0  0  0  0  0  0  0  0  0  0
  -21.5312    9.5323  -14.7273 C   0  0  0  0  0  0  0  0  0  0  0  0
  -21.1836    8.2005  -15.0959 N   0  0  0  0  0  0  0  0  0  0  0  0
  -22.3406    7.3736  -15.3726 C   0  0  0  0  0  0  0  0  0  0  0  0
  -21.9901    6.0694  -16.0051 C   0  0  0  0  0  0  0  0  0  0  0  0
  -20.7151    5.6337  -15.6413 O   0  0  0  0  0  0  0  0  0  0  0  0
  -20.3864    6.0551  -14.3536 C   0  0  0  0  0  0  0  0  0  0  0  0
  -20.2245    7.5573  -14.2561 C   0  0  0  0  0  0  0  0  0  0  0  0
 11 12  1  0  0  0
 12  1  1  0  0  0
  1  2  2  0  0  0
  2  3  1  0  0  0
  3  4  2  0  0  0
  4 13  1  0  0  0
 13 14  1  0  0  0
 14 15  2  0  0  0
 15 16  1  0  0  0
 16 17  2  0  0  0
 17 21  1  0  0  0
 21 22  1  0  0  0
 22 23  2  0  0  0
 22 25  1  0  0  0
 25 26  2  0  0  0
 26 27  1  0  0  0
 26 28  1  0  0  0
 28 29  2  0  0  0
 29 30  1  0  0  0
 30 31  2  0  0  0
 31 32  1  0  0  0
 17 18  1  0  0  0
 18 19  2  0  0  0
 19 20  1  0  0  0
  4  5  1  0  0  0
  5  6  2  0  0  0
  6  7  1  0  0  0
  7  8  2  0  0  0
  8  9  1  0  0  0
  9 10  2  0  0  0
 10 33  1  0  0  0
 33 34  1  0  0  0
 34 35  1  0  0  0
 35 36  1  0  0  0
 36 37  1  0  0  0
 37 38  1  0  0  0
 38 39  1  0  0  0
 39 40  1  0  0  0
 40 41  1  0  0  0
 41 42  1  0  0  0
 10  1  1  0  0  0
 42 37  1  0  0  0
  8  3  1  0  0  0
 19 14  1  0  0  0
 31 25  1  0  0  0
 21 24  1  0  0  0
M  END
> <minimizedAffinity>
-8.67438

> <CNNscore>
0.4495469332

> <CNNaffinity>
7.1921691895

> <CNN_VS>
3.2332177162

> <CNNaffinity_variance>
0.1309556663

$$$$
[H]c1nc2c([H])c(OC([H])([H])C([H])([H])C([H])([H])N3C([H])([H])C([H])([H])OC([H])([H])C3([H])[H])c(OC([H])([H])[H])c([H])c2c(Oc2c([H])c([H])c(N([H])C(=O)c3c(F)c([H])c([H])c([H])c3F)c([H])c2F)c1[H]


 42 46  0  0  0  0  0  0  0  0999 V2000
  -18.8316   11.5502  -18.4088 C   0  0  0  0  0  0  0  0  0  0  0  0
  -18.7194   12.3463  -19.5069 C   0  0  0  0  0  0  0  0  0  0  0  0
  -17.7639   12.1119  -20.4576 C   0  0  0  0  0  0  0  0  0  0  0  0
  -17.6707   12.9470  -21.5807 C   0  0  0  0  0  0  0  0  0  0  0  0
  -16.7011   12.6748  -22.5064 C   0  0  0  0  0  0  0  0  0  0  0  0
  -15.8442   11.5982  -22.3222 C   0  0  0  0  0  0  0  0  0  0  0  0
  -15.9407   10.8014  -21.2416 N   0  0  0  0  0  0  0  0  0  0  0  0
  -16.8998   11.0502  -20.3006 C   0  0  0  0  0  0  0  0  0  0  0  0
  -16.9822   10.2152  -19.1950 C   0  0  0  0  0  0  0  0  0  0  0  0
  -17.9525   10.4723  -18.2510 C   0  0  0  0  0  0  0  0  0  0  0  0
  -19.8795   13.0847  -16.8270 C   0  0  0  0  0  0  0  0  0  0  0  0
  -19.8200   11.8248  -17.4636 O   0  0  0  0  0  0  0  0  0  0  0  0
  -18.5341   13.9751  -21.7036 O   0  0  0  0  0  0  0  0  0  0  0  0
  -19.0183   14.8653  -20.8095 C   0  0  0  0  0  0  0  0  0  0  0  0
  -20.3419   14.8429  -20.4430 C   0  0  0  0  0  0  0  0  0  0  0  0
  -20.8258   15.7774  -19.5139 C   0  0  0  0  0  0  0  0  0  0  0  0
  -20.0324   16.7304  -18.9399 C   0  0  0  0  0  0  0  0  0  0  0  0
  -18.6799   16.7411  -19.3259 C   0  0  0  0  0  0  0  0  0  0  0  0
  -18.2091   15.8232  -20.2382 C   0  0  0  0  0  0  0  0  0  0  0  0
  -16.8740   15.9528  -20.5414 F   0  0  0  0  0  0  0  0  0  0  0  0
  -20.4570   17.6881  -17.9630 N   0  0  0  0  0  0  0  0  0  0  0  0
  -20.2130   17.5476  -16.6076 C   0  0  0  0  0  0  0  0  0  0  0  0
  -19.5597   16.5010  -16.2527 O   0  0  0  0  0  0  0  0  0  0  0  0
  -20.9750   18.5125  -18.3775 H   0  0  0  0  0  0  0  0  0  0  0  0
  -20.6011   18.4364  -15.5232 C   0  0  0  0  0  0  0  0  0  0  0  0
  -21.2129   18.0487  -14.3650 C   0  0  0  0  0  0  0  0  0  0  0  0
  -21.4964   16.7398  -14.1427 F   0  0  0  0  0  0  0  0  0  0  0  0
  -21.5802   18.9228  -13.3487 C   0  0  0  0  0  0  0  0  0  0  0  0
  -21.3257   20.2571  -13.4902 C   0  0  0  0  0  0  0  0  0  0  0  0
  -20.7105   20.6868  -14.6427 C   0  0  0  0  0  0  0  0  0  0  0  0
  -20.3561   19.8144  -15.6319 C   0  0  0  0  0  0  0  0  0  0  0  0
  -19.7573   20.2727  -16.7421 F   0  0  0  0  0  0  0  0  0  0  0  0
  -18.1525    9.7404  -17.1107 O   0  0  0  0  0  0  0  0  0  0  0  0
  -18.8206    8.5903  -16.8477 C   0  0  0  0  0  0  0  0  0  0  0  0
  -19.7489    8.5708  -15.6565 C   0  0  0  0  0  0  0  0  0  0  0  0
  -19.6244    9.8020  -14.8116 C   0  0  0  0  0  0  0  0  0  0  0  0
  -19.0784    9.5923  -13.5123 N   0  0  0  0  0  0  0  0  0  0  0  0
  -19.2700    8.2385  -13.0335 C   0  0  0  0  0  0  0  0  0  0  0  0
  -18.4847    7.9363  -11.8023 C   0  0  0  0  0  0  0  0  0  0  0  0
  -18.2598    9.0758  -11.0286 O   0  0  0  0  0  0  0  0  0  0  0  0
  -19.3114    9.9833  -11.1495 C   0  0  0  0  0  0  0  0  0  0  0  0
  -19.4069   10.5821  -12.5369 C   0  0  0  0  0  0  0  0  0  0  0  0
 11 12  1  0  0  0
 12  1  1  0  0  0
  1  2  2  0  0  0
  2  3  1  0  0  0
  3  4  2  0  0  0
  4 13  1  0  0  0
 13 14  1  0  0  0
 14 15  2  0  0  0
 15 16  1  0  0  0
 16 17  2  0  0  0
 17 21  1  0  0  0
 21 22  1  0  0  0
 22 23  2  0  0  0
 22 25  1  0  0  0
 25 26  2  0  0  0
 26 27  1  0  0  0
 26 28  1  0  0  0
 28 29  2  0  0  0
 29 30  1  0  0  0
 30 31  2  0  0  0
 31 32  1  0  0  0
 17 18  1  0  0  0
 18 19  2  0  0  0
 19 20  1  0  0  0
  4  5  1  0  0  0
  5  6  2  0  0  0
  6  7  1  0  0  0
  7  8  2  0  0  0
  8  9  1  0  0  0
  9 10  2  0  0  0
 10 33  1  0  0  0
 33 34  1  0  0  0
 34 35  1  0  0  0
 35 36  1  0  0  0
 36 37  1  0  0  0
 37 38  1  0  0  0
 38 39  1  0  0  0
 39 40  1  0  0  0
 40 41  1  0  0  0
 41 42  1  0  0  0
 10  1  1  0  0  0
 42 37  1  0  0  0
  8  3  1  0  0  0
 19 14  1  0  0  0
 31 25  1  0  0  0
 21 24  1  0  0  0
M  END
> <minimizedAffinity>
-8.00329

> <CNNscore>
0.4445055127

> <CNNaffinity>
7.2868223190

> <CNN_VS>
3.2390327454

> <CNNaffinity_variance>
0.0427783094

$$$$
[H]c1nc2c([H])c(OC([H])([H])C([H])([H])C([H])([H])N3C([H])([H])C([H])([H])OC([H])([H])C3([H])[H])c(OC([H])([H])[H])c([H])c2c(Oc2c([H])c([H])c(N([H])C(=O)c3c(F)c([H])c([H])c([H])c3F)c([H])c2F)c1[H]


 42 46  0  0  0  0  0  0  0  0999 V2000
  -20.0156   11.1529  -16.1706 C   0  0  0  0  0  0  0  0  0  0  0  0
  -19.4996   12.0889  -17.0130 C   0  0  0  0  0  0  0  0  0  0  0  0
  -18.6533   11.7382  -18.0291 C   0  0  0  0  0  0  0  0  0  0  0  0
  -18.1366   12.7227  -18.8843 C   0  0  0  0  0  0  0  0  0  0  0  0
  -17.2950   12.3267  -19.8873 C   0  0  0  0  0  0  0  0  0  0  0  0
  -16.9741   10.9845  -20.0387 C   0  0  0  0  0  0  0  0  0  0  0  0
  -17.4747   10.0460  -19.2138 N   0  0  0  0  0  0  0  0  0  0  0  0
  -18.3176   10.4132  -18.2029 C   0  0  0  0  0  0  0  0  0  0  0  0
  -18.8231    9.4289  -17.3650 C   0  0  0  0  0  0  0  0  0  0  0  0
  -19.6730    9.8073  -16.3485 C   0  0  0  0  0  0  0  0  0  0  0  0
  -21.6316   12.7409  -15.2641 C   0  0  0  0  0  0  0  0  0  0  0  0
  -20.8748   11.5536  -15.1473 O   0  0  0  0  0  0  0  0  0  0  0  0
  -18.4881   14.0092  -18.6870 O   0  0  0  0  0  0  0  0  0  0  0  0
  -19.1143   14.9100  -19.4762 C   0  0  0  0  0  0  0  0  0  0  0  0
  -20.4279   15.2446  -19.2540 C   0  0  0  0  0  0  0  0  0  0  0  0
  -21.0609   16.1813  -20.0861 C   0  0  0  0  0  0  0  0  0  0  0  0
  -20.4259   16.7937  -21.1296 C   0  0  0  0  0  0  0  0  0  0  0  0
  -19.0816   16.4401  -21.3448 C   0  0  0  0  0  0  0  0  0  0  0  0
  -18.4643   15.5203  -20.5268 C   0  0  0  0  0  0  0  0  0  0  0  0
  -17.1562   15.2515  -20.8551 F   0  0  0  0  0  0  0  0  0  0  0  0
  -21.0046   17.7801  -21.9922 N   0  0  0  0  0  0  0  0  0  0  0  0
  -22.3547   17.8240  -22.2950 C   0  0  0  0  0  0  0  0  0  0  0  0
  -23.0906   16.9276  -21.7445 O   0  0  0  0  0  0  0  0  0  0  0  0
  -20.3006   18.4711  -22.3752 H   0  0  0  0  0  0  0  0  0  0  0  0
  -23.0560   18.7596  -23.1607 C   0  0  0  0  0  0  0  0  0  0  0  0
  -23.6278   18.4477  -24.3615 C   0  0  0  0  0  0  0  0  0  0  0  0
  -23.5830   17.1757  -24.8340 F   0  0  0  0  0  0  0  0  0  0  0  0
  -24.2850   19.3657  -25.1722 C   0  0  0  0  0  0  0  0  0  0  0  0
  -24.3800   20.6667  -24.7679 C   0  0  0  0  0  0  0  0  0  0  0  0
  -23.8169   21.0201  -23.5639 C   0  0  0  0  0  0  0  0  0  0  0  0
  -23.1745   20.1053  -22.7794 C   0  0  0  0  0  0  0  0  0  0  0  0
  -22.6377   20.4894  -21.6107 F   0  0  0  0  0  0  0  0  0  0  0  0
  -20.2456    8.9525  -15.4444 O   0  0  0  0  0  0  0  0  0  0  0  0
  -20.0685    8.7471  -14.1160 C   0  0  0  0  0  0  0  0  0  0  0  0
  -20.6800    7.5078  -13.5066 C   0  0  0  0  0  0  0  0  0  0  0  0
  -19.8123    6.2977  -13.6740 C   0  0  0  0  0  0  0  0  0  0  0  0
  -20.1438    5.4629  -14.7801 N   0  0  0  0  0  0  0  0  0  0  0  0
  -21.5159    5.6252  -15.2157 C   0  0  0  0  0  0  0  0  0  0  0  0
  -21.7986    4.9599  -16.5201 C   0  0  0  0  0  0  0  0  0  0  0  0
  -20.9749    3.8542  -16.7364 O   0  0  0  0  0  0  0  0  0  0  0  0
  -20.6393    3.2324  -15.5344 C   0  0  0  0  0  0  0  0  0  0  0  0
  -19.7533    4.0946  -14.6604 C   0  0  0  0  0  0  0  0  0  0  0  0
 11 12  1  0  0  0
 12  1  1  0  0  0
  1  2  2  0  0  0
  2  3  1  0  0  0
  3  4  2  0  0  0
  4 13  1  0  0  0
 13 14  1  0  0  0
 14 15  2  0  0  0
 15 16  1  0  0  0
 16 17  2  0  0  0
 17 21  1  0  0  0
 21 22  1  0  0  0
 22 23  2  0  0  0
 22 25  1  0  0  0
 25 26  2  0  0  0
 26 27  1  0  0  0
 26 28  1  0  0  0
 28 29  2  0  0  0
 29 30  1  0  0  0
 30 31  2  0  0  0
 31 32  1  0  0  0
 17 18  1  0  0  0
 18 19  2  0  0  0
 19 20  1  0  0  0
  4  5  1  0  0  0
  5  6  2  0  0  0
  6  7  1  0  0  0
  7  8  2  0  0  0
  8  9  1  0  0  0
  9 10  2  0  0  0
 10 33  1  0  0  0
 33 34  1  0  0  0
 34 35  1  0  0  0
 35 36  1  0  0  0
 36 37  1  0  0  0
 37 38  1  0  0  0
 38 39  1  0  0  0
 39 40  1  0  0  0
 40 41  1  0  0  0
 41 42  1  0  0  0
 10  1  1  0  0  0
 42 37  1  0  0  0
  8  3  1  0  0  0
 19 14  1  0  0  0
 31 25  1  0  0  0
 21 24  1  0  0  0
M  END
> <minimizedAffinity>
-8.07652

> <CNNscore>
0.3688237965

> <CNNaffinity>
6.9031639099

> <CNN_VS>
2.5460510254

> <CNNaffinity_variance>
0.0391627438

$$$$
[H]c1nc2c([H])c(OC([H])([H])C([H])([H])C([H])([H])N3C([H])([H])C([H])([H])OC([H])([H])C3([H])[H])c(OC([H])([H])[H])c([H])c2c(Oc2c([H])c([H])c(N([H])C(=O)c3c(F)c([H])c([H])c([H])c3F)c([H])c2F)c1[H]


 42 46  0  0  0  0  0  0  0  0999 V2000
  -19.9767   10.9051  -16.0506 C   0  0  0  0  0  0  0  0  0  0  0  0
  -19.5189   11.9124  -16.8431 C   0  0  0  0  0  0  0  0  0  0  0  0
  -18.6791   11.6617  -17.8936 C   0  0  0  0  0  0  0  0  0  0  0  0
  -18.2229   12.7181  -18.6957 C   0  0  0  0  0  0  0  0  0  0  0  0
  -17.3855   12.4212  -19.7359 C   0  0  0  0  0  0  0  0  0  0  0  0
  -17.0100   11.1061  -19.9749 C   0  0  0  0  0  0  0  0  0  0  0  0
  -17.4527   10.0982  -19.2004 N   0  0  0  0  0  0  0  0  0  0  0  0
  -18.2900   10.3658  -18.1541 C   0  0  0  0  0  0  0  0  0  0  0  0
  -18.7353    9.3112  -17.3694 C   0  0  0  0  0  0  0  0  0  0  0  0
  -19.5799    9.5893  -16.3167 C   0  0  0  0  0  0  0  0  0  0  0  0
  -21.8747   12.1444  -15.1468 C   0  0  0  0  0  0  0  0  0  0  0  0
  -20.8313   11.2047  -14.9897 O   0  0  0  0  0  0  0  0  0  0  0  0
  -18.6256   13.9734  -18.4138 O   0  0  0  0  0  0  0  0  0  0  0  0
  -19.2224   14.9251  -19.1650 C   0  0  0  0  0  0  0  0  0  0  0  0
  -18.5740   16.1013  -19.4529 C   0  0  0  0  0  0  0  0  0  0  0  0
  -19.2118   17.0782  -20.2335 C   0  0  0  0  0  0  0  0  0  0  0  0
  -20.4726   16.9185  -20.7354 C   0  0  0  0  0  0  0  0  0  0  0  0
  -21.1239   15.7094  -20.4312 C   0  0  0  0  0  0  0  0  0  0  0  0
  -20.4951   14.7538  -19.6646 C   0  0  0  0  0  0  0  0  0  0  0  0
  -21.2468   13.6269  -19.4273 F   0  0  0  0  0  0  0  0  0  0  0  0
  -21.1636   17.8606  -21.5641 N   0  0  0  0  0  0  0  0  0  0  0  0
  -20.8959   18.0235  -22.9125 C   0  0  0  0  0  0  0  0  0  0  0  0
  -19.9867   17.2643  -23.4077 O   0  0  0  0  0  0  0  0  0  0  0  0
  -21.8977   18.4197  -21.0460 H   0  0  0  0  0  0  0  0  0  0  0  0
  -21.5139   18.9479  -23.8506 C   0  0  0  0  0  0  0  0  0  0  0  0
  -21.0479   20.1961  -24.1521 C   0  0  0  0  0  0  0  0  0  0  0  0
  -19.9134   20.6645  -23.5720 F   0  0  0  0  0  0  0  0  0  0  0  0
  -21.6651   21.0617  -25.0476 C   0  0  0  0  0  0  0  0  0  0  0  0
  -22.8091   20.6656  -25.6794 C   0  0  0  0  0  0  0  0  0  0  0  0
  -23.3097   19.4150  -25.4024 C   0  0  0  0  0  0  0  0  0  0  0  0
  -22.6908   18.5767  -24.5196 C   0  0  0  0  0  0  0  0  0  0  0  0
  -23.2106   17.3636  -24.2759 F   0  0  0  0  0  0  0  0  0  0  0  0
  -20.0965    8.6568  -15.4567 O   0  0  0  0  0  0  0  0  0  0  0  0
  -20.3093    7.3211  -15.5500 C   0  0  0  0  0  0  0  0  0  0  0  0
  -21.7377    6.8310  -15.5211 C   0  0  0  0  0  0  0  0  0  0  0  0
  -22.3951    7.0562  -14.1936 C   0  0  0  0  0  0  0  0  0  0  0  0
  -23.5428    7.9002  -14.2214 N   0  0  0  0  0  0  0  0  0  0  0  0
  -23.5623    8.7853  -15.3682 C   0  0  0  0  0  0  0  0  0  0  0  0
  -24.8689    9.4811  -15.5485 C   0  0  0  0  0  0  0  0  0  0  0  0
  -25.5409    9.6607  -14.3385 O   0  0  0  0  0  0  0  0  0  0  0  0
  -24.6445    9.8225  -13.2829 C   0  0  0  0  0  0  0  0  0  0  0  0
  -23.8501    8.5659  -12.9961 C   0  0  0  0  0  0  0  0  0  0  0  0
 11 12  1  0  0  0
 12  1  1  0  0  0
  1  2  2  0  0  0
  2  3  1  0  0  0
  3  4  2  0  0  0
  4 13  1  0  0  0
 13 14  1  0  0  0
 14 15  2  0  0  0
 15 16  1  0  0  0
 16 17  2  0  0  0
 17 21  1  0  0  0
 21 22  1  0  0  0
 22 23  2  0  0  0
 22 25  1  0  0  0
 25 26  2  0  0  0
 26 27  1  0  0  0
 26 28  1  0  0  0
 28 29  2  0  0  0
 29 30  1  0  0  0
 30 31  2  0  0  0
 31 32  1  0  0  0
 17 18  1  0  0  0
 18 19  2  0  0  0
 19 20  1  0  0  0
  4  5  1  0  0  0
  5  6  2  0  0  0
  6  7  1  0  0  0
  7  8  2  0  0  0
  8  9  1  0  0  0
  9 10  2  0  0  0
 10 33  1  0  0  0
 33 34  1  0  0  0
 34 35  1  0  0  0
 35 36  1  0  0  0
 36 37  1  0  0  0
 37 38  1  0  0  0
 38 39  1  0  0  0
 39 40  1  0  0  0
 40 41  1  0  0  0
 41 42  1  0  0  0
 10  1  1  0  0  0
 42 37  1  0  0  0
  8  3  1  0  0  0
 19 14  1  0  0  0
 31 25  1  0  0  0
 21 24  1  0  0  0
M  END
> <minimizedAffinity>
-7.63357

> <CNNscore>
0.2799108624

> <CNNaffinity>
6.7713022232

> <CNN_VS>
1.8953610659

> <CNNaffinity_variance>
0.0624915063

$$$$
[H]c1nc2c([H])c(OC([H])([H])C([H])([H])C([H])([H])N3C([H])([H])C([H])([H])OC([H])([H])C3([H])[H])c(OC([H])([H])[H])c([H])c2c(Oc2c([H])c([H])c(N([H])C(=O)c3c(F)c([H])c([H])c([H])c3F)c([H])c2F)c1[H]


 42 46  0  0  0  0  0  0  0  0999 V2000
  -20.0855   10.6684  -16.0791 C   0  0  0  0  0  0  0  0  0  0  0  0
  -19.6561   11.7365  -16.8051 C   0  0  0  0  0  0  0  0  0  0  0  0
  -18.7609   11.5841  -17.8284 C   0  0  0  0  0  0  0  0  0  0  0  0
  -18.3356   12.7015  -18.5619 C   0  0  0  0  0  0  0  0  0  0  0  0
  -17.4405   12.5024  -19.5770 C   0  0  0  0  0  0  0  0  0  0  0  0
  -16.9785   11.2237  -19.8581 C   0  0  0  0  0  0  0  0  0  0  0  0
  -17.3921   10.1567  -19.1493 N   0  0  0  0  0  0  0  0  0  0  0  0
  -18.2856   10.3264  -18.1295 C   0  0  0  0  0  0  0  0  0  0  0  0
  -18.6994    9.2121  -17.4128 C   0  0  0  0  0  0  0  0  0  0  0  0
  -19.6011    9.3915  -16.3864 C   0  0  0  0  0  0  0  0  0  0  0  0
  -20.6493   11.6376  -13.9117 C   0  0  0  0  0  0  0  0  0  0  0  0
  -20.9988   10.8683  -15.0440 O   0  0  0  0  0  0  0  0  0  0  0  0
  -18.8230   13.9171  -18.2418 O   0  0  0  0  0  0  0  0  0  0  0  0
  -19.3269   14.9197  -18.9949 C   0  0  0  0  0  0  0  0  0  0  0  0
  -18.6415   16.1013  -19.1400 C   0  0  0  0  0  0  0  0  0  0  0  0
  -19.1827   17.1314  -19.9251 C   0  0  0  0  0  0  0  0  0  0  0  0
  -20.3826   17.0196  -20.5691 C   0  0  0  0  0  0  0  0  0  0  0  0
  -21.0728   15.8043  -20.4102 C   0  0  0  0  0  0  0  0  0  0  0  0
  -20.5389   14.7964  -19.6386 C   0  0  0  0  0  0  0  0  0  0  0  0
  -21.3210   13.6685  -19.5519 F   0  0  0  0  0  0  0  0  0  0  0  0
  -20.9717   18.0186  -21.4099 N   0  0  0  0  0  0  0  0  0  0  0  0
  -20.6833   18.1408  -22.7583 C   0  0  0  0  0  0  0  0  0  0  0  0
  -19.8533   17.2892  -23.2420 O   0  0  0  0  0  0  0  0  0  0  0  0
  -21.6478   18.6537  -20.9006 H   0  0  0  0  0  0  0  0  0  0  0  0
  -21.2011   19.1137  -23.7080 C   0  0  0  0  0  0  0  0  0  0  0  0
  -22.3404   18.9665  -24.4472 C   0  0  0  0  0  0  0  0  0  0  0  0
  -23.1019   17.8497  -24.3208 F   0  0  0  0  0  0  0  0  0  0  0  0
  -22.8068   19.9108  -25.3543 C   0  0  0  0  0  0  0  0  0  0  0  0
  -22.1024   21.0663  -25.5377 C   0  0  0  0  0  0  0  0  0  0  0  0
  -20.9495   21.2517  -24.8112 C   0  0  0  0  0  0  0  0  0  0  0  0
  -20.5051   20.3135  -23.9238 C   0  0  0  0  0  0  0  0  0  0  0  0
  -19.3751   20.5314  -23.2334 F   0  0  0  0  0  0  0  0  0  0  0  0
  -20.0963    8.3914  -15.5923 O   0  0  0  0  0  0  0  0  0  0  0  0
  -19.5827    7.6861  -14.5545 C   0  0  0  0  0  0  0  0  0  0  0  0
  -19.9267    8.1392  -13.1553 C   0  0  0  0  0  0  0  0  0  0  0  0
  -18.9020    7.7170  -12.1470 C   0  0  0  0  0  0  0  0  0  0  0  0
  -18.4093    8.7602  -11.3108 N   0  0  0  0  0  0  0  0  0  0  0  0
  -17.5847    8.2690  -10.2256 C   0  0  0  0  0  0  0  0  0  0  0  0
  -16.8571    9.3537   -9.5060 C   0  0  0  0  0  0  0  0  0  0  0  0
  -17.5410   10.5693   -9.5561 O   0  0  0  0  0  0  0  0  0  0  0  0
  -18.9204   10.3707   -9.5976 C   0  0  0  0  0  0  0  0  0  0  0  0
  -19.3765    9.7215  -10.8872 C   0  0  0  0  0  0  0  0  0  0  0  0
 11 12  1  0  0  0
 12  1  1  0  0  0
  1  2  2  0  0  0
  2  3  1  0  0  0
  3  4  2  0  0  0
  4 13  1  0  0  0
 13 14  1  0  0  0
 14 15  2  0  0  0
 15 16  1  0  0  0
 16 17  2  0  0  0
 17 21  1  0  0  0
 21 22  1  0  0  0
 22 23  2  0  0  0
 22 25  1  0  0  0
 25 26  2  0  0  0
 26 27  1  0  0  0
 26 28  1  0  0  0
 28 29  2  0  0  0
 29 30  1  0  0  0
 30 31  2  0  0  0
 31 32  1  0  0  0
 17 18  1  0  0  0
 18 19  2  0  0  0
 19 20  1  0  0  0
  4  5  1  0  0  0
  5  6  2  0  0  0
  6  7  1  0  0  0
  7  8  2  0  0  0
  8  9  1  0  0  0
  9 10  2  0  0  0
 10 33  1  0  0  0
 33 34  1  0  0  0
 34 35  1  0  0  0
 35 36  1  0  0  0
 36 37  1  0  0  0
 37 38  1  0  0  0
 38 39  1  0  0  0
 39 40  1  0  0  0
 40 41  1  0  0  0
 41 42  1  0  0  0
 10  1  1  0  0  0
 42 37  1  0  0  0
  8  3  1  0  0  0
 19 14  1  0  0  0
 31 25  1  0  0  0
 21 24  1  0  0  0
M  END
> <minimizedAffinity>
-8.36861

> <CNNscore>
0.2658582628

> <CNNaffinity>
6.7150564194

> <CNN_VS>
1.7852532864

> <CNNaffinity_variance>
0.0503529534

$$$$
[H]c1nc2c([H])c(OC([H])([H])C([H])([H])C([H])([H])N3C([H])([H])C([H])([H])OC([H])([H])C3([H])[H])c(OC([H])([H])[H])c([H])c2c(Oc2c([H])c([H])c(N([H])C(=O)c3c(F)c([H])c([H])c([H])c3F)c([H])c2F)c1[H]


 42 46  0  0  0  0  0  0  0  0999 V2000
  -20.5195   13.3816  -16.4557 C   0  0  0  0  0  0  0  0  0  0  0  0
  -19.5201   12.6743  -17.0500 C   0  0  0  0  0  0  0  0  0  0  0  0
  -19.4729   11.3094  -16.9693 C   0  0  0  0  0  0  0  0  0  0  0  0
  -18.4325   10.6045  -17.5923 C   0  0  0  0  0  0  0  0  0  0  0  0
  -18.4257    9.2406  -17.4866 C   0  0  0  0  0  0  0  0  0  0  0  0
  -19.4287    8.5913  -16.7796 C   0  0  0  0  0  0  0  0  0  0  0  0
  -20.4238    9.2755  -16.1850 N   0  0  0  0  0  0  0  0  0  0  0  0
  -20.4554   10.6387  -16.2740 C   0  0  0  0  0  0  0  0  0  0  0  0
  -21.4913   11.3239  -15.6545 C   0  0  0  0  0  0  0  0  0  0  0  0
  -21.5164   12.6983  -15.7495 C   0  0  0  0  0  0  0  0  0  0  0  0
  -19.3215   15.4962  -16.6756 C   0  0  0  0  0  0  0  0  0  0  0  0
  -20.5295   14.7723  -16.5625 O   0  0  0  0  0  0  0  0  0  0  0  0
  -17.4893   11.2926  -18.2665 O   0  0  0  0  0  0  0  0  0  0  0  0
  -17.4956   11.8924  -19.4775 C   0  0  0  0  0  0  0  0  0  0  0  0
  -17.7121   13.2441  -19.5902 C   0  0  0  0  0  0  0  0  0  0  0  0
  -17.7165   13.8480  -20.8574 C   0  0  0  0  0  0  0  0  0  0  0  0
  -17.5111   13.1476  -22.0126 C   0  0  0  0  0  0  0  0  0  0  0  0
  -17.2916   11.7645  -21.8808 C   0  0  0  0  0  0  0  0  0  0  0  0
  -17.2888   11.1756  -20.6360 C   0  0  0  0  0  0  0  0  0  0  0  0
  -17.0796    9.8164  -20.6479 F   0  0  0  0  0  0  0  0  0  0  0  0
  -17.4701   13.7091  -23.3297 N   0  0  0  0  0  0  0  0  0  0  0  0
  -16.3509   13.6543  -24.1427 C   0  0  0  0  0  0  0  0  0  0  0  0
  -15.3262   13.0502  -23.6599 O   0  0  0  0  0  0  0  0  0  0  0  0
  -18.3773   14.1697  -23.6206 H   0  0  0  0  0  0  0  0  0  0  0  0
  -16.1810   14.1942  -25.4829 C   0  0  0  0  0  0  0  0  0  0  0  0
  -16.8673   13.7862  -26.5914 C   0  0  0  0  0  0  0  0  0  0  0  0
  -17.8066   12.8106  -26.4973 F   0  0  0  0  0  0  0  0  0  0  0  0
  -16.6775   14.3154  -27.8625 C   0  0  0  0  0  0  0  0  0  0  0  0
  -15.7544   15.3055  -28.0434 C   0  0  0  0  0  0  0  0  0  0  0  0
  -15.0431   15.7438  -26.9510 C   0  0  0  0  0  0  0  0  0  0  0  0
  -15.2419   15.2129  -25.7085 C   0  0  0  0  0  0  0  0  0  0  0  0
  -14.5277   15.6676  -24.6672 F   0  0  0  0  0  0  0  0  0  0  0  0
  -22.4698   13.5069  -15.1899 O   0  0  0  0  0  0  0  0  0  0  0  0
  -22.7195   13.9108  -13.9199 C   0  0  0  0  0  0  0  0  0  0  0  0
  -23.8652   13.2567  -13.1846 C   0  0  0  0  0  0  0  0  0  0  0  0
  -24.9704   12.8337  -14.1037 C   0  0  0  0  0  0  0  0  0  0  0  0
  -25.1583   11.4259  -14.2175 N   0  0  0  0  0  0  0  0  0  0  0  0
  -26.5509   11.0357  -14.1323 C   0  0  0  0  0  0  0  0  0  0  0  0
  -26.7837    9.6112  -14.5071 C   0  0  0  0  0  0  0  0  0  0  0  0
  -25.6706    8.8101  -14.2479 O   0  0  0  0  0  0  0  0  0  0  0  0
  -24.9560    9.2804  -13.1470 C   0  0  0  0  0  0  0  0  0  0  0  0
  -24.3015   10.6207  -13.4071 C   0  0  0  0  0  0  0  0  0  0  0  0
 11 12  1  0  0  0
 12  1  1  0  0  0
  1  2  2  0  0  0
  2  3  1  0  0  0
  3  4  2  0  0  0
  4 13  1  0  0  0
 13 14  1  0  0  0
 14 15  2  0  0  0
 15 16  1  0  0  0
 16 17  2  0  0  0
 17 21  1  0  0  0
 21 22  1  0  0  0
 22 23  2  0  0  0
 22 25  1  0  0  0
 25 26  2  0  0  0
 26 27  1  0  0  0
 26 28  1  0  0  0
 28 29  2  0  0  0
 29 30  1  0  0  0
 30 31  2  0  0  0
 31 32  1  0  0  0
 17 18  1  0  0  0
 18 19  2  0  0  0
 19 20  1  0  0  0
  4  5  1  0  0  0
  5  6  2  0  0  0
  6  7  1  0  0  0
  7  8  2  0  0  0
  8  9  1  0  0  0
  9 10  2  0  0  0
 10 33  1  0  0  0
 33 34  1  0  0  0
 34 35  1  0  0  0
 35 36  1  0  0  0
 36 37  1  0  0  0
 37 38  1  0  0  0
 38 39  1  0  0  0
 39 40  1  0  0  0
 40 41  1  0  0  0
 41 42  1  0  0  0
 10  1  1  0  0  0
 42 37  1  0  0  0
  8  3  1  0  0  0
 19 14  1  0  0  0
 31 25  1  0  0  0
 21 24  1  0  0  0
M  END
> <minimizedAffinity>
-8.88610

> <CNNscore>
0.2385315597

> <CNNaffinity>
6.8286209106

> <CNN_VS>
1.6288416386

> <CNNaffinity_variance>
0.1483619511

$$$$
[H]c1nc2c([H])c(OC([H])([H])[H])c(OC([H])([H])[H])c([H])c2c(Oc2c([H])c([H])c(N([H])C(=O)N([H])c3c(F)c([H])c([H])c([H])c3F)c([H])c2F)c1[H]


 36 39  0  0  0  0  0  0  0  0999 V2000
  -19.2298   12.1790  -18.4586 C   0  0  0  0  0  0  0  0  0  0  0  0
  -19.0496   10.8961  -17.9201 C   0  0  0  0  0  0  0  0  0  0  0  0
  -19.7310   10.5455  -16.7890 C   0  0  0  0  0  0  0  0  0  0  0  0
  -20.6180   11.3966  -16.1126 C   0  0  0  0  0  0  0  0  0  0  0  0
  -20.7807   12.6395  -16.6524 C   0  0  0  0  0  0  0  0  0  0  0  0
  -20.0932   13.0282  -17.8156 C   0  0  0  0  0  0  0  0  0  0  0  0
  -20.3073   14.2720  -18.3408 F   0  0  0  0  0  0  0  0  0  0  0  0
  -21.2630   10.9001  -14.9810 N   0  0  0  0  0  0  0  0  0  0  0  0
  -20.6565   10.8175  -13.7116 C   0  0  0  0  0  0  0  0  0  0  0  0
  -19.4900   11.1692  -13.4697 O   0  0  0  0  0  0  0  0  0  0  0  0
  -21.4238   10.2897  -12.5936 N   0  0  0  0  0  0  0  0  0  0  0  0
  -22.2797   10.5700  -15.0992 H   0  0  0  0  0  0  0  0  0  0  0  0
  -22.3960    9.9996  -12.8081 H   0  0  0  0  0  0  0  0  0  0  0  0
  -20.8409   10.1942  -11.3040 C   0  0  0  0  0  0  0  0  0  0  0  0
  -20.8487   11.3245  -10.4889 C   0  0  0  0  0  0  0  0  0  0  0  0
  -21.3940   12.5002  -10.8942 F   0  0  0  0  0  0  0  0  0  0  0  0
  -20.2912   11.2710   -9.2276 C   0  0  0  0  0  0  0  0  0  0  0  0
  -19.7314   10.0653   -8.8108 C   0  0  0  0  0  0  0  0  0  0  0  0
  -19.7176    8.9414   -9.6072 C   0  0  0  0  0  0  0  0  0  0  0  0
  -20.2782    9.0049  -10.8683 C   0  0  0  0  0  0  0  0  0  0  0  0
  -20.2678    7.8928  -11.6638 F   0  0  0  0  0  0  0  0  0  0  0  0
  -18.5557   12.5552  -19.5992 O   0  0  0  0  0  0  0  0  0  0  0  0
  -15.7732   13.2079  -23.6826 C   0  0  0  0  0  0  0  0  0  0  0  0
  -15.3620   12.0324  -23.0920 C   0  0  0  0  0  0  0  0  0  0  0  0
  -15.9374   11.5441  -21.9173 C   0  0  0  0  0  0  0  0  0  0  0  0
  -15.5003   10.3899  -21.3791 N   0  0  0  0  0  0  0  0  0  0  0  0
  -16.0615    9.9283  -20.2477 C   0  0  0  0  0  0  0  0  0  0  0  0
  -17.0937   10.6274  -19.6182 C   0  0  0  0  0  0  0  0  0  0  0  0
  -17.5594   11.7948  -20.1319 C   0  0  0  0  0  0  0  0  0  0  0  0
  -16.9498   12.2457  -21.3144 C   0  0  0  0  0  0  0  0  0  0  0  0
  -17.3646   13.4283  -21.9069 C   0  0  0  0  0  0  0  0  0  0  0  0
  -16.7917   13.9042  -23.0670 C   0  0  0  0  0  0  0  0  0  0  0  0
  -14.1004   14.5661  -24.7691 C   0  0  0  0  0  0  0  0  0  0  0  0
  -15.1787   13.6648  -24.8517 O   0  0  0  0  0  0  0  0  0  0  0  0
  -17.2213   15.0850  -23.6395 O   0  0  0  0  0  0  0  0  0  0  0  0
  -18.4350   15.1449  -24.3723 C   0  0  0  0  0  0  0  0  0  0  0  0
 33 34  1  0  0  0
 34 23  1  0  0  0
 23 24  2  0  0  0
 24 25  1  0  0  0
 25 26  2  0  0  0
 26 27  1  0  0  0
 27 28  2  0  0  0
 28 29  1  0  0  0
 29 22  1  0  0  0
 22  1  1  0  0  0
  1  2  2  0  0  0
  2  3  1  0  0  0
  3  4  2  0  0  0
  4  8  1  0  0  0
  8  9  1  0  0  0
  9 10  2  0  0  0
  9 11  1  0  0  0
 11 14  1  0  0  0
 14 15  2  0  0  0
 15 16  1  0  0  0
 15 17  1  0  0  0
 17 18  2  0  0  0
 18 19  1  0  0  0
 19 20  2  0  0  0
 20 21  1  0  0  0
  4  5  1  0  0  0
  5  6  2  0  0  0
  6  7  1  0  0  0
 29 30  2  0  0  0
 30 31  1  0  0  0
 31 32  2  0  0  0
 32 35  1  0  0  0
 35 36  1  0  0  0
 32 23  1  0  0  0
 30 25  1  0  0  0
  6  1  1  0  0  0
 20 14  1  0  0  0
  8 12  1  0  0  0
 11 13  1  0  0  0
M  END
> <minimizedAffinity>
-8.38328

> <CNNscore>
0.5023389459

> <CNNaffinity>
6.9475221634

> <CNN_VS>
3.4900109768

> <CNNaffinity_variance>
0.1933304667

$$$$
[H]c1nc2c([H])c(OC([H])([H])[H])c(OC([H])([H])[H])c([H])c2c(Oc2c([H])c([H])c(N([H])C(=O)N([H])c3c(F)c([H])c([H])c([H])c3F)c([H])c2F)c1[H]


 36 39  0  0  0  0  0  0  0  0999 V2000
  -18.3089   12.4926  -20.4238 C   0  0  0  0  0  0  0  0  0  0  0  0
  -19.0448   12.4883  -19.2294 C   0  0  0  0  0  0  0  0  0  0  0  0
  -18.8554   11.4751  -18.3326 C   0  0  0  0  0  0  0  0  0  0  0  0
  -17.9568   10.4150  -18.5257 C   0  0  0  0  0  0  0  0  0  0  0  0
  -17.2496   10.4376  -19.6927 C   0  0  0  0  0  0  0  0  0  0  0  0
  -17.4231   11.4672  -20.6342 C   0  0  0  0  0  0  0  0  0  0  0  0
  -16.6731   11.4686  -21.7771 F   0  0  0  0  0  0  0  0  0  0  0  0
  -17.8488    9.4596  -17.5164 N   0  0  0  0  0  0  0  0  0  0  0  0
  -18.8970    9.1401  -16.6304 C   0  0  0  0  0  0  0  0  0  0  0  0
  -20.0173    9.6763  -16.6501 O   0  0  0  0  0  0  0  0  0  0  0  0
  -18.6802    8.1193  -15.6164 N   0  0  0  0  0  0  0  0  0  0  0  0
  -16.9091    8.9446  -17.4249 H   0  0  0  0  0  0  0  0  0  0  0  0
  -17.7414    7.6791  -15.6100 H   0  0  0  0  0  0  0  0  0  0  0  0
  -19.7162    7.7758  -14.7103 C   0  0  0  0  0  0  0  0  0  0  0  0
  -19.6503    8.2736  -13.4104 C   0  0  0  0  0  0  0  0  0  0  0  0
  -18.6314    9.0695  -12.9954 F   0  0  0  0  0  0  0  0  0  0  0  0
  -20.6393    7.9616  -12.4998 C   0  0  0  0  0  0  0  0  0  0  0  0
  -21.6851    7.1450  -12.9245 C   0  0  0  0  0  0  0  0  0  0  0  0
  -21.7612    6.6469  -14.2066 C   0  0  0  0  0  0  0  0  0  0  0  0
  -20.7664    6.9650  -15.1109 C   0  0  0  0  0  0  0  0  0  0  0  0
  -20.8360    6.4738  -16.3851 F   0  0  0  0  0  0  0  0  0  0  0  0
  -18.4806   13.5040  -21.3427 O   0  0  0  0  0  0  0  0  0  0  0  0
  -15.4891   15.0239  -25.0281 C   0  0  0  0  0  0  0  0  0  0  0  0
  -15.3269   15.9053  -23.9809 C   0  0  0  0  0  0  0  0  0  0  0  0
  -16.0222   15.7732  -22.7774 C   0  0  0  0  0  0  0  0  0  0  0  0
  -15.8287   16.6608  -21.7836 N   0  0  0  0  0  0  0  0  0  0  0  0
  -16.5031   16.5242  -20.6283 C   0  0  0  0  0  0  0  0  0  0  0  0
  -17.4042   15.4741  -20.4400 C   0  0  0  0  0  0  0  0  0  0  0  0
  -17.6251   14.5607  -21.4202 C   0  0  0  0  0  0  0  0  0  0  0  0
  -16.9029   14.7351  -22.6123 C   0  0  0  0  0  0  0  0  0  0  0  0
  -17.0674   13.8476  -23.6646 C   0  0  0  0  0  0  0  0  0  0  0  0
  -16.3773   13.9845  -24.8501 C   0  0  0  0  0  0  0  0  0  0  0  0
  -15.4581   15.6277  -27.3644 C   0  0  0  0  0  0  0  0  0  0  0  0
  -14.7811   15.1851  -26.2122 O   0  0  0  0  0  0  0  0  0  0  0  0
  -16.5572   13.0881  -25.8849 O   0  0  0  0  0  0  0  0  0  0  0  0
  -17.7505   12.3285  -25.9971 C   0  0  0  0  0  0  0  0  0  0  0  0
 33 34  1  0  0  0
 34 23  1  0  0  0
 23 24  2  0  0  0
 24 25  1  0  0  0
 25 26  2  0  0  0
 26 27  1  0  0  0
 27 28  2  0  0  0
 28 29  1  0  0  0
 29 22  1  0  0  0
 22  1  1  0  0  0
  1  2  2  0  0  0
  2  3  1  0  0  0
  3  4  2  0  0  0
  4  8  1  0  0  0
  8  9  1  0  0  0
  9 10  2  0  0  0
  9 11  1  0  0  0
 11 14  1  0  0  0
 14 15  2  0  0  0
 15 16  1  0  0  0
 15 17  1  0  0  0
 17 18  2  0  0  0
 18 19  1  0  0  0
 19 20  2  0  0  0
 20 21  1  0  0  0
  4  5  1  0  0  0
  5  6  2  0  0  0
  6  7  1  0  0  0
 29 30  2  0  0  0
 30 31  1  0  0  0
 31 32  2  0  0  0
 32 35  1  0  0  0
 35 36  1  0  0  0
 32 23  1  0  0  0
 30 25  1  0  0  0
  6  1  1  0  0  0
 20 14  1  0  0  0
  8 12  1  0  0  0
 11 13  1  0  0  0
M  END
> <minimizedAffinity>
-9.78073

> <CNNscore>
0.3787011206

> <CNNaffinity>
7.1691904068

> <CNN_VS>
2.7149803638

> <CNNaffinity_variance>
0.1069099158

$$$$
[H]c1nc2c([H])c(OC([H])([H])[H])c(OC([H])([H])[H])c([H])c2c(Oc2c([H])c([H])c(N([H])C(=O)N([H])c3c(F)c([H])c([H])c([H])c3F)c([H])c2F)c1[H]


 36 39  0  0  0  0  0  0  0  0999 V2000
  -18.3013   12.4877  -20.4457 C   0  0  0  0  0  0  0  0  0  0  0  0
  -19.0414   12.4768  -19.2539 C   0  0  0  0  0  0  0  0  0  0  0  0
  -18.8509   11.4618  -18.3594 C   0  0  0  0  0  0  0  0  0  0  0  0
  -17.9471   10.4060  -18.5524 C   0  0  0  0  0  0  0  0  0  0  0  0
  -17.2359   10.4351  -19.7168 C   0  0  0  0  0  0  0  0  0  0  0  0
  -17.4104   11.4667  -20.6559 C   0  0  0  0  0  0  0  0  0  0  0  0
  -16.6564   11.4746  -21.7961 F   0  0  0  0  0  0  0  0  0  0  0  0
  -17.8386    9.4482  -17.5456 N   0  0  0  0  0  0  0  0  0  0  0  0
  -18.8791    9.1421  -16.6458 C   0  0  0  0  0  0  0  0  0  0  0  0
  -19.9921    9.6936  -16.6499 O   0  0  0  0  0  0  0  0  0  0  0  0
  -18.6627    8.1173  -15.6357 N   0  0  0  0  0  0  0  0  0  0  0  0
  -16.9049    8.9202  -17.4672 H   0  0  0  0  0  0  0  0  0  0  0  0
  -17.7300    7.6643  -15.6424 H   0  0  0  0  0  0  0  0  0  0  0  0
  -19.6909    7.7870  -14.7160 C   0  0  0  0  0  0  0  0  0  0  0  0
  -20.7187    6.9495  -15.1451 C   0  0  0  0  0  0  0  0  0  0  0  0
  -20.7592    6.4482  -16.4064 F   0  0  0  0  0  0  0  0  0  0  0  0
  -21.7370    6.6054  -14.2795 C   0  0  0  0  0  0  0  0  0  0  0  0
  -21.6964    7.1193  -12.9852 C   0  0  0  0  0  0  0  0  0  0  0  0
  -20.6860    7.9479  -12.5494 C   0  0  0  0  0  0  0  0  0  0  0  0
  -19.6710    8.2865  -13.4233 C   0  0  0  0  0  0  0  0  0  0  0  0
  -18.6651    9.1087  -12.9970 F   0  0  0  0  0  0  0  0  0  0  0  0
  -18.4740   13.5011  -21.3621 O   0  0  0  0  0  0  0  0  0  0  0  0
  -15.4716   15.0287  -25.0355 C   0  0  0  0  0  0  0  0  0  0  0  0
  -15.3154   15.9101  -23.9875 C   0  0  0  0  0  0  0  0  0  0  0  0
  -16.0151   15.7762  -22.7866 C   0  0  0  0  0  0  0  0  0  0  0  0
  -15.8274   16.6639  -21.7919 N   0  0  0  0  0  0  0  0  0  0  0  0
  -16.5060   16.5255  -20.6393 C   0  0  0  0  0  0  0  0  0  0  0  0
  -17.4055   15.4733  -20.4547 C   0  0  0  0  0  0  0  0  0  0  0  0
  -17.6205   14.5598  -21.4360 C   0  0  0  0  0  0  0  0  0  0  0  0
  -16.8941   14.7360  -22.6253 C   0  0  0  0  0  0  0  0  0  0  0  0
  -17.0526   13.8486  -23.6784 C   0  0  0  0  0  0  0  0  0  0  0  0
  -16.3582   13.9873  -24.8612 C   0  0  0  0  0  0  0  0  0  0  0  0
  -15.4401   15.5957  -27.3810 C   0  0  0  0  0  0  0  0  0  0  0  0
  -14.7594   15.1918  -26.2168 O   0  0  0  0  0  0  0  0  0  0  0  0
  -16.5321   13.0908  -25.8970 O   0  0  0  0  0  0  0  0  0  0  0  0
  -17.7118   12.3089  -25.9989 C   0  0  0  0  0  0  0  0  0  0  0  0
 33 34  1  0  0  0
 34 23  1  0  0  0
 23 24  2  0  0  0
 24 25  1  0  0  0
 25 26  2  0  0  0
 26 27  1  0  0  0
 27 28  2  0  0  0
 28 29  1  0  0  0
 29 22  1  0  0  0
 22  1  1  0  0  0
  1  2  2  0  0  0
  2  3  1  0  0  0
  3  4  2  0  0  0
  4  8  1  0  0  0
  8  9  1  0  0  0
  9 10  2  0  0  0
  9 11  1  0  0  0
 11 14  1  0  0  0
 14 15  2  0  0  0
 15 16  1  0  0  0
 15 17  1  0  0  0
 17 18  2  0  0  0
 18 19  1  0  0  0
 19 20  2  0  0  0
 20 21  1  0  0  0
  4  5  1  0  0  0
  5  6  2  0  0  0
  6  7  1  0  0  0
 29 30  2  0  0  0
 30 31  1  0  0  0
 31 32  2  0  0  0
 32 35  1  0  0  0
 35 36  1  0  0  0
 32 23  1  0  0  0
 30 25  1  0  0  0
  6  1  1  0  0  0
 20 14  1  0  0  0
  8 12  1  0  0  0
 11 13  1  0  0  0
M  END
> <minimizedAffinity>
-9.78650

> <CNNscore>
0.3785810173

> <CNNaffinity>
7.1784172058

> <CNN_VS>
2.7176125050

> <CNNaffinity_variance>
0.1071228236

$$$$
[H]c1nc2c([H])c(OC([H])([H])[H])c(OC([H])([H])[H])c([H])c2c(Oc2c([H])c([H])c(N([H])C(=O)N([H])c3c(F)c([H])c([H])c([H])c3F)c([H])c2F)c1[H]


 36 39  0  0  0  0  0  0  0  0999 V2000
  -19.1713   14.3929  -18.8532 C   0  0  0  0  0  0  0  0  0  0  0  0
  -20.3564   13.8371  -19.3583 C   0  0  0  0  0  0  0  0  0  0  0  0
  -21.3501   14.6674  -19.7938 C   0  0  0  0  0  0  0  0  0  0  0  0
  -21.2676   16.0679  -19.7714 C   0  0  0  0  0  0  0  0  0  0  0  0
  -20.1069   16.5893  -19.2779 C   0  0  0  0  0  0  0  0  0  0  0  0
  -19.0670   15.7597  -18.8228 C   0  0  0  0  0  0  0  0  0  0  0  0
  -17.9086   16.3220  -18.3637 F   0  0  0  0  0  0  0  0  0  0  0  0
  -22.3496   16.7929  -20.2680 N   0  0  0  0  0  0  0  0  0  0  0  0
  -22.3240   17.4910  -21.4919 C   0  0  0  0  0  0  0  0  0  0  0  0
  -21.3403   17.5396  -22.2489 O   0  0  0  0  0  0  0  0  0  0  0  0
  -23.5136   18.2105  -21.9214 N   0  0  0  0  0  0  0  0  0  0  0  0
  -23.2465   16.8071  -19.6746 H   0  0  0  0  0  0  0  0  0  0  0  0
  -24.3280   18.1624  -21.2813 H   0  0  0  0  0  0  0  0  0  0  0  0
  -23.5186   18.9223  -23.1483 C   0  0  0  0  0  0  0  0  0  0  0  0
  -23.7270   18.2084  -24.3267 C   0  0  0  0  0  0  0  0  0  0  0  0
  -23.9230   16.8647  -24.3289 F   0  0  0  0  0  0  0  0  0  0  0  0
  -23.7387   18.8655  -25.5403 C   0  0  0  0  0  0  0  0  0  0  0  0
  -23.5376   20.2441  -25.5392 C   0  0  0  0  0  0  0  0  0  0  0  0
  -23.3306   20.9608  -24.3811 C   0  0  0  0  0  0  0  0  0  0  0  0
  -23.3207   20.2939  -23.1712 C   0  0  0  0  0  0  0  0  0  0  0  0
  -23.1157   20.9994  -22.0180 F   0  0  0  0  0  0  0  0  0  0  0  0
  -18.1543   13.5767  -18.4100 O   0  0  0  0  0  0  0  0  0  0  0  0
  -16.5094   13.0308  -23.0832 C   0  0  0  0  0  0  0  0  0  0  0  0
  -16.5268   11.7786  -22.5076 C   0  0  0  0  0  0  0  0  0  0  0  0
  -16.9396   11.5660  -21.1908 C   0  0  0  0  0  0  0  0  0  0  0  0
  -16.9385   10.3228  -20.6741 N   0  0  0  0  0  0  0  0  0  0  0  0
  -17.3383   10.1290  -19.4049 C   0  0  0  0  0  0  0  0  0  0  0  0
  -17.7563   11.1985  -18.6100 C   0  0  0  0  0  0  0  0  0  0  0  0
  -17.7699   12.4657  -19.0974 C   0  0  0  0  0  0  0  0  0  0  0  0
  -17.3461   12.6297  -20.4266 C   0  0  0  0  0  0  0  0  0  0  0  0
  -17.3293   13.8899  -21.0038 C   0  0  0  0  0  0  0  0  0  0  0  0
  -16.9203   14.0920  -22.3047 C   0  0  0  0  0  0  0  0  0  0  0  0
  -17.0326   13.0928  -25.4382 C   0  0  0  0  0  0  0  0  0  0  0  0
  -16.0926   13.2064  -24.3964 O   0  0  0  0  0  0  0  0  0  0  0  0
  -16.9119   15.3568  -22.8589 O   0  0  0  0  0  0  0  0  0  0  0  0
  -18.1174   15.9892  -23.2594 C   0  0  0  0  0  0  0  0  0  0  0  0
 33 34  1  0  0  0
 34 23  1  0  0  0
 23 24  2  0  0  0
 24 25  1  0  0  0
 25 26  2  0  0  0
 26 27  1  0  0  0
 27 28  2  0  0  0
 28 29  1  0  0  0
 29 22  1  0  0  0
 22  1  1  0  0  0
  1  2  2  0  0  0
  2  3  1  0  0  0
  3  4  2  0  0  0
  4  8  1  0  0  0
  8  9  1  0  0  0
  9 10  2  0  0  0
  9 11  1  0  0  0
 11 14  1  0  0  0
 14 15  2  0  0  0
 15 16  1  0  0  0
 15 17  1  0  0  0
 17 18  2  0  0  0
 18 19  1  0  0  0
 19 20  2  0  0  0
 20 21  1  0  0  0
  4  5  1  0  0  0
  5  6  2  0  0  0
  6  7  1  0  0  0
 29 30  2  0  0  0
 30 31  1  0  0  0
 31 32  2  0  0  0
 32 35  1  0  0  0
 35 36  1  0  0  0
 32 23  1  0  0  0
 30 25  1  0  0  0
  6  1  1  0  0  0
 20 14  1  0  0  0
  8 12  1  0  0  0
 11 13  1  0  0  0
M  END
> <minimizedAffinity>
-8.76196

> <CNNscore>
0.3034941256

> <CNNaffinity>
6.8986282349

> <CNN_VS>
2.0936932564

> <CNNaffinity_variance>
0.0780335143

$$$$
[H]c1nc2c([H])c(OC([H])([H])[H])c(OC([H])([H])[H])c([H])c2c(Oc2c([H])c([H])c(N([H])C(=O)N([H])c3c(F)c([H])c([H])c([H])c3F)c([H])c2F)c1[H]


 36 39  0  0  0  0  0  0  0  0999 V2000
  -18.9589   12.1993  -18.3213 C   0  0  0  0  0  0  0  0  0  0  0  0
  -17.7206   11.5476  -18.4230 C   0  0  0  0  0  0  0  0  0  0  0  0
  -17.0925   11.4938  -19.6351 C   0  0  0  0  0  0  0  0  0  0  0  0
  -17.6095   12.0568  -20.8117 C   0  0  0  0  0  0  0  0  0  0  0  0
  -18.8140   12.6873  -20.6920 C   0  0  0  0  0  0  0  0  0  0  0  0
  -19.4836   12.7587  -19.4578 C   0  0  0  0  0  0  0  0  0  0  0  0
  -20.6740   13.4256  -19.3748 F   0  0  0  0  0  0  0  0  0  0  0  0
  -16.8508   11.9460  -21.9758 N   0  0  0  0  0  0  0  0  0  0  0  0
  -16.7226   12.9808  -22.9238 C   0  0  0  0  0  0  0  0  0  0  0  0
  -17.2730   14.0901  -22.8270 O   0  0  0  0  0  0  0  0  0  0  0  0
  -15.8978   12.7626  -24.1025 N   0  0  0  0  0  0  0  0  0  0  0  0
  -16.3386   11.0152  -22.1426 H   0  0  0  0  0  0  0  0  0  0  0  0
  -15.4437   11.8330  -24.1720 H   0  0  0  0  0  0  0  0  0  0  0  0
  -15.7493   13.7850  -25.0744 C   0  0  0  0  0  0  0  0  0  0  0  0
  -14.7055   14.6956  -24.9228 C   0  0  0  0  0  0  0  0  0  0  0  0
  -13.8378   14.6287  -23.8804 F   0  0  0  0  0  0  0  0  0  0  0  0
  -14.5284   15.7045  -25.8477 C   0  0  0  0  0  0  0  0  0  0  0  0
  -15.4180   15.7742  -26.9175 C   0  0  0  0  0  0  0  0  0  0  0  0
  -16.4535   14.8801  -27.0783 C   0  0  0  0  0  0  0  0  0  0  0  0
  -16.6225   13.8736  -26.1471 C   0  0  0  0  0  0  0  0  0  0  0  0
  -17.6485   12.9828  -26.3008 F   0  0  0  0  0  0  0  0  0  0  0  0
  -19.6106   12.2685  -17.1100 O   0  0  0  0  0  0  0  0  0  0  0  0
  -22.6061   11.6658  -13.1723 C   0  0  0  0  0  0  0  0  0  0  0  0
  -22.1107   10.4227  -13.5024 C   0  0  0  0  0  0  0  0  0  0  0  0
  -21.2309   10.2270  -14.5687 C   0  0  0  0  0  0  0  0  0  0  0  0
  -20.7746    8.9921  -14.8511 N   0  0  0  0  0  0  0  0  0  0  0  0
  -19.9273    8.8146  -15.8801 C   0  0  0  0  0  0  0  0  0  0  0  0
  -19.5105    9.8925  -16.6642 C   0  0  0  0  0  0  0  0  0  0  0  0
  -19.9505   11.1514  -16.4091 C   0  0  0  0  0  0  0  0  0  0  0  0
  -20.8337   11.2985  -15.3268 C   0  0  0  0  0  0  0  0  0  0  0  0
  -21.3310   12.5495  -14.9963 C   0  0  0  0  0  0  0  0  0  0  0  0
  -22.1995   12.7351  -13.9419 C   0  0  0  0  0  0  0  0  0  0  0  0
  -22.9785   11.7712  -10.7903 C   0  0  0  0  0  0  0  0  0  0  0  0
  -23.4801   11.8247  -12.1046 O   0  0  0  0  0  0  0  0  0  0  0  0
  -22.6822   13.9909  -13.6310 O   0  0  0  0  0  0  0  0  0  0  0  0
  -23.7012   14.5977  -14.4100 C   0  0  0  0  0  0  0  0  0  0  0  0
 33 34  1  0  0  0
 34 23  1  0  0  0
 23 24  2  0  0  0
 24 25  1  0  0  0
 25 26  2  0  0  0
 26 27  1  0  0  0
 27 28  2  0  0  0
 28 29  1  0  0  0
 29 22  1  0  0  0
 22  1  1  0  0  0
  1  2  2  0  0  0
  2  3  1  0  0  0
  3  4  2  0  0  0
  4  8  1  0  0  0
  8  9  1  0  0  0
  9 10  2  0  0  0
  9 11  1  0  0  0
 11 14  1  0  0  0
 14 15  2  0  0  0
 15 16  1  0  0  0
 15 17  1  0  0  0
 17 18  2  0  0  0
 18 19  1  0  0  0
 19 20  2  0  0  0
 20 21  1  0  0  0
  4  5  1  0  0  0
  5  6  2  0  0  0
  6  7  1  0  0  0
 29 30  2  0  0  0
 30 31  1  0  0  0
 31 32  2  0  0  0
 32 35  1  0  0  0
 35 36  1  0  0  0
 32 23  1  0  0  0
 30 25  1  0  0  0
  6  1  1  0  0  0
 20 14  1  0  0  0
  8 12  1  0  0  0
 11 13  1  0  0  0
M  END
> <minimizedAffinity>
-9.12945

> <CNNscore>
0.2409535199

> <CNNaffinity>
6.7089872360

> <CNN_VS>
1.6165541410

> <CNNaffinity_variance>
0.0512864217

$$$$
[H]c1nc2c([H])c(OC([H])([H])[H])c(OC([H])([H])[H])c([H])c2c(Oc2c([H])c([H])c(N([H])C(=O)N([H])c3c(F)c([H])c([H])c([H])c3F)c([H])c2F)c1[H]


 36 39  0  0  0  0  0  0  0  0999 V2000
  -19.5147   14.6446  -18.6272 C   0  0  0  0  0  0  0  0  0  0  0  0
  -20.5678   13.9975  -19.2909 C   0  0  0  0  0  0  0  0  0  0  0  0
  -21.5130   14.7470  -19.9324 C   0  0  0  0  0  0  0  0  0  0  0  0
  -21.5050   16.1494  -19.9755 C   0  0  0  0  0  0  0  0  0  0  0  0
  -20.4721   16.7602  -19.3252 C   0  0  0  0  0  0  0  0  0  0  0  0
  -19.4848   16.0152  -18.6568 C   0  0  0  0  0  0  0  0  0  0  0  0
  -18.4505   16.6650  -18.0432 F   0  0  0  0  0  0  0  0  0  0  0  0
  -22.5215   16.7859  -20.6858 N   0  0  0  0  0  0  0  0  0  0  0  0
  -22.3057   17.5081  -21.8765 C   0  0  0  0  0  0  0  0  0  0  0  0
  -21.1949   17.6588  -22.4116 O   0  0  0  0  0  0  0  0  0  0  0  0
  -23.4405   18.1282  -22.5436 N   0  0  0  0  0  0  0  0  0  0  0  0
  -23.5195   16.7087  -20.2925 H   0  0  0  0  0  0  0  0  0  0  0  0
  -24.3622   17.9954  -22.0875 H   0  0  0  0  0  0  0  0  0  0  0  0
  -23.2552   18.8615  -23.7437 C   0  0  0  0  0  0  0  0  0  0  0  0
  -22.8970   20.2049  -23.6496 C   0  0  0  0  0  0  0  0  0  0  0  0
  -22.7232   20.8212  -22.4522 F   0  0  0  0  0  0  0  0  0  0  0  0
  -22.7076   20.9516  -24.7947 C   0  0  0  0  0  0  0  0  0  0  0  0
  -22.8857   20.3203  -26.0237 C   0  0  0  0  0  0  0  0  0  0  0  0
  -23.2396   18.9932  -26.1296 C   0  0  0  0  0  0  0  0  0  0  0  0
  -23.4268   18.2541  -24.9776 C   0  0  0  0  0  0  0  0  0  0  0  0
  -23.7783   16.9363  -25.0757 F   0  0  0  0  0  0  0  0  0  0  0  0
  -18.5485   13.9110  -17.9752 O   0  0  0  0  0  0  0  0  0  0  0  0
  -19.7579    9.3704  -16.3130 C   0  0  0  0  0  0  0  0  0  0  0  0
  -18.9010    9.2001  -17.3790 C   0  0  0  0  0  0  0  0  0  0  0  0
  -18.3631   10.2772  -18.0861 C   0  0  0  0  0  0  0  0  0  0  0  0
  -17.5299   10.0585  -19.1208 N   0  0  0  0  0  0  0  0  0  0  0  0
  -17.0171   11.1029  -19.7950 C   0  0  0  0  0  0  0  0  0  0  0  0
  -17.3346   12.4156  -19.4396 C   0  0  0  0  0  0  0  0  0  0  0  0
  -18.1717   12.6740  -18.4023 C   0  0  0  0  0  0  0  0  0  0  0  0
  -18.6875   11.5588  -17.7216 C   0  0  0  0  0  0  0  0  0  0  0  0
  -19.5494   11.7320  -16.6497 C   0  0  0  0  0  0  0  0  0  0  0  0
  -20.0766   10.6636  -15.9562 C   0  0  0  0  0  0  0  0  0  0  0  0
  -19.5827    7.7706  -14.5149 C   0  0  0  0  0  0  0  0  0  0  0  0
  -20.2750    8.2762  -15.6316 O   0  0  0  0  0  0  0  0  0  0  0  0
  -20.9333   10.8603  -14.8913 O   0  0  0  0  0  0  0  0  0  0  0  0
  -20.4717   11.4252  -13.6742 C   0  0  0  0  0  0  0  0  0  0  0  0
 33 34  1  0  0  0
 34 23  1  0  0  0
 23 24  2  0  0  0
 24 25  1  0  0  0
 25 26  2  0  0  0
 26 27  1  0  0  0
 27 28  2  0  0  0
 28 29  1  0  0  0
 29 22  1  0  0  0
 22  1  1  0  0  0
  1  2  2  0  0  0
  2  3  1  0  0  0
  3  4  2  0  0  0
  4  8  1  0  0  0
  8  9  1  0  0  0
  9 10  2  0  0  0
  9 11  1  0  0  0
 11 14  1  0  0  0
 14 15  2  0  0  0
 15 16  1  0  0  0
 15 17  1  0  0  0
 17 18  2  0  0  0
 18 19  1  0  0  0
 19 20  2  0  0  0
 20 21  1  0  0  0
  4  5  1  0  0  0
  5  6  2  0  0  0
  6  7  1  0  0  0
 29 30  2  0  0  0
 30 31  1  0  0  0
 31 32  2  0  0  0
 32 35  1  0  0  0
 35 36  1  0  0  0
 32 23  1  0  0  0
 30 25  1  0  0  0
  6  1  1  0  0  0
 20 14  1  0  0  0
  8 12  1  0  0  0
 11 13  1  0  0  0
M  END
> <minimizedAffinity>
-8.02935

> <CNNscore>
0.2213790417

> <CNNaffinity>
6.4708695412

> <CNN_VS>
1.4325149059

> <CNNaffinity_variance>
0.0853758082

$$$$
[H]c1nc2c([H])c(OC([H])([H])[H])c(OC([H])([H])[H])c([H])c2c(Oc2c([H])c([H])c(N([H])C(=O)N([H])c3c(F)c([H])c([H])c([H])c3F)c([H])c2F)c1[H]


 36 39  0  0  0  0  0  0  0  0999 V2000
  -18.6682   12.3023  -18.1368 C   0  0  0  0  0  0  0  0  0  0  0  0
  -17.4223   11.6835  -18.3190 C   0  0  0  0  0  0  0  0  0  0  0  0
  -16.9059   11.5817  -19.5797 C   0  0  0  0  0  0  0  0  0  0  0  0
  -17.5474   12.0630  -20.7310 C   0  0  0  0  0  0  0  0  0  0  0  0
  -18.7574   12.6626  -20.5330 C   0  0  0  0  0  0  0  0  0  0  0  0
  -19.3137   12.7820  -19.2474 C   0  0  0  0  0  0  0  0  0  0  0  0
  -20.5143   13.4162  -19.0890 F   0  0  0  0  0  0  0  0  0  0  0  0
  -16.8946   11.9109  -21.9532 N   0  0  0  0  0  0  0  0  0  0  0  0
  -16.7083   12.9620  -22.8732 C   0  0  0  0  0  0  0  0  0  0  0  0
  -17.1087   14.1246  -22.6972 O   0  0  0  0  0  0  0  0  0  0  0  0
  -16.0045   12.6960  -24.1186 N   0  0  0  0  0  0  0  0  0  0  0  0
  -16.5151   10.9329  -22.1899 H   0  0  0  0  0  0  0  0  0  0  0  0
  -15.6752   11.7221  -24.2539 H   0  0  0  0  0  0  0  0  0  0  0  0
  -15.8013   13.7334  -25.0644 C   0  0  0  0  0  0  0  0  0  0  0  0
  -16.6747   13.8227  -26.1465 C   0  0  0  0  0  0  0  0  0  0  0  0
  -17.7026   12.9516  -26.3154 F   0  0  0  0  0  0  0  0  0  0  0  0
  -16.5096   14.8183  -27.0878 C   0  0  0  0  0  0  0  0  0  0  0  0
  -15.4553   15.7125  -26.9156 C   0  0  0  0  0  0  0  0  0  0  0  0
  -14.5855   15.6346  -25.8503 C   0  0  0  0  0  0  0  0  0  0  0  0
  -14.7590   14.6344  -24.9132 C   0  0  0  0  0  0  0  0  0  0  0  0
  -13.8991   14.5515  -23.8534 F   0  0  0  0  0  0  0  0  0  0  0  0
  -19.2089   12.4188  -16.8755 O   0  0  0  0  0  0  0  0  0  0  0  0
  -23.3695   12.7368  -14.1496 C   0  0  0  0  0  0  0  0  0  0  0  0
  -23.0895   11.3971  -14.3123 C   0  0  0  0  0  0  0  0  0  0  0  0
  -21.9811   10.9464  -15.0319 C   0  0  0  0  0  0  0  0  0  0  0  0
  -21.7506    9.6264  -15.1624 N   0  0  0  0  0  0  0  0  0  0  0  0
  -20.6800    9.2030  -15.8572 C   0  0  0  0  0  0  0  0  0  0  0  0
  -19.7994   10.1116  -16.4483 C   0  0  0  0  0  0  0  0  0  0  0  0
  -20.0007   11.4498  -16.3380 C   0  0  0  0  0  0  0  0  0  0  0  0
  -21.1284   11.8548  -15.6050 C   0  0  0  0  0  0  0  0  0  0  0  0
  -21.4085   13.2027  -15.4425 C   0  0  0  0  0  0  0  0  0  0  0  0
  -22.5050   13.6402  -14.7305 C   0  0  0  0  0  0  0  0  0  0  0  0
  -25.7531   13.0937  -14.0283 C   0  0  0  0  0  0  0  0  0  0  0  0
  -24.4813   13.1504  -13.4272 O   0  0  0  0  0  0  0  0  0  0  0  0
  -22.7642   14.9884  -14.5816 O   0  0  0  0  0  0  0  0  0  0  0  0
  -22.6038   15.8894  -15.6660 C   0  0  0  0  0  0  0  0  0  0  0  0
 33 34  1  0  0  0
 34 23  1  0  0  0
 23 24  2  0  0  0
 24 25  1  0  0  0
 25 26  2  0  0  0
 26 27  1  0  0  0
 27 28  2  0  0  0
 28 29  1  0  0  0
 29 22  1  0  0  0
 22  1  1  0  0  0
  1  2  2  0  0  0
  2  3  1  0  0  0
  3  4  2  0  0  0
  4  8  1  0  0  0
  8  9  1  0  0  0
  9 10  2  0  0  0
  9 11  1  0  0  0
 11 14  1  0  0  0
 14 15  2  0  0  0
 15 16  1  0  0  0
 15 17  1  0  0  0
 17 18  2  0  0  0
 18 19  1  0  0  0
 19 20  2  0  0  0
 20 21  1  0  0  0
  4  5  1  0  0  0
  5  6  2  0  0  0
  6  7  1  0  0  0
 29 30  2  0  0  0
 30 31  1  0  0  0
 31 32  2  0  0  0
 32 35  1  0  0  0
 35 36  1  0  0  0
 32 23  1  0  0  0
 30 25  1  0  0  0
  6  1  1  0  0  0
 20 14  1  0  0  0
  8 12  1  0  0  0
 11 13  1  0  0  0
M  END
> <minimizedAffinity>
-8.98017

> <CNNscore>
0.1773727834

> <CNNaffinity>
6.6118292809

> <CNN_VS>
1.1727585793

> <CNNaffinity_variance>
0.0608249307

$$$$
[H]c1nc2c([H])c(OC([H])([H])[H])c(OC([H])([H])[H])c([H])c2c(Oc2c([H])c([H])c(N([H])C(=O)N([H])c3c(F)c([H])c([H])c([H])c3F)c([H])c2F)c1[H]


 36 39  0  0  0  0  0  0  0  0999 V2000
  -18.7592   14.6272  -19.0497 C   0  0  0  0  0  0  0  0  0  0  0  0
  -19.2976   14.1858  -20.2677 C   0  0  0  0  0  0  0  0  0  0  0  0
  -19.4829   15.0844  -21.2800 C   0  0  0  0  0  0  0  0  0  0  0  0
  -19.1657   16.4479  -21.1859 C   0  0  0  0  0  0  0  0  0  0  0  0
  -18.6421   16.8576  -19.9939 C   0  0  0  0  0  0  0  0  0  0  0  0
  -18.4399   15.9557  -18.9345 C   0  0  0  0  0  0  0  0  0  0  0  0
  -17.8850   16.4011  -17.7673 F   0  0  0  0  0  0  0  0  0  0  0  0
  -19.3870   17.2478  -22.3058 N   0  0  0  0  0  0  0  0  0  0  0  0
  -20.6317   17.8337  -22.6113 C   0  0  0  0  0  0  0  0  0  0  0  0
  -21.6573   17.6952  -21.9244 O   0  0  0  0  0  0  0  0  0  0  0  0
  -20.7516   18.6595  -23.8033 N   0  0  0  0  0  0  0  0  0  0  0  0
  -18.5510   17.4206  -22.9600 H   0  0  0  0  0  0  0  0  0  0  0  0
  -19.8890   18.7676  -24.3684 H   0  0  0  0  0  0  0  0  0  0  0  0
  -21.9913   19.2627  -24.1373 C   0  0  0  0  0  0  0  0  0  0  0  0
  -22.9044   18.5260  -24.8892 C   0  0  0  0  0  0  0  0  0  0  0  0
  -22.6396   17.2606  -25.3046 F   0  0  0  0  0  0  0  0  0  0  0  0
  -24.1212   19.0785  -25.2340 C   0  0  0  0  0  0  0  0  0  0  0  0
  -24.3939   20.3767  -24.8083 C   0  0  0  0  0  0  0  0  0  0  0  0
  -23.4995   21.1148  -24.0647 C   0  0  0  0  0  0  0  0  0  0  0  0
  -22.2841   20.5530  -23.7245 C   0  0  0  0  0  0  0  0  0  0  0  0
  -21.3919   21.2804  -22.9866 F   0  0  0  0  0  0  0  0  0  0  0  0
  -18.5611   13.7402  -18.0150 O   0  0  0  0  0  0  0  0  0  0  0  0
  -20.3782    9.5480  -16.0235 C   0  0  0  0  0  0  0  0  0  0  0  0
  -19.4045    9.1818  -16.9276 C   0  0  0  0  0  0  0  0  0  0  0  0
  -18.6837   10.1183  -17.6713 C   0  0  0  0  0  0  0  0  0  0  0  0
  -17.7419    9.7100  -18.5425 N   0  0  0  0  0  0  0  0  0  0  0  0
  -17.0533   10.6201  -19.2535 C   0  0  0  0  0  0  0  0  0  0  0  0
  -17.2985   11.9868  -19.1039 C   0  0  0  0  0  0  0  0  0  0  0  0
  -18.2411   12.4350  -18.2354 C   0  0  0  0  0  0  0  0  0  0  0  0
  -18.9398   11.4558  -17.5100 C   0  0  0  0  0  0  0  0  0  0  0  0
  -19.9188   11.8260  -16.6011 C   0  0  0  0  0  0  0  0  0  0  0  0
  -20.6264   10.8956  -15.8703 C   0  0  0  0  0  0  0  0  0  0  0  0
  -20.7462    7.2306  -15.4598 C   0  0  0  0  0  0  0  0  0  0  0  0
  -21.0763    8.5898  -15.3000 O   0  0  0  0  0  0  0  0  0  0  0  0
  -21.5974   11.2877  -14.9702 O   0  0  0  0  0  0  0  0  0  0  0  0
  -21.8709   12.6608  -14.7394 C   0  0  0  0  0  0  0  0  0  0  0  0
 33 34  1  0  0  0
 34 23  1  0  0  0
 23 24  2  0  0  0
 24 25  1  0  0  0
 25 26  2  0  0  0
 26 27  1  0  0  0
 27 28  2  0  0  0
 28 29  1  0  0  0
 29 22  1  0  0  0
 22  1  1  0  0  0
  1  2  2  0  0  0
  2  3  1  0  0  0
  3  4  2  0  0  0
  4  8  1  0  0  0
  8  9  1  0  0  0
  9 10  2  0  0  0
  9 11  1  0  0  0
 11 14  1  0  0  0
 14 15  2  0  0  0
 15 16  1  0  0  0
 15 17  1  0  0  0
 17 18  2  0  0  0
 18 19  1  0  0  0
 19 20  2  0  0  0
 20 21  1  0  0  0
  4  5  1  0  0  0
  5  6  2  0  0  0
  6  7  1  0  0  0
 29 30  2  0  0  0
 30 31  1  0  0  0
 31 32  2  0  0  0
 32 35  1  0  0  0
 35 36  1  0  0  0
 32 23  1  0  0  0
 30 25  1  0  0  0
  6  1  1  0  0  0
 20 14  1  0  0  0
  8 12  1  0  0  0
 11 13  1  0  0  0
M  END
> <minimizedAffinity>
-8.10835

> <CNNscore>
0.1729308963

> <CNNaffinity>
6.4580841064

> <CNN_VS>
1.1168022156

> <CNNaffinity_variance>
0.0663191229

$$$$
[H]c1nc2c([H])c(OC([H])([H])[H])c(OC([H])([H])[H])c([H])c2c(Oc2c([H])c([H])c(N([H])C(=O)N([H])c3c(F)c([H])c([H])c([H])c3F)c([H])c2F)c1[H]


 36 39  0  0  0  0  0  0  0  0999 V2000
  -19.4002   14.8549  -19.1824 C   0  0  0  0  0  0  0  0  0  0  0  0
  -20.2730   14.4306  -18.1692 C   0  0  0  0  0  0  0  0  0  0  0  0
  -20.2370   15.0530  -16.9536 C   0  0  0  0  0  0  0  0  0  0  0  0
  -19.3696   16.1102  -16.6394 C   0  0  0  0  0  0  0  0  0  0  0  0
  -18.5294   16.5093  -17.6382 C   0  0  0  0  0  0  0  0  0  0  0  0
  -18.5440   15.8879  -18.8992 C   0  0  0  0  0  0  0  0  0  0  0  0
  -17.7068   16.3378  -19.8817 F   0  0  0  0  0  0  0  0  0  0  0  0
  -19.4555   16.6674  -15.3646 N   0  0  0  0  0  0  0  0  0  0  0  0
  -20.4648   17.5705  -14.9753 C   0  0  0  0  0  0  0  0  0  0  0  0
  -21.3739   17.9680  -15.7226 O   0  0  0  0  0  0  0  0  0  0  0  0
  -20.4662   18.0869  -13.6149 N   0  0  0  0  0  0  0  0  0  0  0  0
  -18.7053   16.3791  -14.6500 H   0  0  0  0  0  0  0  0  0  0  0  0
  -19.7026   17.7479  -13.0008 H   0  0  0  0  0  0  0  0  0  0  0  0
  -21.4690   18.9973  -13.1933 C   0  0  0  0  0  0  0  0  0  0  0  0
  -21.2289   20.3618  -13.3421 C   0  0  0  0  0  0  0  0  0  0  0  0
  -20.0727   20.8352  -13.8742 F   0  0  0  0  0  0  0  0  0  0  0  0
  -22.1803   21.2787  -12.9437 C   0  0  0  0  0  0  0  0  0  0  0  0
  -23.3669   20.7941  -12.3977 C   0  0  0  0  0  0  0  0  0  0  0  0
  -23.6159   19.4478  -12.2455 C   0  0  0  0  0  0  0  0  0  0  0  0
  -22.6572   18.5378  -12.6474 C   0  0  0  0  0  0  0  0  0  0  0  0
  -22.8982   17.2000  -12.4991 F   0  0  0  0  0  0  0  0  0  0  0  0
  -19.4189   14.2447  -20.4169 O   0  0  0  0  0  0  0  0  0  0  0  0
  -16.2082   14.0725  -24.2253 C   0  0  0  0  0  0  0  0  0  0  0  0
  -16.0309   12.9206  -23.4895 C   0  0  0  0  0  0  0  0  0  0  0  0
  -16.7772   12.6432  -22.3425 C   0  0  0  0  0  0  0  0  0  0  0  0
  -16.5664   11.5033  -21.6578 N   0  0  0  0  0  0  0  0  0  0  0  0
  -17.2908   11.2456  -20.5546 C   0  0  0  0  0  0  0  0  0  0  0  0
  -18.2618   12.1428  -20.1046 C   0  0  0  0  0  0  0  0  0  0  0  0
  -18.5012   13.3023  -20.7694 C   0  0  0  0  0  0  0  0  0  0  0  0
  -17.7259   13.5373  -21.9169 C   0  0  0  0  0  0  0  0  0  0  0  0
  -17.9056   14.6965  -22.6557 C   0  0  0  0  0  0  0  0  0  0  0  0
  -17.1648   14.9636  -23.7873 C   0  0  0  0  0  0  0  0  0  0  0  0
  -14.1498   14.8429  -25.2219 C   0  0  0  0  0  0  0  0  0  0  0  0
  -15.4481   14.3169  -25.3618 O   0  0  0  0  0  0  0  0  0  0  0  0
  -17.3612   16.1251  -24.5077 O   0  0  0  0  0  0  0  0  0  0  0  0
  -18.0828   17.2157  -23.9569 C   0  0  0  0  0  0  0  0  0  0  0  0
 33 34  1  0  0  0
 34 23  1  0  0  0
 23 24  2  0  0  0
 24 25  1  0  0  0
 25 26  2  0  0  0
 26 27  1  0  0  0
 27 28  2  0  0  0
 28 29  1  0  0  0
 29 22  1  0  0  0
 22  1  1  0  0  0
  1  2  2  0  0  0
  2  3  1  0  0  0
  3  4  2  0  0  0
  4  8  1  0  0  0
  8  9  1  0  0  0
  9 10  2  0  0  0
  9 11  1  0  0  0
 11 14  1  0  0  0
 14 15  2  0  0  0
 15 16  1  0  0  0
 15 17  1  0  0  0
 17 18  2  0  0  0
 18 19  1  0  0  0
 19 20  2  0  0  0
 20 21  1  0  0  0
  4  5  1  0  0  0
  5  6  2  0  0  0
  6  7  1  0  0  0
 29 30  2  0  0  0
 30 31  1  0  0  0
 31 32  2  0  0  0
 32 35  1  0  0  0
 35 36  1  0  0  0
 32 23  1  0  0  0
 30 25  1  0  0  0
  6  1  1  0  0  0
 20 14  1  0  0  0
  8 12  1  0  0  0
 11 13  1  0  0  0
M  END
> <minimizedAffinity>
-7.80592

> <CNNscore>
0.1353471875

> <CNNaffinity>
6.5881271362

> <CNN_VS>
0.8916844726

> <CNNaffinity_variance>
0.0720987767

$$$$
[H]c1nc2c([H])c(OC([H])([H])C([H])([H])C([H])([H])N3C([H])([H])C([H])([H])OC([H])([H])C3([H])[H])c(OC([H])([H])[H])c([H])c2c(Oc2c([H])c([H])c(N([H])C(=O)N([H])c3c(F)c([H])c([H])c([H])c3C([H])([H])[H])c([H])c2F)c1[H]


 44 48  0  0  0  0  0  0  0  0999 V2000
  -19.9049   10.6361  -16.1787 C   0  0  0  0  0  0  0  0  0  0  0  0
  -19.6977   11.6757  -17.0496 C   0  0  0  0  0  0  0  0  0  0  0  0
  -18.8639   11.5783  -18.1528 C   0  0  0  0  0  0  0  0  0  0  0  0
  -18.6780   12.6766  -19.0199 C   0  0  0  0  0  0  0  0  0  0  0  0
  -17.8440   12.5652  -20.1019 C   0  0  0  0  0  0  0  0  0  0  0  0
  -17.1910   11.3684  -20.3361 C   0  0  0  0  0  0  0  0  0  0  0  0
  -17.3821   10.3132  -19.4888 N   0  0  0  0  0  0  0  0  0  0  0  0
  -18.1953   10.4158  -18.4280 C   0  0  0  0  0  0  0  0  0  0  0  0
  -18.3963    9.3455  -17.5486 C   0  0  0  0  0  0  0  0  0  0  0  0
  -19.2249    9.4411  -16.4525 C   0  0  0  0  0  0  0  0  0  0  0  0
  -22.1367   10.8226  -15.2652 C   0  0  0  0  0  0  0  0  0  0  0  0
  -20.7397   10.7398  -15.0775 O   0  0  0  0  0  0  0  0  0  0  0  0
  -19.3956   13.7881  -18.6525 O   0  0  0  0  0  0  0  0  0  0  0  0
  -19.6922   14.8933  -19.3865 C   0  0  0  0  0  0  0  0  0  0  0  0
  -20.9651   15.0109  -19.9105 C   0  0  0  0  0  0  0  0  0  0  0  0
  -21.3439   16.0882  -20.6583 C   0  0  0  0  0  0  0  0  0  0  0  0
  -20.4555   17.1480  -20.9410 C   0  0  0  0  0  0  0  0  0  0  0  0
  -19.1628   16.9827  -20.3841 C   0  0  0  0  0  0  0  0  0  0  0  0
  -18.7924   15.9035  -19.6385 C   0  0  0  0  0  0  0  0  0  0  0  0
  -17.5249   15.7990  -19.1463 F   0  0  0  0  0  0  0  0  0  0  0  0
  -20.7720   18.1960  -21.6508 N   0  0  0  0  0  0  0  0  0  0  0  0
  -21.1053   19.2980  -22.3987 C   0  0  0  0  0  0  0  0  0  0  0  0
  -21.4554   19.3282  -23.6274 O   0  0  0  0  0  0  0  0  0  0  0  0
  -21.0661   20.6061  -21.7493 N   0  0  0  0  0  0  0  0  0  0  0  0
  -20.8138   17.4665  -22.8340 H   0  0  0  0  0  0  0  0  0  0  0  0
  -20.7944   20.6465  -20.7619 H   0  0  0  0  0  0  0  0  0  0  0  0
  -21.4092   21.7258  -22.5491 C   0  0  0  0  0  0  0  0  0  0  0  0
  -22.6798   22.2459  -22.5874 C   0  0  0  0  0  0  0  0  0  0  0  0
  -23.7324   21.6158  -21.7465 C   0  0  0  0  0  0  0  0  0  0  0  0
  -23.0260   23.3424  -23.3846 C   0  0  0  0  0  0  0  0  0  0  0  0
  -22.0591   23.9496  -24.1823 C   0  0  0  0  0  0  0  0  0  0  0  0
  -20.7924   23.4219  -24.1357 C   0  0  0  0  0  0  0  0  0  0  0  0
  -20.4494   22.3469  -23.3549 C   0  0  0  0  0  0  0  0  0  0  0  0
  -19.1810   21.8362  -23.3225 F   0  0  0  0  0  0  0  0  0  0  0  0
  -19.4585    8.4197  -15.5630 O   0  0  0  0  0  0  0  0  0  0  0  0
  -20.5042    7.4791  -15.6020 C   0  0  0  0  0  0  0  0  0  0  0  0
  -20.6385    6.8266  -14.2284 C   0  0  0  0  0  0  0  0  0  0  0  0
  -21.4174    7.6377  -13.2501 C   0  0  0  0  0  0  0  0  0  0  0  0
  -20.6064    8.4838  -12.4530 N   0  0  0  0  0  0  0  0  0  0  0  0
  -19.3872    7.8198  -12.0228 C   0  0  0  0  0  0  0  0  0  0  0  0
  -19.4068    7.3734  -10.6109 C   0  0  0  0  0  0  0  0  0  0  0  0
  -19.9561    8.2643   -9.6997 O   0  0  0  0  0  0  0  0  0  0  0  0
  -21.2688    8.4988  -10.0918 C   0  0  0  0  0  0  0  0  0  0  0  0
  -21.2297    9.2225  -11.4125 C   0  0  0  0  0  0  0  0  0  0  0  0
 11 12  1  0  0  0
 12  1  1  0  0  0
  1  2  2  0  0  0
  2  3  1  0  0  0
  3  4  2  0  0  0
  4 13  1  0  0  0
 13 14  1  0  0  0
 14 15  2  0  0  0
 15 16  1  0  0  0
 16 17  2  0  0  0
 17 21  1  0  0  0
 21 22  1  0  0  0
 22 23  2  0  0  0
 22 24  1  0  0  0
 24 27  1  0  0  0
 27 28  2  0  0  0
 28 29  1  0  0  0
 28 30  1  0  0  0
 30 31  2  0  0  0
 31 32  1  0  0  0
 32 33  2  0  0  0
 33 34  1  0  0  0
 17 18  1  0  0  0
 18 19  2  0  0  0
 19 20  1  0  0  0
  4  5  1  0  0  0
  5  6  2  0  0  0
  6  7  1  0  0  0
  7  8  2  0  0  0
  8  9  1  0  0  0
  9 10  2  0  0  0
 10 35  1  0  0  0
 35 36  1  0  0  0
 36 37  1  0  0  0
 37 38  1  0  0  0
 38 39  1  0  0  0
 39 40  1  0  0  0
 40 41  1  0  0  0
 41 42  1  0  0  0
 42 43  1  0  0  0
 43 44  1  0  0  0
 10  1  1  0  0  0
 44 39  1  0  0  0
  8  3  1  0  0  0
 19 14  1  0  0  0
 33 27  1  0  0  0
 21 25  1  0  0  0
 24 26  1  0  0  0
M  END
> <minimizedAffinity>
-7.12181

> <CNNscore>
0.1930187345

> <CNNaffinity>
6.7142190933

> <CNN_VS>
1.2959700823

> <CNNaffinity_variance>
0.1626287252

$$$$
[H]c1nc2c([H])c(OC([H])([H])C([H])([H])C([H])([H])N3C([H])([H])C([H])([H])OC([H])([H])C3([H])[H])c(OC([H])([H])[H])c([H])c2c(Oc2c([H])c([H])c(N([H])C(=O)N([H])c3c(F)c([H])c([H])c([H])c3C([H])([H])[H])c([H])c2F)c1[H]


 44 48  0  0  0  0  0  0  0  0999 V2000
  -20.3432   10.6717  -16.0748 C   0  0  0  0  0  0  0  0  0  0  0  0
  -19.8279   11.6263  -16.9147 C   0  0  0  0  0  0  0  0  0  0  0  0
  -18.8437   11.3521  -17.8516 C   0  0  0  0  0  0  0  0  0  0  0  0
  -18.3404   12.3680  -18.6926 C   0  0  0  0  0  0  0  0  0  0  0  0
  -17.3618   12.0808  -19.6084 C   0  0  0  0  0  0  0  0  0  0  0  0
  -16.8763   10.7889  -19.7015 C   0  0  0  0  0  0  0  0  0  0  0  0
  -17.3743    9.8153  -18.8817 N   0  0  0  0  0  0  0  0  0  0  0  0
  -18.3305   10.0897  -17.9830 C   0  0  0  0  0  0  0  0  0  0  0  0
  -18.8461    9.1042  -17.1330 C   0  0  0  0  0  0  0  0  0  0  0  0
  -19.8243    9.3756  -16.2022 C   0  0  0  0  0  0  0  0  0  0  0  0
  -21.0596   11.8649  -14.0966 C   0  0  0  0  0  0  0  0  0  0  0  0
  -21.3271   10.9522  -15.1402 O   0  0  0  0  0  0  0  0  0  0  0  0
  -18.9251   13.5918  -18.4783 O   0  0  0  0  0  0  0  0  0  0  0  0
  -19.0623   14.6344  -19.3398 C   0  0  0  0  0  0  0  0  0  0  0  0
  -18.0922   15.6181  -19.3393 C   0  0  0  0  0  0  0  0  0  0  0  0
  -18.1548   16.6976  -20.1724 C   0  0  0  0  0  0  0  0  0  0  0  0
  -19.2169   16.8731  -21.0854 C   0  0  0  0  0  0  0  0  0  0  0  0
  -20.1871   15.8407  -21.0488 C   0  0  0  0  0  0  0  0  0  0  0  0
  -20.1172   14.7659  -20.2135 C   0  0  0  0  0  0  0  0  0  0  0  0
  -21.0956   13.8159  -20.2176 F   0  0  0  0  0  0  0  0  0  0  0  0
  -19.3195   17.8876  -21.8993 N   0  0  0  0  0  0  0  0  0  0  0  0
  -19.4265   18.9547  -22.7564 C   0  0  0  0  0  0  0  0  0  0  0  0
  -18.6500   19.2558  -23.7258 O   0  0  0  0  0  0  0  0  0  0  0  0
  -20.5447   19.8762  -22.5695 N   0  0  0  0  0  0  0  0  0  0  0  0
  -18.0770   17.6406  -22.4728 H   0  0  0  0  0  0  0  0  0  0  0  0
  -21.2043   19.6861  -21.8084 H   0  0  0  0  0  0  0  0  0  0  0  0
  -20.6249   20.9721  -23.4660 C   0  0  0  0  0  0  0  0  0  0  0  0
  -21.4519   20.9718  -24.5625 C   0  0  0  0  0  0  0  0  0  0  0  0
  -22.3053   19.7791  -24.8100 C   0  0  0  0  0  0  0  0  0  0  0  0
  -21.5250   22.0454  -25.4568 C   0  0  0  0  0  0  0  0  0  0  0  0
  -20.7352   23.1736  -25.2483 C   0  0  0  0  0  0  0  0  0  0  0  0
  -19.9127   23.1632  -24.1490 C   0  0  0  0  0  0  0  0  0  0  0  0
  -19.8389   22.1123  -23.2698 C   0  0  0  0  0  0  0  0  0  0  0  0
  -19.0127   22.1218  -22.1798 F   0  0  0  0  0  0  0  0  0  0  0  0
  -20.3656    8.4438  -15.3490 O   0  0  0  0  0  0  0  0  0  0  0  0
  -19.7082    7.7538  -14.3138 C   0  0  0  0  0  0  0  0  0  0  0  0
  -20.1898    8.2952  -12.9702 C   0  0  0  0  0  0  0  0  0  0  0  0
  -19.1824    9.1370  -12.2642 C   0  0  0  0  0  0  0  0  0  0  0  0
  -19.2082    8.9782  -10.8560 N   0  0  0  0  0  0  0  0  0  0  0  0
  -19.1437   10.2547  -10.1641 C   0  0  0  0  0  0  0  0  0  0  0  0
  -17.8159   10.5632   -9.5854 C   0  0  0  0  0  0  0  0  0  0  0  0
  -17.1671    9.5092   -8.9578 O   0  0  0  0  0  0  0  0  0  0  0  0
  -16.9976    8.5062   -9.9049 C   0  0  0  0  0  0  0  0  0  0  0  0
  -18.3641    7.9933  -10.2779 C   0  0  0  0  0  0  0  0  0  0  0  0
 11 12  1  0  0  0
 12  1  1  0  0  0
  1  2  2  0  0  0
  2  3  1  0  0  0
  3  4  2  0  0  0
  4 13  1  0  0  0
 13 14  1  0  0  0
 14 15  2  0  0  0
 15 16  1  0  0  0
 16 17  2  0  0  0
 17 21  1  0  0  0
 21 22  1  0  0  0
 22 23  2  0  0  0
 22 24  1  0  0  0
 24 27  1  0  0  0
 27 28  2  0  0  0
 28 29  1  0  0  0
 28 30  1  0  0  0
 30 31  2  0  0  0
 31 32  1  0  0  0
 32 33  2  0  0  0
 33 34  1  0  0  0
 17 18  1  0  0  0
 18 19  2  0  0  0
 19 20  1  0  0  0
  4  5  1  0  0  0
  5  6  2  0  0  0
  6  7  1  0  0  0
  7  8  2  0  0  0
  8  9  1  0  0  0
  9 10  2  0  0  0
 10 35  1  0  0  0
 35 36  1  0  0  0
 36 37  1  0  0  0
 37 38  1  0  0  0
 38 39  1  0  0  0
 39 40  1  0  0  0
 40 41  1  0  0  0
 41 42  1  0  0  0
 42 43  1  0  0  0
 43 44  1  0  0  0
 10  1  1  0  0  0
 44 39  1  0  0  0
  8  3  1  0  0  0
 19 14  1  0  0  0
 33 27  1  0  0  0
 21 25  1  0  0  0
 24 26  1  0  0  0
M  END
> <minimizedAffinity>
-8.36598

> <CNNscore>
0.1860904247

> <CNNaffinity>
6.6085662842

> <CNN_VS>
1.2297909260

> <CNNaffinity_variance>
0.0700565428

$$$$
[H]c1nc2c([H])c(OC([H])([H])C([H])([H])C([H])([H])N3C([H])([H])C([H])([H])OC([H])([H])C3([H])[H])c(OC([H])([H])[H])c([H])c2c(Oc2c([H])c([H])c(N([H])C(=O)N([H])c3c(F)c([H])c([H])c([H])c3C([H])([H])[H])c([H])c2F)c1[H]


 44 48  0  0  0  0  0  0  0  0999 V2000
  -17.0049   12.1161  -21.1378 C   0  0  0  0  0  0  0  0  0  0  0  0
  -17.6571   12.1324  -19.9309 C   0  0  0  0  0  0  0  0  0  0  0  0
  -18.7428   12.9549  -19.6733 C   0  0  0  0  0  0  0  0  0  0  0  0
  -19.3804   12.9404  -18.4140 C   0  0  0  0  0  0  0  0  0  0  0  0
  -20.4479   13.7658  -18.1740 C   0  0  0  0  0  0  0  0  0  0  0  0
  -20.8944   14.6083  -19.1762 C   0  0  0  0  0  0  0  0  0  0  0  0
  -20.2681   14.6102  -20.3910 N   0  0  0  0  0  0  0  0  0  0  0  0
  -19.2226   13.8064  -20.6320 C   0  0  0  0  0  0  0  0  0  0  0  0
  -18.5679   13.8016  -21.8692 C   0  0  0  0  0  0  0  0  0  0  0  0
  -17.4894   12.9843  -22.1262 C   0  0  0  0  0  0  0  0  0  0  0  0
  -15.9088    9.9761  -20.8761 C   0  0  0  0  0  0  0  0  0  0  0  0
  -15.9201   11.2915  -21.3891 O   0  0  0  0  0  0  0  0  0  0  0  0
  -18.8208   12.0506  -17.5305 O   0  0  0  0  0  0  0  0  0  0  0  0
  -19.3233   10.8738  -17.0712 C   0  0  0  0  0  0  0  0  0  0  0  0
  -20.4519   10.9084  -16.2750 C   0  0  0  0  0  0  0  0  0  0  0  0
  -21.0194    9.7730  -15.7733 C   0  0  0  0  0  0  0  0  0  0  0  0
  -20.4856    8.4935  -16.0388 C   0  0  0  0  0  0  0  0  0  0  0  0
  -19.3291    8.5084  -16.8578 C   0  0  0  0  0  0  0  0  0  0  0  0
  -18.7684    9.6470  -17.3547 C   0  0  0  0  0  0  0  0  0  0  0  0
  -17.6434    9.5912  -18.1237 F   0  0  0  0  0  0  0  0  0  0  0  0
  -20.9924    7.3818  -15.5810 N   0  0  0  0  0  0  0  0  0  0  0  0
  -21.5268    6.2127  -15.0990 C   0  0  0  0  0  0  0  0  0  0  0  0
  -22.6742    6.0441  -14.5620 O   0  0  0  0  0  0  0  0  0  0  0  0
  -20.7193    4.9987  -15.1925 N   0  0  0  0  0  0  0  0  0  0  0  0
  -22.0848    8.0322  -15.0175 H   0  0  0  0  0  0  0  0  0  0  0  0
  -19.7890    5.0697  -15.6166 H   0  0  0  0  0  0  0  0  0  0  0  0
  -21.2956    3.8084  -14.6805 C   0  0  0  0  0  0  0  0  0  0  0  0
  -21.0449    3.3526  -13.4093 C   0  0  0  0  0  0  0  0  0  0  0  0
  -20.1433    4.1472  -12.5332 C   0  0  0  0  0  0  0  0  0  0  0  0
  -21.6011    2.1722  -12.9042 C   0  0  0  0  0  0  0  0  0  0  0  0
  -22.4475    1.4091  -13.7049 C   0  0  0  0  0  0  0  0  0  0  0  0
  -22.6915    1.8744  -14.9735 C   0  0  0  0  0  0  0  0  0  0  0  0
  -22.1481    3.0316  -15.4718 C   0  0  0  0  0  0  0  0  0  0  0  0
  -22.4041    3.4783  -16.7390 F   0  0  0  0  0  0  0  0  0  0  0  0
  -16.8160   12.9393  -23.3236 O   0  0  0  0  0  0  0  0  0  0  0  0
  -17.3292   13.2317  -24.6006 C   0  0  0  0  0  0  0  0  0  0  0  0
  -16.7351   14.5516  -25.0858 C   0  0  0  0  0  0  0  0  0  0  0  0
  -17.6148   15.7313  -24.8484 C   0  0  0  0  0  0  0  0  0  0  0  0
  -16.9242   16.8449  -24.3083 N   0  0  0  0  0  0  0  0  0  0  0  0
  -15.8318   16.4378  -23.4403 C   0  0  0  0  0  0  0  0  0  0  0  0
  -16.1237   16.5750  -21.9949 C   0  0  0  0  0  0  0  0  0  0  0  0
  -16.7886   17.7327  -21.6166 O   0  0  0  0  0  0  0  0  0  0  0  0
  -17.9983   17.7562  -22.3008 C   0  0  0  0  0  0  0  0  0  0  0  0
  -17.6915   17.9105  -23.7676 C   0  0  0  0  0  0  0  0  0  0  0  0
 11 12  1  0  0  0
 12  1  1  0  0  0
  1  2  2  0  0  0
  2  3  1  0  0  0
  3  4  2  0  0  0
  4 13  1  0  0  0
 13 14  1  0  0  0
 14 15  2  0  0  0
 15 16  1  0  0  0
 16 17  2  0  0  0
 17 21  1  0  0  0
 21 22  1  0  0  0
 22 23  2  0  0  0
 22 24  1  0  0  0
 24 27  1  0  0  0
 27 28  2  0  0  0
 28 29  1  0  0  0
 28 30  1  0  0  0
 30 31  2  0  0  0
 31 32  1  0  0  0
 32 33  2  0  0  0
 33 34  1  0  0  0
 17 18  1  0  0  0
 18 19  2  0  0  0
 19 20  1  0  0  0
  4  5  1  0  0  0
  5  6  2  0  0  0
  6  7  1  0  0  0
  7  8  2  0  0  0
  8  9  1  0  0  0
  9 10  2  0  0  0
 10 35  1  0  0  0
 35 36  1  0  0  0
 36 37  1  0  0  0
 37 38  1  0  0  0
 38 39  1  0  0  0
 39 40  1  0  0  0
 40 41  1  0  0  0
 41 42  1  0  0  0
 42 43  1  0  0  0
 43 44  1  0  0  0
 10  1  1  0  0  0
 44 39  1  0  0  0
  8  3  1  0  0  0
 19 14  1  0  0  0
 33 27  1  0  0  0
 21 25  1  0  0  0
 24 26  1  0  0  0
M  END
> <minimizedAffinity>
-7.84208

> <CNNscore>
0.1755194366

> <CNNaffinity>
6.6690902710

> <CNN_VS>
1.1705549955

> <CNNaffinity_variance>
0.4128891826

$$$$
[H]c1nc2c([H])c(OC([H])([H])C([H])([H])C([H])([H])N3C([H])([H])C([H])([H])OC([H])([H])C3([H])[H])c(OC([H])([H])[H])c([H])c2c(Oc2c([H])c([H])c(N([H])C(=O)N([H])c3c(F)c([H])c([H])c([H])c3C([H])([H])[H])c([H])c2F)c1[H]


 44 48  0  0  0  0  0  0  0  0999 V2000
  -19.9783   14.4239  -20.1861 C   0  0  0  0  0  0  0  0  0  0  0  0
  -19.8004   13.2883  -19.4370 C   0  0  0  0  0  0  0  0  0  0  0  0
  -18.7324   12.4242  -19.6226 C   0  0  0  0  0  0  0  0  0  0  0  0
  -18.5923   11.2645  -18.8300 C   0  0  0  0  0  0  0  0  0  0  0  0
  -17.5341   10.4171  -19.0321 C   0  0  0  0  0  0  0  0  0  0  0  0
  -16.6066   10.7106  -20.0155 C   0  0  0  0  0  0  0  0  0  0  0  0
  -16.7545   11.8379  -20.7740 N   0  0  0  0  0  0  0  0  0  0  0  0
  -17.7878   12.6703  -20.5825 C   0  0  0  0  0  0  0  0  0  0  0  0
  -17.9552   13.8253  -21.3553 C   0  0  0  0  0  0  0  0  0  0  0  0
  -19.0157   14.6847  -21.1713 C   0  0  0  0  0  0  0  0  0  0  0  0
  -21.0680   16.1358  -18.8700 C   0  0  0  0  0  0  0  0  0  0  0  0
  -21.0482   15.2837  -19.9957 O   0  0  0  0  0  0  0  0  0  0  0  0
  -19.5912   11.1168  -17.8997 O   0  0  0  0  0  0  0  0  0  0  0  0
  -19.5133   10.6244  -16.6349 C   0  0  0  0  0  0  0  0  0  0  0  0
  -19.0617    9.3304  -16.4611 C   0  0  0  0  0  0  0  0  0  0  0  0
  -18.9537    8.7607  -15.2254 C   0  0  0  0  0  0  0  0  0  0  0  0
  -19.2980    9.4616  -14.0495 C   0  0  0  0  0  0  0  0  0  0  0  0
  -19.7564   10.7831  -14.2777 C   0  0  0  0  0  0  0  0  0  0  0  0
  -19.8615   11.3445  -15.5152 C   0  0  0  0  0  0  0  0  0  0  0  0
  -20.3273   12.6174  -15.6652 F   0  0  0  0  0  0  0  0  0  0  0  0
  -19.2123    8.9588  -12.8486 N   0  0  0  0  0  0  0  0  0  0  0  0
  -19.1234    8.4300  -11.5848 C   0  0  0  0  0  0  0  0  0  0  0  0
  -19.9973    8.4863  -10.6539 O   0  0  0  0  0  0  0  0  0  0  0  0
  -17.9024    7.7132  -11.2246 N   0  0  0  0  0  0  0  0  0  0  0  0
  -20.3793    9.5875  -12.4283 H   0  0  0  0  0  0  0  0  0  0  0  0
  -17.1644    7.6323  -11.9312 H   0  0  0  0  0  0  0  0  0  0  0  0
  -17.8374    7.1842   -9.9105 C   0  0  0  0  0  0  0  0  0  0  0  0
  -17.2025    7.8355   -8.8814 C   0  0  0  0  0  0  0  0  0  0  0  0
  -16.5700    9.1534   -9.1559 C   0  0  0  0  0  0  0  0  0  0  0  0
  -17.1249    7.3116   -7.5863 C   0  0  0  0  0  0  0  0  0  0  0  0
  -17.7078    6.0786   -7.3035 C   0  0  0  0  0  0  0  0  0  0  0  0
  -18.3402    5.4367   -8.3395 C   0  0  0  0  0  0  0  0  0  0  0  0
  -18.4185    5.9478   -9.6105 C   0  0  0  0  0  0  0  0  0  0  0  0
  -19.0537    5.2922  -10.6290 F   0  0  0  0  0  0  0  0  0  0  0  0
  -19.2222   15.8318  -21.8998 O   0  0  0  0  0  0  0  0  0  0  0  0
  -18.4119   16.9818  -21.9252 C   0  0  0  0  0  0  0  0  0  0  0  0
  -17.6698   17.0387  -23.2581 C   0  0  0  0  0  0  0  0  0  0  0  0
  -16.2472   16.6015  -23.1743 C   0  0  0  0  0  0  0  0  0  0  0  0
  -15.8037   15.9143  -24.3319 N   0  0  0  0  0  0  0  0  0  0  0  0
  -16.8975   15.2518  -25.0227 C   0  0  0  0  0  0  0  0  0  0  0  0
  -16.9518   13.7878  -24.8065 C   0  0  0  0  0  0  0  0  0  0  0  0
  -15.7340   13.1233  -24.8391 O   0  0  0  0  0  0  0  0  0  0  0  0
  -14.9370   13.6731  -23.8419 C   0  0  0  0  0  0  0  0  0  0  0  0
  -14.6448   15.1006  -24.2245 C   0  0  0  0  0  0  0  0  0  0  0  0
 11 12  1  0  0  0
 12  1  1  0  0  0
  1  2  2  0  0  0
  2  3  1  0  0  0
  3  4  2  0  0  0
  4 13  1  0  0  0
 13 14  1  0  0  0
 14 15  2  0  0  0
 15 16  1  0  0  0
 16 17  2  0  0  0
 17 21  1  0  0  0
 21 22  1  0  0  0
 22 23  2  0  0  0
 22 24  1  0  0  0
 24 27  1  0  0  0
 27 28  2  0  0  0
 28 29  1  0  0  0
 28 30  1  0  0  0
 30 31  2  0  0  0
 31 32  1  0  0  0
 32 33  2  0  0  0
 33 34  1  0  0  0
 17 18  1  0  0  0
 18 19  2  0  0  0
 19 20  1  0  0  0
  4  5  1  0  0  0
  5  6  2  0  0  0
  6  7  1  0  0  0
  7  8  2  0  0  0
  8  9  1  0  0  0
  9 10  2  0  0  0
 10 35  1  0  0  0
 35 36  1  0  0  0
 36 37  1  0  0  0
 37 38  1  0  0  0
 38 39  1  0  0  0
 39 40  1  0  0  0
 40 41  1  0  0  0
 41 42  1  0  0  0
 42 43  1  0  0  0
 43 44  1  0  0  0
 10  1  1  0  0  0
 44 39  1  0  0  0
  8  3  1  0  0  0
 19 14  1  0  0  0
 33 27  1  0  0  0
 21 25  1  0  0  0
 24 26  1  0  0  0
M  END
> <minimizedAffinity>
-8.66432

> <CNNscore>
0.1597704440

> <CNNaffinity>
6.5536451340

> <CNN_VS>
1.0470788479

> <CNNaffinity_variance>
0.2706345022

$$$$
[H]c1nc2c([H])c(OC([H])([H])C([H])([H])C([H])([H])N3C([H])([H])C([H])([H])OC([H])([H])C3([H])[H])c(OC([H])([H])[H])c([H])c2c(Oc2c([H])c([H])c(N([H])C(=O)N([H])c3c(F)c([H])c([H])c([H])c3C([H])([H])[H])c([H])c2F)c1[H]


 44 48  0  0  0  0  0  0  0  0999 V2000
  -21.4649   11.6751  -13.6068 C   0  0  0  0  0  0  0  0  0  0  0  0
  -20.7751   11.7800  -14.7880 C   0  0  0  0  0  0  0  0  0  0  0  0
  -20.1902   10.6918  -15.4170 C   0  0  0  0  0  0  0  0  0  0  0  0
  -19.4860   10.8484  -16.6304 C   0  0  0  0  0  0  0  0  0  0  0  0
  -18.9075    9.7627  -17.2348 C   0  0  0  0  0  0  0  0  0  0  0  0
  -19.0228    8.5159  -16.6469 C   0  0  0  0  0  0  0  0  0  0  0  0
  -19.7090    8.3794  -15.4727 N   0  0  0  0  0  0  0  0  0  0  0  0
  -20.2761    9.4373  -14.8756 C   0  0  0  0  0  0  0  0  0  0  0  0
  -20.9771    9.3137  -13.6703 C   0  0  0  0  0  0  0  0  0  0  0  0
  -21.5589   10.3941  -13.0449 C   0  0  0  0  0  0  0  0  0  0  0  0
  -23.2663   13.2836  -13.4736 C   0  0  0  0  0  0  0  0  0  0  0  0
  -22.0474   12.7667  -12.9830 O   0  0  0  0  0  0  0  0  0  0  0  0
  -19.4637   12.1442  -17.0838 O   0  0  0  0  0  0  0  0  0  0  0  0
  -19.1810   12.6073  -18.3303 C   0  0  0  0  0  0  0  0  0  0  0  0
  -17.9450   12.3155  -18.8741 C   0  0  0  0  0  0  0  0  0  0  0  0
  -17.5822   12.7422  -20.1189 C   0  0  0  0  0  0  0  0  0  0  0  0
  -18.4505   13.5088  -20.9257 C   0  0  0  0  0  0  0  0  0  0  0  0
  -19.7047   13.7837  -20.3260 C   0  0  0  0  0  0  0  0  0  0  0  0
  -20.0591   13.3538  -19.0820 C   0  0  0  0  0  0  0  0  0  0  0  0
  -21.2777   13.6691  -18.5572 F   0  0  0  0  0  0  0  0  0  0  0  0
  -18.1475   13.9392  -22.1196 N   0  0  0  0  0  0  0  0  0  0  0  0
  -17.8295   14.3930  -23.3757 C   0  0  0  0  0  0  0  0  0  0  0  0
  -18.3920   15.3371  -24.0280 O   0  0  0  0  0  0  0  0  0  0  0  0
  -16.7260   13.7454  -24.0809 N   0  0  0  0  0  0  0  0  0  0  0  0
  -19.2679   14.7605  -22.1820 H   0  0  0  0  0  0  0  0  0  0  0  0
  -16.2332   12.9815  -23.6075 H   0  0  0  0  0  0  0  0  0  0  0  0
  -16.4256   14.2317  -25.3787 C   0  0  0  0  0  0  0  0  0  0  0  0
  -15.5355   15.2546  -25.5976 C   0  0  0  0  0  0  0  0  0  0  0  0
  -14.8519   15.8660  -24.4268 C   0  0  0  0  0  0  0  0  0  0  0  0
  -15.2455   15.7462  -26.8751 C   0  0  0  0  0  0  0  0  0  0  0  0
  -15.8732   15.1918  -27.9880 C   0  0  0  0  0  0  0  0  0  0  0  0
  -16.7605   14.1696  -27.7574 C   0  0  0  0  0  0  0  0  0  0  0  0
  -17.0469   13.6849  -26.5061 C   0  0  0  0  0  0  0  0  0  0  0  0
  -17.9343   12.6651  -26.2977 F   0  0  0  0  0  0  0  0  0  0  0  0
  -22.2600   10.3245  -11.8648 O   0  0  0  0  0  0  0  0  0  0  0  0
  -21.7309   10.2560  -10.5628 C   0  0  0  0  0  0  0  0  0  0  0  0
  -20.3486   10.9037  -10.5523 C   0  0  0  0  0  0  0  0  0  0  0  0
  -19.3878   10.2570   -9.6140 C   0  0  0  0  0  0  0  0  0  0  0  0
  -18.1558    9.9119  -10.2240 N   0  0  0  0  0  0  0  0  0  0  0  0
  -18.2734    8.7220  -11.0503 C   0  0  0  0  0  0  0  0  0  0  0  0
  -17.7158    7.4976  -10.4313 C   0  0  0  0  0  0  0  0  0  0  0  0
  -16.5058    7.6487   -9.7690 O   0  0  0  0  0  0  0  0  0  0  0  0
  -16.7011    8.5858   -8.7613 C   0  0  0  0  0  0  0  0  0  0  0  0
  -16.9867    9.9113   -9.4179 C   0  0  0  0  0  0  0  0  0  0  0  0
 11 12  1  0  0  0
 12  1  1  0  0  0
  1  2  2  0  0  0
  2  3  1  0  0  0
  3  4  2  0  0  0
  4 13  1  0  0  0
 13 14  1  0  0  0
 14 15  2  0  0  0
 15 16  1  0  0  0
 16 17  2  0  0  0
 17 21  1  0  0  0
 21 22  1  0  0  0
 22 23  2  0  0  0
 22 24  1  0  0  0
 24 27  1  0  0  0
 27 28  2  0  0  0
 28 29  1  0  0  0
 28 30  1  0  0  0
 30 31  2  0  0  0
 31 32  1  0  0  0
 32 33  2  0  0  0
 33 34  1  0  0  0
 17 18  1  0  0  0
 18 19  2  0  0  0
 19 20  1  0  0  0
  4  5  1  0  0  0
  5  6  2  0  0  0
  6  7  1  0  0  0
  7  8  2  0  0  0
  8  9  1  0  0  0
  9 10  2  0  0  0
 10 35  1  0  0  0
 35 36  1  0  0  0
 36 37  1  0  0  0
 37 38  1  0  0  0
 38 39  1  0  0  0
 39 40  1  0  0  0
 40 41  1  0  0  0
 41 42  1  0  0  0
 42 43  1  0  0  0
 43 44  1  0  0  0
 10  1  1  0  0  0
 44 39  1  0  0  0
  8  3  1  0  0  0
 19 14  1  0  0  0
 33 27  1  0  0  0
 21 25  1  0  0  0
 24 26  1  0  0  0
M  END
> <minimizedAffinity>
-9.18711

> <CNNscore>
0.1556692570

> <CNNaffinity>
6.7521200180

> <CNN_VS>
1.0510975122

> <CNNaffinity_variance>
0.1062249392

$$$$
[H]c1nc2c([H])c(OC([H])([H])C([H])([H])C([H])([H])N3C([H])([H])C([H])([H])OC([H])([H])C3([H])[H])c(OC([H])([H])[H])c([H])c2c(Oc2c([H])c([H])c(N([H])C(=O)N([H])c3c(F)c([H])c([H])c([H])c3C([H])([H])[H])c([H])c2F)c1[H]


 44 48  0  0  0  0  0  0  0  0999 V2000
  -20.4658   10.7698  -15.9831 C   0  0  0  0  0  0  0  0  0  0  0  0
  -19.8686   11.7102  -16.7839 C   0  0  0  0  0  0  0  0  0  0  0  0
  -18.8726   11.3985  -17.6964 C   0  0  0  0  0  0  0  0  0  0  0  0
  -18.2838   12.4008  -18.4971 C   0  0  0  0  0  0  0  0  0  0  0  0
  -17.2949   12.0760  -19.3889 C   0  0  0  0  0  0  0  0  0  0  0  0
  -16.8834   10.7599  -19.4977 C   0  0  0  0  0  0  0  0  0  0  0  0
  -17.4638    9.7999  -18.7169 N   0  0  0  0  0  0  0  0  0  0  0  0
  -18.4306   10.1110  -17.8418 C   0  0  0  0  0  0  0  0  0  0  0  0
  -19.0302    9.1395  -17.0317 C   0  0  0  0  0  0  0  0  0  0  0  0
  -20.0202    9.4482  -16.1253 C   0  0  0  0  0  0  0  0  0  0  0  0
  -21.6234   12.4265  -14.6545 C   0  0  0  0  0  0  0  0  0  0  0  0
  -21.4610   11.0878  -15.0729 O   0  0  0  0  0  0  0  0  0  0  0  0
  -18.8022   13.6522  -18.2719 O   0  0  0  0  0  0  0  0  0  0  0  0
  -18.9256   14.6932  -19.1375 C   0  0  0  0  0  0  0  0  0  0  0  0
  -19.6323   14.4933  -20.3077 C   0  0  0  0  0  0  0  0  0  0  0  0
  -19.8027   15.4855  -21.2295 C   0  0  0  0  0  0  0  0  0  0  0  0
  -19.2656   16.7772  -21.0412 C   0  0  0  0  0  0  0  0  0  0  0  0
  -18.5489   16.9340  -19.8286 C   0  0  0  0  0  0  0  0  0  0  0  0
  -18.3831   15.9377  -18.9134 C   0  0  0  0  0  0  0  0  0  0  0  0
  -17.6659   16.1517  -17.7733 F   0  0  0  0  0  0  0  0  0  0  0  0
  -19.4017   17.7556  -21.8936 N   0  0  0  0  0  0  0  0  0  0  0  0
  -19.5439   18.7845  -22.7912 C   0  0  0  0  0  0  0  0  0  0  0  0
  -18.8211   19.0289  -23.8165 O   0  0  0  0  0  0  0  0  0  0  0  0
  -20.6368   19.7315  -22.5829 N   0  0  0  0  0  0  0  0  0  0  0  0
  -18.1980   17.4628  -22.5256 H   0  0  0  0  0  0  0  0  0  0  0  0
  -21.2535   19.5865  -21.7773 H   0  0  0  0  0  0  0  0  0  0  0  0
  -20.7540   20.7869  -23.5227 C   0  0  0  0  0  0  0  0  0  0  0  0
  -20.1802   22.0193  -23.3264 C   0  0  0  0  0  0  0  0  0  0  0  0
  -19.3950   22.2490  -22.0844 C   0  0  0  0  0  0  0  0  0  0  0  0
  -20.3038   23.0676  -24.2448 C   0  0  0  0  0  0  0  0  0  0  0  0
  -21.0351   22.8786  -25.4151 C   0  0  0  0  0  0  0  0  0  0  0  0
  -21.6038   21.6428  -25.6011 C   0  0  0  0  0  0  0  0  0  0  0  0
  -21.4843   20.6125  -24.7028 C   0  0  0  0  0  0  0  0  0  0  0  0
  -22.0586   19.3882  -24.9071 F   0  0  0  0  0  0  0  0  0  0  0  0
  -20.6423    8.5318  -15.3114 O   0  0  0  0  0  0  0  0  0  0  0  0
  -20.0551    7.7639  -14.2891 C   0  0  0  0  0  0  0  0  0  0  0  0
  -19.9389    8.6177  -13.0290 C   0  0  0  0  0  0  0  0  0  0  0  0
  -18.6670    8.4141  -12.2789 C   0  0  0  0  0  0  0  0  0  0  0  0
  -18.8308    8.4746  -10.8723 N   0  0  0  0  0  0  0  0  0  0  0  0
  -19.1785    9.8125  -10.4230 C   0  0  0  0  0  0  0  0  0  0  0  0
  -18.0560   10.5539   -9.8039 C   0  0  0  0  0  0  0  0  0  0  0  0
  -17.2478    9.8250   -8.9430 O   0  0  0  0  0  0  0  0  0  0  0  0
  -16.7121    8.7707   -9.6733 C   0  0  0  0  0  0  0  0  0  0  0  0
  -17.8465    7.8564  -10.0565 C   0  0  0  0  0  0  0  0  0  0  0  0
 11 12  1  0  0  0
 12  1  1  0  0  0
  1  2  2  0  0  0
  2  3  1  0  0  0
  3  4  2  0  0  0
  4 13  1  0  0  0
 13 14  1  0  0  0
 14 15  2  0  0  0
 15 16  1  0  0  0
 16 17  2  0  0  0
 17 21  1  0  0  0
 21 22  1  0  0  0
 22 23  2  0  0  0
 22 24  1  0  0  0
 24 27  1  0  0  0
 27 28  2  0  0  0
 28 29  1  0  0  0
 28 30  1  0  0  0
 30 31  2  0  0  0
 31 32  1  0  0  0
 32 33  2  0  0  0
 33 34  1  0  0  0
 17 18  1  0  0  0
 18 19  2  0  0  0
 19 20  1  0  0  0
  4  5  1  0  0  0
  5  6  2  0  0  0
  6  7  1  0  0  0
  7  8  2  0  0  0
  8  9  1  0  0  0
  9 10  2  0  0  0
 10 35  1  0  0  0
 35 36  1  0  0  0
 36 37  1  0  0  0
 37 38  1  0  0  0
 38 39  1  0  0  0
 39 40  1  0  0  0
 40 41  1  0  0  0
 41 42  1  0  0  0
 42 43  1  0  0  0
 43 44  1  0  0  0
 10  1  1  0  0  0
 44 39  1  0  0  0
  8  3  1  0  0  0
 19 14  1  0  0  0
 33 27  1  0  0  0
 21 25  1  0  0  0
 24 26  1  0  0  0
M  END
> <minimizedAffinity>
-8.33825

> <CNNscore>
0.1516087353

> <CNNaffinity>
6.6646790504

> <CNN_VS>
1.0104235411

> <CNNaffinity_variance>
0.1190232038

$$$$
[H]c1nc2c([H])c(OC([H])([H])C([H])([H])C([H])([H])N3C([H])([H])C([H])([H])OC([H])([H])C3([H])[H])c(OC([H])([H])[H])c([H])c2c(Oc2c([H])c([H])c(N([H])C(=O)N([H])c3c(F)c([H])c([H])c([H])c3C([H])([H])[H])c([H])c2F)c1[H]


 44 48  0  0  0  0  0  0  0  0999 V2000
  -20.7190    9.9785  -15.6241 C   0  0  0  0  0  0  0  0  0  0  0  0
  -20.3235   11.0558  -16.3761 C   0  0  0  0  0  0  0  0  0  0  0  0
  -19.3043   10.9859  -17.3131 C   0  0  0  0  0  0  0  0  0  0  0  0
  -18.9287   12.1223  -18.0615 C   0  0  0  0  0  0  0  0  0  0  0  0
  -17.9136   12.0371  -18.9786 C   0  0  0  0  0  0  0  0  0  0  0  0
  -17.2653   10.8294  -19.1646 C   0  0  0  0  0  0  0  0  0  0  0  0
  -17.6411    9.7372  -18.4339 N   0  0  0  0  0  0  0  0  0  0  0  0
  -18.6321    9.8139  -17.5343 C   0  0  0  0  0  0  0  0  0  0  0  0
  -19.0240    8.7053  -16.7749 C   0  0  0  0  0  0  0  0  0  0  0  0
  -20.0368    8.7737  -15.8440 C   0  0  0  0  0  0  0  0  0  0  0  0
  -21.5095   10.7062  -13.4572 C   0  0  0  0  0  0  0  0  0  0  0  0
  -21.7386   10.0549  -14.6889 O   0  0  0  0  0  0  0  0  0  0  0  0
  -19.6675   13.2402  -17.7619 O   0  0  0  0  0  0  0  0  0  0  0  0
  -19.9263   14.3254  -18.5389 C   0  0  0  0  0  0  0  0  0  0  0  0
  -21.0239   14.2856  -19.3771 C   0  0  0  0  0  0  0  0  0  0  0  0
  -21.3536   15.3320  -20.1890 C   0  0  0  0  0  0  0  0  0  0  0  0
  -20.5908   16.5193  -20.2205 C   0  0  0  0  0  0  0  0  0  0  0  0
  -19.4756   16.5132  -19.3459 C   0  0  0  0  0  0  0  0  0  0  0  0
  -19.1532   15.4637  -18.5382 C   0  0  0  0  0  0  0  0  0  0  0  0
  -18.0545   15.5171  -17.7321 F   0  0  0  0  0  0  0  0  0  0  0  0
  -20.8663   17.5439  -20.9798 N   0  0  0  0  0  0  0  0  0  0  0  0
  -21.1568   18.6226  -21.7779 C   0  0  0  0  0  0  0  0  0  0  0  0
  -21.8362   19.6598  -21.4682 O   0  0  0  0  0  0  0  0  0  0  0  0
  -20.6480   18.6204  -23.1474 N   0  0  0  0  0  0  0  0  0  0  0  0
  -21.7475   18.0832  -20.0491 H   0  0  0  0  0  0  0  0  0  0  0  0
  -20.0930   17.8153  -23.4545 H   0  0  0  0  0  0  0  0  0  0  0  0
  -20.9698   19.7449  -23.9492 C   0  0  0  0  0  0  0  0  0  0  0  0
  -22.0715   19.7781  -24.7687 C   0  0  0  0  0  0  0  0  0  0  0  0
  -22.9674   18.5914  -24.8052 C   0  0  0  0  0  0  0  0  0  0  0  0
  -22.3861   20.8803  -25.5711 C   0  0  0  0  0  0  0  0  0  0  0  0
  -21.5626   22.0035  -25.5563 C   0  0  0  0  0  0  0  0  0  0  0  0
  -20.4646   21.9596  -24.7331 C   0  0  0  0  0  0  0  0  0  0  0  0
  -20.1533   20.8805  -23.9447 C   0  0  0  0  0  0  0  0  0  0  0  0
  -19.0543   20.8568  -23.1309 F   0  0  0  0  0  0  0  0  0  0  0  0
  -20.4611    7.7146  -15.0775 O   0  0  0  0  0  0  0  0  0  0  0  0
  -19.7846    7.1216  -13.9956 C   0  0  0  0  0  0  0  0  0  0  0  0
  -20.3081    5.7011  -13.7992 C   0  0  0  0  0  0  0  0  0  0  0  0
  -19.3315    4.6415  -14.1803 C   0  0  0  0  0  0  0  0  0  0  0  0
  -19.0507    3.7343  -13.1280 N   0  0  0  0  0  0  0  0  0  0  0  0
  -19.1897    4.3574  -11.8222 C   0  0  0  0  0  0  0  0  0  0  0  0
  -17.9026    4.7000  -11.1749 C   0  0  0  0  0  0  0  0  0  0  0  0
  -16.8976    3.7489  -11.2799 O   0  0  0  0  0  0  0  0  0  0  0  0
  -16.6555    3.5521  -12.6343 C   0  0  0  0  0  0  0  0  0  0  0  0
  -17.8878    2.9261  -13.2334 C   0  0  0  0  0  0  0  0  0  0  0  0
 11 12  1  0  0  0
 12  1  1  0  0  0
  1  2  2  0  0  0
  2  3  1  0  0  0
  3  4  2  0  0  0
  4 13  1  0  0  0
 13 14  1  0  0  0
 14 15  2  0  0  0
 15 16  1  0  0  0
 16 17  2  0  0  0
 17 21  1  0  0  0
 21 22  1  0  0  0
 22 23  2  0  0  0
 22 24  1  0  0  0
 24 27  1  0  0  0
 27 28  2  0  0  0
 28 29  1  0  0  0
 28 30  1  0  0  0
 30 31  2  0  0  0
 31 32  1  0  0  0
 32 33  2  0  0  0
 33 34  1  0  0  0
 17 18  1  0  0  0
 18 19  2  0  0  0
 19 20  1  0  0  0
  4  5  1  0  0  0
  5  6  2  0  0  0
  6  7  1  0  0  0
  7  8  2  0  0  0
  8  9  1  0  0  0
  9 10  2  0  0  0
 10 35  1  0  0  0
 35 36  1  0  0  0
 36 37  1  0  0  0
 37 38  1  0  0  0
 38 39  1  0  0  0
 39 40  1  0  0  0
 40 41  1  0  0  0
 41 42  1  0  0  0
 42 43  1  0  0  0
 43 44  1  0  0  0
 10  1  1  0  0  0
 44 39  1  0  0  0
  8  3  1  0  0  0
 19 14  1  0  0  0
 33 27  1  0  0  0
 21 25  1  0  0  0
 24 26  1  0  0  0
M  END
> <minimizedAffinity>
-7.54479

> <CNNscore>
0.1494477093

> <CNNaffinity>
6.5687971115

> <CNN_VS>
0.9816916585

> <CNNaffinity_variance>
0.0682405233

$$$$
[H]c1nc2c([H])c(OC([H])([H])C([H])([H])C([H])([H])N3C([H])([H])C([H])([H])OC([H])([H])C3([H])[H])c(OC([H])([H])[H])c([H])c2c(Oc2c([H])c([H])c(N([H])C(=O)N([H])c3c(F)c([H])c([H])c([H])c3C([H])([H])[H])c([H])c2F)c1[H]


 44 48  0  0  0  0  0  0  0  0999 V2000
  -19.9471   10.7941  -16.0203 C   0  0  0  0  0  0  0  0  0  0  0  0
  -19.6329   11.8221  -16.8728 C   0  0  0  0  0  0  0  0  0  0  0  0
  -18.7943   11.6640  -17.9653 C   0  0  0  0  0  0  0  0  0  0  0  0
  -18.4960   12.7523  -18.8134 C   0  0  0  0  0  0  0  0  0  0  0  0
  -17.6589   12.5799  -19.8849 C   0  0  0  0  0  0  0  0  0  0  0  0
  -17.1136   11.3319  -20.1274 C   0  0  0  0  0  0  0  0  0  0  0  0
  -17.4128   10.2872  -19.2985 N   0  0  0  0  0  0  0  0  0  0  0  0
  -18.2298   10.4493  -18.2480 C   0  0  0  0  0  0  0  0  0  0  0  0
  -18.5408    9.3900  -17.3874 C   0  0  0  0  0  0  0  0  0  0  0  0
  -19.3742    9.5460  -16.3020 C   0  0  0  0  0  0  0  0  0  0  0  0
  -21.5117   12.1607  -14.7816 C   0  0  0  0  0  0  0  0  0  0  0  0
  -20.7861   10.9586  -14.9298 O   0  0  0  0  0  0  0  0  0  0  0  0
  -19.1154   13.9195  -18.4400 O   0  0  0  0  0  0  0  0  0  0  0  0
  -19.4543   14.9890  -19.2077 C   0  0  0  0  0  0  0  0  0  0  0  0
  -20.6671   14.9641  -19.8690 C   0  0  0  0  0  0  0  0  0  0  0  0
  -21.0826   15.9965  -20.6593 C   0  0  0  0  0  0  0  0  0  0  0  0
  -20.2958   17.1533  -20.8480 C   0  0  0  0  0  0  0  0  0  0  0  0
  -19.0617   17.1327  -20.1516 C   0  0  0  0  0  0  0  0  0  0  0  0
  -18.6541   16.0974  -19.3644 C   0  0  0  0  0  0  0  0  0  0  0  0
  -17.4447   16.1349  -18.7354 F   0  0  0  0  0  0  0  0  0  0  0  0
  -20.6505   18.1635  -21.5936 N   0  0  0  0  0  0  0  0  0  0  0  0
  -21.0246   19.2257  -22.3788 C   0  0  0  0  0  0  0  0  0  0  0  0
  -21.8065   19.2097  -23.3895 O   0  0  0  0  0  0  0  0  0  0  0  0
  -20.4857   20.5440  -22.0527 N   0  0  0  0  0  0  0  0  0  0  0  0
  -21.2843   17.3440  -22.5213 H   0  0  0  0  0  0  0  0  0  0  0  0
  -19.8535   20.6215  -21.2498 H   0  0  0  0  0  0  0  0  0  0  0  0
  -20.8851   21.6201  -22.8855 C   0  0  0  0  0  0  0  0  0  0  0  0
  -21.9648   22.4181  -22.5962 C   0  0  0  0  0  0  0  0  0  0  0  0
  -22.7361   22.1488  -21.3534 C   0  0  0  0  0  0  0  0  0  0  0  0
  -22.3702   23.4729  -23.4213 C   0  0  0  0  0  0  0  0  0  0  0  0
  -21.6656   23.7451  -24.5915 C   0  0  0  0  0  0  0  0  0  0  0  0
  -20.5879   22.9415  -24.8705 C   0  0  0  0  0  0  0  0  0  0  0  0
  -20.1874   21.9065  -24.0634 C   0  0  0  0  0  0  0  0  0  0  0  0
  -19.1101   21.1174  -24.3593 F   0  0  0  0  0  0  0  0  0  0  0  0
  -19.7133    8.5382  -15.4311 O   0  0  0  0  0  0  0  0  0  0  0  0
  -20.6714    7.5272  -15.6302 C   0  0  0  0  0  0  0  0  0  0  0  0
  -21.4144    7.2801  -14.3197 C   0  0  0  0  0  0  0  0  0  0  0  0
  -22.8789    7.5462  -14.3985 C   0  0  0  0  0  0  0  0  0  0  0  0
  -23.1966    8.9274  -14.4186 N   0  0  0  0  0  0  0  0  0  0  0  0
  -23.5662    9.4189  -13.1017 C   0  0  0  0  0  0  0  0  0  0  0  0
  -25.0221    9.6165  -12.9159 C   0  0  0  0  0  0  0  0  0  0  0  0
  -25.6975   10.1947  -13.9814 O   0  0  0  0  0  0  0  0  0  0  0  0
  -25.5160    9.3670  -15.0831 C   0  0  0  0  0  0  0  0  0  0  0  0
  -24.0543    9.4021  -15.4461 C   0  0  0  0  0  0  0  0  0  0  0  0
 11 12  1  0  0  0
 12  1  1  0  0  0
  1  2  2  0  0  0
  2  3  1  0  0  0
  3  4  2  0  0  0
  4 13  1  0  0  0
 13 14  1  0  0  0
 14 15  2  0  0  0
 15 16  1  0  0  0
 16 17  2  0  0  0
 17 21  1  0  0  0
 21 22  1  0  0  0
 22 23  2  0  0  0
 22 24  1  0  0  0
 24 27  1  0  0  0
 27 28  2  0  0  0
 28 29  1  0  0  0
 28 30  1  0  0  0
 30 31  2  0  0  0
 31 32  1  0  0  0
 32 33  2  0  0  0
 33 34  1  0  0  0
 17 18  1  0  0  0
 18 19  2  0  0  0
 19 20  1  0  0  0
  4  5  1  0  0  0
  5  6  2  0  0  0
  6  7  1  0  0  0
  7  8  2  0  0  0
  8  9  1  0  0  0
  9 10  2  0  0  0
 10 35  1  0  0  0
 35 36  1  0  0  0
 36 37  1  0  0  0
 37 38  1  0  0  0
 38 39  1  0  0  0
 39 40  1  0  0  0
 40 41  1  0  0  0
 41 42  1  0  0  0
 42 43  1  0  0  0
 43 44  1  0  0  0
 10  1  1  0  0  0
 44 39  1  0  0  0
  8  3  1  0  0  0
 19 14  1  0  0  0
 33 27  1  0  0  0
 21 25  1  0  0  0
 24 26  1  0  0  0
M  END
> <minimizedAffinity>
-7.03685

> <CNNscore>
0.1458939016

> <CNNaffinity>
6.7023491859

> <CNN_VS>
0.9778319001

> <CNNaffinity_variance>
0.1745398492

$$$$
[H]c1nc2c([H])c(OC([H])([H])C([H])([H])C([H])([H])N3C([H])([H])C([H])([H])OC([H])([H])C3([H])[H])c(OC([H])([H])[H])c([H])c2c(Oc2c([H])c([H])c(N([H])C(=O)N([H])c3c(F)c([H])c([H])c([H])c3C([H])([H])[H])c([H])c2F)c1[H]


 44 48  0  0  0  0  0  0  0  0999 V2000
  -20.6044   10.0791  -15.6799 C   0  0  0  0  0  0  0  0  0  0  0  0
  -20.2085   11.1524  -16.4373 C   0  0  0  0  0  0  0  0  0  0  0  0
  -19.2165   11.0676  -17.4018 C   0  0  0  0  0  0  0  0  0  0  0  0
  -18.8392   12.2004  -18.1548 C   0  0  0  0  0  0  0  0  0  0  0  0
  -17.8510   12.1004  -19.0994 C   0  0  0  0  0  0  0  0  0  0  0  0
  -17.2315   10.8814  -19.3084 C   0  0  0  0  0  0  0  0  0  0  0  0
  -17.6086    9.7929  -18.5728 N   0  0  0  0  0  0  0  0  0  0  0  0
  -18.5734    9.8841  -17.6465 C   0  0  0  0  0  0  0  0  0  0  0  0
  -18.9661    8.7793  -16.8818 C   0  0  0  0  0  0  0  0  0  0  0  0
  -19.9519    8.8624  -15.9236 C   0  0  0  0  0  0  0  0  0  0  0  0
  -21.3275   10.8263  -13.4961 C   0  0  0  0  0  0  0  0  0  0  0  0
  -21.5968   10.1703  -14.7171 O   0  0  0  0  0  0  0  0  0  0  0  0
  -19.5478   13.3308  -17.8303 O   0  0  0  0  0  0  0  0  0  0  0  0
  -19.8108   14.4224  -18.5967 C   0  0  0  0  0  0  0  0  0  0  0  0
  -20.9143   14.3906  -19.4274 C   0  0  0  0  0  0  0  0  0  0  0  0
  -21.2484   15.4439  -20.2286 C   0  0  0  0  0  0  0  0  0  0  0  0
  -20.4844   16.6306  -20.2560 C   0  0  0  0  0  0  0  0  0  0  0  0
  -19.3631   16.6161  -19.3893 C   0  0  0  0  0  0  0  0  0  0  0  0
  -19.0363   15.5598  -18.5923 C   0  0  0  0  0  0  0  0  0  0  0  0
  -17.9319   15.6055  -17.7935 F   0  0  0  0  0  0  0  0  0  0  0  0
  -20.7640   17.6615  -21.0051 N   0  0  0  0  0  0  0  0  0  0  0  0
  -21.0587   18.7469  -21.7924 C   0  0  0  0  0  0  0  0  0  0  0  0
  -21.7101   19.7953  -21.4611 O   0  0  0  0  0  0  0  0  0  0  0  0
  -20.5908   18.7386  -23.1765 N   0  0  0  0  0  0  0  0  0  0  0  0
  -21.6076   18.2143  -20.0478 H   0  0  0  0  0  0  0  0  0  0  0  0
  -20.0595   17.9245  -23.5011 H   0  0  0  0  0  0  0  0  0  0  0  0
  -20.9162   19.8704  -23.9665 C   0  0  0  0  0  0  0  0  0  0  0  0
  -22.0230   19.9121  -24.7787 C   0  0  0  0  0  0  0  0  0  0  0  0
  -22.9207   18.7270  -24.8197 C   0  0  0  0  0  0  0  0  0  0  0  0
  -22.3412   21.0216  -25.5696 C   0  0  0  0  0  0  0  0  0  0  0  0
  -21.5160   22.1435  -25.5503 C   0  0  0  0  0  0  0  0  0  0  0  0
  -20.4129   22.0911  -24.7345 C   0  0  0  0  0  0  0  0  0  0  0  0
  -20.0981   21.0049  -23.9574 C   0  0  0  0  0  0  0  0  0  0  0  0
  -18.9940   20.9727  -23.1508 F   0  0  0  0  0  0  0  0  0  0  0  0
  -20.3758    7.8078  -15.1508 O   0  0  0  0  0  0  0  0  0  0  0  0
  -19.6034    7.0410  -14.2592 C   0  0  0  0  0  0  0  0  0  0  0  0
  -20.4119    5.8226  -13.8207 C   0  0  0  0  0  0  0  0  0  0  0  0
  -20.6755    5.7707  -12.3546 C   0  0  0  0  0  0  0  0  0  0  0  0
  -22.0548    5.6990  -12.0359 N   0  0  0  0  0  0  0  0  0  0  0  0
  -22.8763    6.3800  -13.0228 C   0  0  0  0  0  0  0  0  0  0  0  0
  -23.3747    7.7043  -12.5857 C   0  0  0  0  0  0  0  0  0  0  0  0
  -23.8261    7.7814  -11.2758 O   0  0  0  0  0  0  0  0  0  0  0  0
  -22.7629    7.4319  -10.4516 C   0  0  0  0  0  0  0  0  0  0  0  0
  -22.4488    5.9797  -10.7008 C   0  0  0  0  0  0  0  0  0  0  0  0
 11 12  1  0  0  0
 12  1  1  0  0  0
  1  2  2  0  0  0
  2  3  1  0  0  0
  3  4  2  0  0  0
  4 13  1  0  0  0
 13 14  1  0  0  0
 14 15  2  0  0  0
 15 16  1  0  0  0
 16 17  2  0  0  0
 17 21  1  0  0  0
 21 22  1  0  0  0
 22 23  2  0  0  0
 22 24  1  0  0  0
 24 27  1  0  0  0
 27 28  2  0  0  0
 28 29  1  0  0  0
 28 30  1  0  0  0
 30 31  2  0  0  0
 31 32  1  0  0  0
 32 33  2  0  0  0
 33 34  1  0  0  0
 17 18  1  0  0  0
 18 19  2  0  0  0
 19 20  1  0  0  0
  4  5  1  0  0  0
  5  6  2  0  0  0
  6  7  1  0  0  0
  7  8  2  0  0  0
  8  9  1  0  0  0
  9 10  2  0  0  0
 10 35  1  0  0  0
 35 36  1  0  0  0
 36 37  1  0  0  0
 37 38  1  0  0  0
 38 39  1  0  0  0
 39 40  1  0  0  0
 40 41  1  0  0  0
 41 42  1  0  0  0
 42 43  1  0  0  0
 43 44  1  0  0  0
 10  1  1  0  0  0
 44 39  1  0  0  0
  8  3  1  0  0  0
 19 14  1  0  0  0
 33 27  1  0  0  0
 21 25  1  0  0  0
 24 26  1  0  0  0
M  END
> <minimizedAffinity>
-7.01782

> <CNNscore>
0.1309892684

> <CNNaffinity>
6.4928855896

> <CNN_VS>
0.8504983187

> <CNNaffinity_variance>
0.0659044832

$$$$
[H]c1nc2c([H])c(OC([H])([H])C([H])([H])C([H])([H])N3C([H])([H])C([H])([H])OC([H])([H])C3([H])[H])c(OC([H])([H])[H])c([H])c2c(Oc2c([H])c([H])c(N([H])C(=O)c3c(Cl)c([H])c([H])c([H])c3Cl)c([H])c2F)c1[H]


 42 46  0  0  0  0  0  0  0  0999 V2000
  -19.9950   10.9467  -16.2610 C   0  0  0  0  0  0  0  0  0  0  0  0
  -19.5837   11.8532  -17.1786 C   0  0  0  0  0  0  0  0  0  0  0  0
  -18.6842   11.4971  -18.1773 C   0  0  0  0  0  0  0  0  0  0  0  0
  -18.2521   12.4480  -19.1382 C   0  0  0  0  0  0  0  0  0  0  0  0
  -17.3606   12.0264  -20.0964 C   0  0  0  0  0  0  0  0  0  0  0  0
  -16.9091   10.7137  -20.1090 C   0  0  0  0  0  0  0  0  0  0  0  0
  -17.3227    9.8493  -19.2093 N   0  0  0  0  0  0  0  0  0  0  0  0
  -18.2028   10.2187  -18.2435 C   0  0  0  0  0  0  0  0  0  0  0  0
  -18.6125    9.2737  -17.3124 C   0  0  0  0  0  0  0  0  0  0  0  0
  -19.4988    9.6349  -16.3315 C   0  0  0  0  0  0  0  0  0  0  0  0
  -22.2697   11.0730  -15.3576 C   0  0  0  0  0  0  0  0  0  0  0  0
  -20.8950   11.2909  -15.2567 O   0  0  0  0  0  0  0  0  0  0  0  0
  -18.7572   13.6687  -19.0172 O   0  0  0  0  0  0  0  0  0  0  0  0
  -19.4284   14.6255  -19.6453 C   0  0  0  0  0  0  0  0  0  0  0  0
  -20.7434   14.9486  -19.4814 C   0  0  0  0  0  0  0  0  0  0  0  0
  -21.3984   15.9826  -20.1836 C   0  0  0  0  0  0  0  0  0  0  0  0
  -20.7062   16.7113  -21.0783 C   0  0  0  0  0  0  0  0  0  0  0  0
  -19.3641   16.4144  -21.2744 C   0  0  0  0  0  0  0  0  0  0  0  0
  -18.7293   15.4091  -20.5902 C   0  0  0  0  0  0  0  0  0  0  0  0
  -17.4115   15.1524  -20.8120 F   0  0  0  0  0  0  0  0  0  0  0  0
  -21.2720   17.7520  -21.8731 N   0  0  0  0  0  0  0  0  0  0  0  0
  -22.6102   17.8703  -22.2152 C   0  0  0  0  0  0  0  0  0  0  0  0
  -23.3962   16.9615  -21.7689 O   0  0  0  0  0  0  0  0  0  0  0  0
  -20.5919   18.4980  -22.1856 H   0  0  0  0  0  0  0  0  0  0  0  0
  -23.2495   18.9037  -23.0181 C   0  0  0  0  0  0  0  0  0  0  0  0
  -23.6125   18.7843  -24.3253 C   0  0  0  0  0  0  0  0  0  0  0  0
  -23.4703   17.2510  -25.1687 Cl  0  0  0  0  0  0  0  0  0  0  0  0
  -24.1684   19.8438  -25.0662 C   0  0  0  0  0  0  0  0  0  0  0  0
  -24.3680   21.0631  -24.4733 C   0  0  0  0  0  0  0  0  0  0  0  0
  -24.0023   21.1896  -23.1424 C   0  0  0  0  0  0  0  0  0  0  0  0
  -23.4661   20.1652  -22.4336 C   0  0  0  0  0  0  0  0  0  0  0  0
  -23.0224   20.3733  -20.7690 Cl  0  0  0  0  0  0  0  0  0  0  0  0
  -19.9615    8.7955  -15.3716 O   0  0  0  0  0  0  0  0  0  0  0  0
  -19.4089    7.7660  -14.6955 C   0  0  0  0  0  0  0  0  0  0  0  0
  -19.7619    7.5921  -13.2377 C   0  0  0  0  0  0  0  0  0  0  0  0
  -19.7925    6.1421  -12.8489 C   0  0  0  0  0  0  0  0  0  0  0  0
  -18.9855    5.7616  -11.7675 N   0  0  0  0  0  0  0  0  0  0  0  0
  -18.3346    6.9510  -11.2097 C   0  0  0  0  0  0  0  0  0  0  0  0
  -17.7897    6.6712   -9.8238 C   0  0  0  0  0  0  0  0  0  0  0  0
  -17.5545    5.3017   -9.6640 O   0  0  0  0  0  0  0  0  0  0  0  0
  -17.0266    4.7565  -10.8403 C   0  0  0  0  0  0  0  0  0  0  0  0
  -18.0887    4.6881  -11.9386 C   0  0  0  0  0  0  0  0  0  0  0  0
 11 12  1  0  0  0
 12  1  1  0  0  0
  1  2  2  0  0  0
  2  3  1  0  0  0
  3  4  2  0  0  0
  4 13  1  0  0  0
 13 14  1  0  0  0
 14 15  2  0  0  0
 15 16  1  0  0  0
 16 17  2  0  0  0
 17 21  1  0  0  0
 21 22  1  0  0  0
 22 23  2  0  0  0
 22 25  1  0  0  0
 25 26  2  0  0  0
 26 27  1  0  0  0
 26 28  1  0  0  0
 28 29  2  0  0  0
 29 30  1  0  0  0
 30 31  2  0  0  0
 31 32  1  0  0  0
 17 18  1  0  0  0
 18 19  2  0  0  0
 19 20  1  0  0  0
  4  5  1  0  0  0
  5  6  2  0  0  0
  6  7  1  0  0  0
  7  8  2  0  0  0
  8  9  1  0  0  0
  9 10  2  0  0  0
 10 33  1  0  0  0
 33 34  1  0  0  0
 34 35  1  0  0  0
 35 36  1  0  0  0
 36 37  1  0  0  0
 37 38  1  0  0  0
 38 39  1  0  0  0
 39 40  1  0  0  0
 40 41  1  0  0  0
 41 42  1  0  0  0
 10  1  1  0  0  0
 42 37  1  0  0  0
  8  3  1  0  0  0
 19 14  1  0  0  0
 31 25  1  0  0  0
 21 24  1  0  0  0
M  END
> <minimizedAffinity>
-7.79628

> <CNNscore>
0.7023189068

> <CNNaffinity>
7.1171960831

> <CNN_VS>
4.9985413551

> <CNNaffinity_variance>
0.1422315985

$$$$
[H]c1nc2c([H])c(OC([H])([H])C([H])([H])C([H])([H])N3C([H])([H])C([H])([H])OC([H])([H])C3([H])[H])c(OC([H])([H])[H])c([H])c2c(Oc2c([H])c([H])c(N([H])C(=O)c3c(Cl)c([H])c([H])c([H])c3Cl)c([H])c2F)c1[H]


 42 46  0  0  0  0  0  0  0  0999 V2000
  -19.1389   12.5440  -19.3229 C   0  0  0  0  0  0  0  0  0  0  0  0
  -18.5091   12.7614  -20.5015 C   0  0  0  0  0  0  0  0  0  0  0  0
  -17.3907   12.0166  -20.8588 C   0  0  0  0  0  0  0  0  0  0  0  0
  -16.7298   12.2457  -22.0937 C   0  0  0  0  0  0  0  0  0  0  0  0
  -15.6294   11.4729  -22.3810 C   0  0  0  0  0  0  0  0  0  0  0  0
  -15.1935   10.5074  -21.4839 C   0  0  0  0  0  0  0  0  0  0  0  0
  -15.8209   10.3117  -20.3456 N   0  0  0  0  0  0  0  0  0  0  0  0
  -16.9124   11.0501  -20.0177 C   0  0  0  0  0  0  0  0  0  0  0  0
  -17.5441   10.8110  -18.8046 C   0  0  0  0  0  0  0  0  0  0  0  0
  -18.6453   11.5511  -18.4614 C   0  0  0  0  0  0  0  0  0  0  0  0
  -20.8420   14.2464  -19.7784 C   0  0  0  0  0  0  0  0  0  0  0  0
  -20.2592   13.2829  -18.9541 O   0  0  0  0  0  0  0  0  0  0  0  0
  -17.2449   13.1967  -22.8620 O   0  0  0  0  0  0  0  0  0  0  0  0
  -17.5663   14.4827  -22.9172 C   0  0  0  0  0  0  0  0  0  0  0  0
  -17.2335   15.4512  -22.0161 C   0  0  0  0  0  0  0  0  0  0  0  0
  -17.6085   16.8064  -22.1352 C   0  0  0  0  0  0  0  0  0  0  0  0
  -18.3418   17.1955  -23.1942 C   0  0  0  0  0  0  0  0  0  0  0  0
  -18.7011   16.2397  -24.1351 C   0  0  0  0  0  0  0  0  0  0  0  0
  -18.3350   14.9230  -24.0176 C   0  0  0  0  0  0  0  0  0  0  0  0
  -18.7075   14.0189  -24.9640 F   0  0  0  0  0  0  0  0  0  0  0  0
  -18.8110   18.5271  -23.3978 N   0  0  0  0  0  0  0  0  0  0  0  0
  -19.9783   19.0610  -22.8742 C   0  0  0  0  0  0  0  0  0  0  0  0
  -20.6853   18.2812  -22.1430 O   0  0  0  0  0  0  0  0  0  0  0  0
  -18.1758   19.1432  -23.9754 H   0  0  0  0  0  0  0  0  0  0  0  0
  -20.5111   20.4062  -23.0418 C   0  0  0  0  0  0  0  0  0  0  0  0
  -20.0904   21.5169  -22.3753 C   0  0  0  0  0  0  0  0  0  0  0  0
  -18.7006   21.4587  -21.3040 Cl  0  0  0  0  0  0  0  0  0  0  0  0
  -20.6911   22.7795  -22.5344 C   0  0  0  0  0  0  0  0  0  0  0  0
  -21.7482   22.9316  -23.3931 C   0  0  0  0  0  0  0  0  0  0  0  0
  -22.1791   21.8049  -24.0756 C   0  0  0  0  0  0  0  0  0  0  0  0
  -21.5969   20.5902  -23.9176 C   0  0  0  0  0  0  0  0  0  0  0  0
  -22.1738   19.2081  -24.7938 Cl  0  0  0  0  0  0  0  0  0  0  0  0
  -19.3352   11.4039  -17.3027 O   0  0  0  0  0  0  0  0  0  0  0  0
  -20.0163   10.3759  -16.7536 C   0  0  0  0  0  0  0  0  0  0  0  0
  -19.2521    9.3649  -15.9326 C   0  0  0  0  0  0  0  0  0  0  0  0
  -20.1082    8.1825  -15.5810 C   0  0  0  0  0  0  0  0  0  0  0  0
  -20.0827    7.7601  -14.2445 N   0  0  0  0  0  0  0  0  0  0  0  0
  -19.0849    8.5441  -13.5102 C   0  0  0  0  0  0  0  0  0  0  0  0
  -19.2943    8.4235  -12.0143 C   0  0  0  0  0  0  0  0  0  0  0  0
  -19.9723    7.2373  -11.7149 O   0  0  0  0  0  0  0  0  0  0  0  0
  -19.5163    6.1951  -12.5307 C   0  0  0  0  0  0  0  0  0  0  0  0
  -19.9884    6.3804  -13.9736 C   0  0  0  0  0  0  0  0  0  0  0  0
 11 12  1  0  0  0
 12  1  1  0  0  0
  1  2  2  0  0  0
  2  3  1  0  0  0
  3  4  2  0  0  0
  4 13  1  0  0  0
 13 14  1  0  0  0
 14 15  2  0  0  0
 15 16  1  0  0  0
 16 17  2  0  0  0
 17 21  1  0  0  0
 21 22  1  0  0  0
 22 23  2  0  0  0
 22 25  1  0  0  0
 25 26  2  0  0  0
 26 27  1  0  0  0
 26 28  1  0  0  0
 28 29  2  0  0  0
 29 30  1  0  0  0
 30 31  2  0  0  0
 31 32  1  0  0  0
 17 18  1  0  0  0
 18 19  2  0  0  0
 19 20  1  0  0  0
  4  5  1  0  0  0
  5  6  2  0  0  0
  6  7  1  0  0  0
  7  8  2  0  0  0
  8  9  1  0  0  0
  9 10  2  0  0  0
 10 33  1  0  0  0
 33 34  1  0  0  0
 34 35  1  0  0  0
 35 36  1  0  0  0
 36 37  1  0  0  0
 37 38  1  0  0  0
 38 39  1  0  0  0
 39 40  1  0  0  0
 40 41  1  0  0  0
 41 42  1  0  0  0
 10  1  1  0  0  0
 42 37  1  0  0  0
  8  3  1  0  0  0
 19 14  1  0  0  0
 31 25  1  0  0  0
 21 24  1  0  0  0
M  END
> <minimizedAffinity>
-8.36102

> <CNNscore>
0.5715836883

> <CNNaffinity>
7.3467063904

> <CNN_VS>
4.1992573738

> <CNNaffinity_variance>
0.1761414260

$$$$
[H]c1nc2c([H])c(OC([H])([H])C([H])([H])C([H])([H])N3C([H])([H])C([H])([H])OC([H])([H])C3([H])[H])c(OC([H])([H])[H])c([H])c2c(Oc2c([H])c([H])c(N([H])C(=O)c3c(Cl)c([H])c([H])c([H])c3Cl)c([H])c2F)c1[H]


 42 46  0  0  0  0  0  0  0  0999 V2000
  -20.0839   10.8202  -16.4570 C   0  0  0  0  0  0  0  0  0  0  0  0
  -19.6830   11.8420  -17.2498 C   0  0  0  0  0  0  0  0  0  0  0  0
  -18.7112   11.6470  -18.2249 C   0  0  0  0  0  0  0  0  0  0  0  0
  -18.2901   12.7186  -19.0548 C   0  0  0  0  0  0  0  0  0  0  0  0
  -17.3242   12.4539  -19.9970 C   0  0  0  0  0  0  0  0  0  0  0  0
  -16.7904   11.1783  -20.1188 C   0  0  0  0  0  0  0  0  0  0  0  0
  -17.1953   10.2002  -19.3396 N   0  0  0  0  0  0  0  0  0  0  0  0
  -18.1469   10.4129  -18.3945 C   0  0  0  0  0  0  0  0  0  0  0  0
  -18.5445    9.3517  -17.5923 C   0  0  0  0  0  0  0  0  0  0  0  0
  -19.5025    9.5543  -16.6335 C   0  0  0  0  0  0  0  0  0  0  0  0
  -20.8145   11.6796  -14.2813 C   0  0  0  0  0  0  0  0  0  0  0  0
  -21.0558   11.0027  -15.4776 O   0  0  0  0  0  0  0  0  0  0  0  0
  -18.8773   13.8883  -18.8382 O   0  0  0  0  0  0  0  0  0  0  0  0
  -19.5099   14.9012  -19.4164 C   0  0  0  0  0  0  0  0  0  0  0  0
  -19.0549   16.1792  -19.5584 C   0  0  0  0  0  0  0  0  0  0  0  0
  -19.7809   17.2131  -20.1871 C   0  0  0  0  0  0  0  0  0  0  0  0
  -21.0025   16.9497  -20.6863 C   0  0  0  0  0  0  0  0  0  0  0  0
  -21.5020   15.6602  -20.5625 C   0  0  0  0  0  0  0  0  0  0  0  0
  -20.7942   14.6565  -19.9514 C   0  0  0  0  0  0  0  0  0  0  0  0
  -21.3209   13.4057  -19.8528 F   0  0  0  0  0  0  0  0  0  0  0  0
  -21.8416   17.9230  -21.3054 N   0  0  0  0  0  0  0  0  0  0  0  0
  -21.7146   18.3898  -22.6045 C   0  0  0  0  0  0  0  0  0  0  0  0
  -20.7590   17.8928  -23.2991 O   0  0  0  0  0  0  0  0  0  0  0  0
  -22.6379   18.2749  -20.7064 H   0  0  0  0  0  0  0  0  0  0  0  0
  -22.5346   19.3764  -23.2942 C   0  0  0  0  0  0  0  0  0  0  0  0
  -22.5171   20.7201  -23.0725 C   0  0  0  0  0  0  0  0  0  0  0  0
  -21.3446   21.4435  -21.9842 Cl  0  0  0  0  0  0  0  0  0  0  0  0
  -23.3826   21.6161  -23.7270 C   0  0  0  0  0  0  0  0  0  0  0  0
  -24.2945   21.1468  -24.6358 C   0  0  0  0  0  0  0  0  0  0  0  0
  -24.3153   19.7803  -24.8670 C   0  0  0  0  0  0  0  0  0  0  0  0
  -23.4793   18.9213  -24.2325 C   0  0  0  0  0  0  0  0  0  0  0  0
  -23.5448   17.2175  -24.5546 Cl  0  0  0  0  0  0  0  0  0  0  0  0
  -19.9611    8.5917  -15.7948 O   0  0  0  0  0  0  0  0  0  0  0  0
  -19.4931    8.0660  -14.6430 C   0  0  0  0  0  0  0  0  0  0  0  0
  -20.4056    7.1707  -13.8392 C   0  0  0  0  0  0  0  0  0  0  0  0
  -19.9236    5.7487  -13.8435 C   0  0  0  0  0  0  0  0  0  0  0  0
  -19.1964    5.3255  -12.7221 N   0  0  0  0  0  0  0  0  0  0  0  0
  -19.3481    3.8754  -12.5683 C   0  0  0  0  0  0  0  0  0  0  0  0
  -18.2850    3.3138  -11.6461 C   0  0  0  0  0  0  0  0  0  0  0  0
  -17.8137    4.3119  -10.7870 O   0  0  0  0  0  0  0  0  0  0  0  0
  -18.8680    5.1299  -10.3639 C   0  0  0  0  0  0  0  0  0  0  0  0
  -19.3674    6.0163  -11.5058 C   0  0  0  0  0  0  0  0  0  0  0  0
 11 12  1  0  0  0
 12  1  1  0  0  0
  1  2  2  0  0  0
  2  3  1  0  0  0
  3  4  2  0  0  0
  4 13  1  0  0  0
 13 14  1  0  0  0
 14 15  2  0  0  0
 15 16  1  0  0  0
 16 17  2  0  0  0
 17 21  1  0  0  0
 21 22  1  0  0  0
 22 23  2  0  0  0
 22 25  1  0  0  0
 25 26  2  0  0  0
 26 27  1  0  0  0
 26 28  1  0  0  0
 28 29  2  0  0  0
 29 30  1  0  0  0
 30 31  2  0  0  0
 31 32  1  0  0  0
 17 18  1  0  0  0
 18 19  2  0  0  0
 19 20  1  0  0  0
  4  5  1  0  0  0
  5  6  2  0  0  0
  6  7  1  0  0  0
  7  8  2  0  0  0
  8  9  1  0  0  0
  9 10  2  0  0  0
 10 33  1  0  0  0
 33 34  1  0  0  0
 34 35  1  0  0  0
 35 36  1  0  0  0
 36 37  1  0  0  0
 37 38  1  0  0  0
 38 39  1  0  0  0
 39 40  1  0  0  0
 40 41  1  0  0  0
 41 42  1  0  0  0
 10  1  1  0  0  0
 42 37  1  0  0  0
  8  3  1  0  0  0
 19 14  1  0  0  0
 31 25  1  0  0  0
 21 24  1  0  0  0
M  END
> <minimizedAffinity>
-7.35223

> <CNNscore>
0.5474402905

> <CNNaffinity>
6.9527106285

> <CNN_VS>
3.8061938286

> <CNNaffinity_variance>
0.0735356957

$$$$
[H]c1nc2c([H])c(OC([H])([H])C([H])([H])C([H])([H])N3C([H])([H])C([H])([H])OC([H])([H])C3([H])[H])c(OC([H])([H])[H])c([H])c2c(Oc2c([H])c([H])c(N([H])C(=O)c3c(Cl)c([H])c([H])c([H])c3Cl)c([H])c2F)c1[H]


 42 46  0  0  0  0  0  0  0  0999 V2000
  -19.1406   12.8120  -19.7005 C   0  0  0  0  0  0  0  0  0  0  0  0
  -18.3491   12.9199  -20.7937 C   0  0  0  0  0  0  0  0  0  0  0  0
  -17.2873   12.0446  -20.9927 C   0  0  0  0  0  0  0  0  0  0  0  0
  -16.4569   12.1589  -22.1380 C   0  0  0  0  0  0  0  0  0  0  0  0
  -15.4246   11.2602  -22.2695 C   0  0  0  0  0  0  0  0  0  0  0  0
  -15.2160   10.2820  -21.3069 C   0  0  0  0  0  0  0  0  0  0  0  0
  -15.9975   10.1941  -20.2538 N   0  0  0  0  0  0  0  0  0  0  0  0
  -17.0299   11.0590  -20.0803 C   0  0  0  0  0  0  0  0  0  0  0  0
  -17.8300   10.9308  -18.9527 C   0  0  0  0  0  0  0  0  0  0  0  0
  -18.8737   11.7990  -18.7654 C   0  0  0  0  0  0  0  0  0  0  0  0
  -20.3490   14.8914  -20.1716 C   0  0  0  0  0  0  0  0  0  0  0  0
  -20.2064   13.6819  -19.4902 O   0  0  0  0  0  0  0  0  0  0  0  0
  -16.7613   13.1356  -22.9827 O   0  0  0  0  0  0  0  0  0  0  0  0
  -17.1742   14.3932  -23.0739 C   0  0  0  0  0  0  0  0  0  0  0  0
  -16.8111   15.4363  -22.2735 C   0  0  0  0  0  0  0  0  0  0  0  0
  -17.2888   16.7553  -22.4259 C   0  0  0  0  0  0  0  0  0  0  0  0
  -18.1596   17.0295  -23.4146 C   0  0  0  0  0  0  0  0  0  0  0  0
  -18.5542   15.9948  -24.2522 C   0  0  0  0  0  0  0  0  0  0  0  0
  -18.0880   14.7135  -24.1025 C   0  0  0  0  0  0  0  0  0  0  0  0
  -18.4999   13.7292  -24.9470 F   0  0  0  0  0  0  0  0  0  0  0  0
  -18.7385   18.3137  -23.6387 N   0  0  0  0  0  0  0  0  0  0  0  0
  -19.9124   18.7812  -23.0683 C   0  0  0  0  0  0  0  0  0  0  0  0
  -20.5173   17.9816  -22.2699 O   0  0  0  0  0  0  0  0  0  0  0  0
  -18.1842   18.9511  -24.2737 H   0  0  0  0  0  0  0  0  0  0  0  0
  -20.5537   20.0757  -23.2533 C   0  0  0  0  0  0  0  0  0  0  0  0
  -21.6293   20.3236  -24.0512 C   0  0  0  0  0  0  0  0  0  0  0  0
  -22.4776   19.0166  -24.8603 Cl  0  0  0  0  0  0  0  0  0  0  0  0
  -22.1636   21.6119  -24.2388 C   0  0  0  0  0  0  0  0  0  0  0  0
  -21.5997   22.6864  -23.6021 C   0  0  0  0  0  0  0  0  0  0  0  0
  -20.5061   22.4396  -22.7872 C   0  0  0  0  0  0  0  0  0  0  0  0
  -19.9948   21.1959  -22.6108 C   0  0  0  0  0  0  0  0  0  0  0  0
  -18.6223   20.9377  -21.5811 Cl  0  0  0  0  0  0  0  0  0  0  0  0
  -19.7139   11.7668  -17.7008 O   0  0  0  0  0  0  0  0  0  0  0  0
  -19.7366   12.4167  -16.5179 C   0  0  0  0  0  0  0  0  0  0  0  0
  -19.9807   11.6142  -15.2622 C   0  0  0  0  0  0  0  0  0  0  0  0
  -21.4298   11.6354  -14.8694 C   0  0  0  0  0  0  0  0  0  0  0  0
  -22.2120   10.5486  -15.2844 N   0  0  0  0  0  0  0  0  0  0  0  0
  -23.5051   10.5943  -14.5951 C   0  0  0  0  0  0  0  0  0  0  0  0
  -24.5204    9.7080  -15.2877 C   0  0  0  0  0  0  0  0  0  0  0  0
  -23.8708    8.7047  -16.0142 O   0  0  0  0  0  0  0  0  0  0  0  0
  -22.7652    8.2246  -15.3024 C   0  0  0  0  0  0  0  0  0  0  0  0
  -21.6405    9.2605  -15.2709 C   0  0  0  0  0  0  0  0  0  0  0  0
 11 12  1  0  0  0
 12  1  1  0  0  0
  1  2  2  0  0  0
  2  3  1  0  0  0
  3  4  2  0  0  0
  4 13  1  0  0  0
 13 14  1  0  0  0
 14 15  2  0  0  0
 15 16  1  0  0  0
 16 17  2  0  0  0
 17 21  1  0  0  0
 21 22  1  0  0  0
 22 23  2  0  0  0
 22 25  1  0  0  0
 25 26  2  0  0  0
 26 27  1  0  0  0
 26 28  1  0  0  0
 28 29  2  0  0  0
 29 30  1  0  0  0
 30 31  2  0  0  0
 31 32  1  0  0  0
 17 18  1  0  0  0
 18 19  2  0  0  0
 19 20  1  0  0  0
  4  5  1  0  0  0
  5  6  2  0  0  0
  6  7  1  0  0  0
  7  8  2  0  0  0
  8  9  1  0  0  0
  9 10  2  0  0  0
 10 33  1  0  0  0
 33 34  1  0  0  0
 34 35  1  0  0  0
 35 36  1  0  0  0
 36 37  1  0  0  0
 37 38  1  0  0  0
 38 39  1  0  0  0
 39 40  1  0  0  0
 40 41  1  0  0  0
 41 42  1  0  0  0
 10  1  1  0  0  0
 42 37  1  0  0  0
  8  3  1  0  0  0
 19 14  1  0  0  0
 31 25  1  0  0  0
 21 24  1  0  0  0
M  END
> <minimizedAffinity>
-8.19249

> <CNNscore>
0.4436390996

> <CNNaffinity>
7.3232460022

> <CNN_VS>
3.2488782406

> <CNNaffinity_variance>
0.1546520293

$$$$
[H]c1nc2c([H])c(OC([H])([H])C([H])([H])C([H])([H])N3C([H])([H])C([H])([H])OC([H])([H])C3([H])[H])c(OC([H])([H])[H])c([H])c2c(Oc2c([H])c([H])c(N([H])C(=O)c3c(Cl)c([H])c([H])c([H])c3Cl)c([H])c2F)c1[H]


 42 46  0  0  0  0  0  0  0  0999 V2000
  -19.9010   11.0000  -16.3015 C   0  0  0  0  0  0  0  0  0  0  0  0
  -19.4286   11.9063  -17.1896 C   0  0  0  0  0  0  0  0  0  0  0  0
  -18.5363   11.5275  -18.1864 C   0  0  0  0  0  0  0  0  0  0  0  0
  -18.0402   12.4780  -19.1163 C   0  0  0  0  0  0  0  0  0  0  0  0
  -17.1599   12.0334  -20.0744 C   0  0  0  0  0  0  0  0  0  0  0  0
  -16.7804   10.6988  -20.1166 C   0  0  0  0  0  0  0  0  0  0  0  0
  -17.2525    9.8352  -19.2454 N   0  0  0  0  0  0  0  0  0  0  0  0
  -18.1243   10.2269  -18.2808 C   0  0  0  0  0  0  0  0  0  0  0  0
  -18.5973    9.2818  -17.3803 C   0  0  0  0  0  0  0  0  0  0  0  0
  -19.4759    9.6654  -16.4010 C   0  0  0  0  0  0  0  0  0  0  0  0
  -21.5118   12.5637  -15.3184 C   0  0  0  0  0  0  0  0  0  0  0  0
  -20.7945   11.3667  -15.2994 O   0  0  0  0  0  0  0  0  0  0  0  0
  -18.4798   13.7210  -18.9689 O   0  0  0  0  0  0  0  0  0  0  0  0
  -18.9509   14.7819  -19.6116 C   0  0  0  0  0  0  0  0  0  0  0  0
  -18.2542   15.8960  -19.9773 C   0  0  0  0  0  0  0  0  0  0  0  0
  -18.8178   16.9932  -20.6628 C   0  0  0  0  0  0  0  0  0  0  0  0
  -20.1234   16.9655  -20.9878 C   0  0  0  0  0  0  0  0  0  0  0  0
  -20.8681   15.8484  -20.6338 C   0  0  0  0  0  0  0  0  0  0  0  0
  -20.3179   14.7827  -19.9680 C   0  0  0  0  0  0  0  0  0  0  0  0
  -21.0839   13.7066  -19.6412 F   0  0  0  0  0  0  0  0  0  0  0  0
  -20.8083   18.0312  -21.6434 N   0  0  0  0  0  0  0  0  0  0  0  0
  -20.8736   18.2270  -23.0143 C   0  0  0  0  0  0  0  0  0  0  0  0
  -20.2649   17.3667  -23.7437 O   0  0  0  0  0  0  0  0  0  0  0  0
  -21.3266   18.6927  -21.0027 H   0  0  0  0  0  0  0  0  0  0  0  0
  -21.5537   19.2884  -23.7439 C   0  0  0  0  0  0  0  0  0  0  0  0
  -21.0141   20.4920  -24.0834 C   0  0  0  0  0  0  0  0  0  0  0  0
  -19.3191   20.8410  -23.7874 Cl  0  0  0  0  0  0  0  0  0  0  0  0
  -21.7454   21.5038  -24.7330 C   0  0  0  0  0  0  0  0  0  0  0  0
  -23.0618   21.2986  -25.0538 C   0  0  0  0  0  0  0  0  0  0  0  0
  -23.6154   20.0747  -24.7125 C   0  0  0  0  0  0  0  0  0  0  0  0
  -22.9060   19.1036  -24.0857 C   0  0  0  0  0  0  0  0  0  0  0  0
  -23.6445   17.5874  -23.6772 Cl  0  0  0  0  0  0  0  0  0  0  0  0
  -19.9965    8.8278  -15.4695 O   0  0  0  0  0  0  0  0  0  0  0  0
  -19.5035    8.2751  -14.3410 C   0  0  0  0  0  0  0  0  0  0  0  0
  -20.4596    7.5674  -13.4107 C   0  0  0  0  0  0  0  0  0  0  0  0
  -21.6150    6.9699  -14.1608 C   0  0  0  0  0  0  0  0  0  0  0  0
  -21.3262    5.8938  -15.0117 N   0  0  0  0  0  0  0  0  0  0  0  0
  -22.3357    5.8341  -16.0731 C   0  0  0  0  0  0  0  0  0  0  0  0
  -21.8606    4.9725  -17.2255 C   0  0  0  0  0  0  0  0  0  0  0  0
  -20.8997    4.0582  -16.7816 O   0  0  0  0  0  0  0  0  0  0  0  0
  -21.2452    3.5608  -15.5195 C   0  0  0  0  0  0  0  0  0  0  0  0
  -21.0704    4.6310  -14.4410 C   0  0  0  0  0  0  0  0  0  0  0  0
 11 12  1  0  0  0
 12  1  1  0  0  0
  1  2  2  0  0  0
  2  3  1  0  0  0
  3  4  2  0  0  0
  4 13  1  0  0  0
 13 14  1  0  0  0
 14 15  2  0  0  0
 15 16  1  0  0  0
 16 17  2  0  0  0
 17 21  1  0  0  0
 21 22  1  0  0  0
 22 23  2  0  0  0
 22 25  1  0  0  0
 25 26  2  0  0  0
 26 27  1  0  0  0
 26 28  1  0  0  0
 28 29  2  0  0  0
 29 30  1  0  0  0
 30 31  2  0  0  0
 31 32  1  0  0  0
 17 18  1  0  0  0
 18 19  2  0  0  0
 19 20  1  0  0  0
  4  5  1  0  0  0
  5  6  2  0  0  0
  6  7  1  0  0  0
  7  8  2  0  0  0
  8  9  1  0  0  0
  9 10  2  0  0  0
 10 33  1  0  0  0
 33 34  1  0  0  0
 34 35  1  0  0  0
 35 36  1  0  0  0
 36 37  1  0  0  0
 37 38  1  0  0  0
 38 39  1  0  0  0
 39 40  1  0  0  0
 40 41  1  0  0  0
 41 42  1  0  0  0
 10  1  1  0  0  0
 42 37  1  0  0  0
  8  3  1  0  0  0
 19 14  1  0  0  0
 31 25  1  0  0  0
 21 24  1  0  0  0
M  END
> <minimizedAffinity>
-8.00947

> <CNNscore>
0.4431611300

> <CNNaffinity>
7.0999627113

> <CNN_VS>
3.1464273930

> <CNNaffinity_variance>
0.0401205942

$$$$
[H]c1nc2c([H])c(OC([H])([H])C([H])([H])C([H])([H])N3C([H])([H])C([H])([H])OC([H])([H])C3([H])[H])c(OC([H])([H])[H])c([H])c2c(Oc2c([H])c([H])c(N([H])C(=O)c3c(Cl)c([H])c([H])c([H])c3Cl)c([H])c2F)c1[H]


 42 46  0  0  0  0  0  0  0  0999 V2000
  -19.7308   11.1707  -16.6392 C   0  0  0  0  0  0  0  0  0  0  0  0
  -19.1787   12.0209  -17.5366 C   0  0  0  0  0  0  0  0  0  0  0  0
  -18.2911   11.5588  -18.5019 C   0  0  0  0  0  0  0  0  0  0  0  0
  -17.7114   12.4505  -19.4416 C   0  0  0  0  0  0  0  0  0  0  0  0
  -16.8411   11.9244  -20.3671 C   0  0  0  0  0  0  0  0  0  0  0  0
  -16.5507   10.5669  -20.3682 C   0  0  0  0  0  0  0  0  0  0  0  0
  -17.0992    9.7588  -19.4886 N   0  0  0  0  0  0  0  0  0  0  0  0
  -17.9648   10.2318  -18.5553 C   0  0  0  0  0  0  0  0  0  0  0  0
  -18.5205    9.3432  -17.6445 C   0  0  0  0  0  0  0  0  0  0  0  0
  -19.3937    9.8088  -16.6964 C   0  0  0  0  0  0  0  0  0  0  0  0
  -21.3370   12.8130  -15.7851 C   0  0  0  0  0  0  0  0  0  0  0  0
  -20.6206   11.6211  -15.6682 O   0  0  0  0  0  0  0  0  0  0  0  0
  -18.0702   13.7232  -19.3346 O   0  0  0  0  0  0  0  0  0  0  0  0
  -18.8096   14.6843  -19.8731 C   0  0  0  0  0  0  0  0  0  0  0  0
  -20.1713   14.7353  -19.9346 C   0  0  0  0  0  0  0  0  0  0  0  0
  -20.8986   15.7915  -20.5233 C   0  0  0  0  0  0  0  0  0  0  0  0
  -20.2320   16.8264  -21.0670 C   0  0  0  0  0  0  0  0  0  0  0  0
  -18.8443   16.8130  -21.0245 C   0  0  0  0  0  0  0  0  0  0  0  0
  -18.1393   15.7854  -20.4511 C   0  0  0  0  0  0  0  0  0  0  0  0
  -16.7790   15.8129  -20.4299 F   0  0  0  0  0  0  0  0  0  0  0  0
  -20.8589   17.9270  -21.7230 N   0  0  0  0  0  0  0  0  0  0  0  0
  -20.8976   18.1352  -23.0930 C   0  0  0  0  0  0  0  0  0  0  0  0
  -20.3197   17.2529  -23.8213 O   0  0  0  0  0  0  0  0  0  0  0  0
  -21.3545   18.6071  -21.0838 H   0  0  0  0  0  0  0  0  0  0  0  0
  -21.5189   19.2317  -23.8230 C   0  0  0  0  0  0  0  0  0  0  0  0
  -20.9346   20.4281  -24.1098 C   0  0  0  0  0  0  0  0  0  0  0  0
  -19.2449   20.7239  -23.7360 Cl  0  0  0  0  0  0  0  0  0  0  0  0
  -21.6117   21.4746  -24.7632 C   0  0  0  0  0  0  0  0  0  0  0  0
  -22.9185   21.3128  -25.1427 C   0  0  0  0  0  0  0  0  0  0  0  0
  -23.5175   20.0964  -24.8552 C   0  0  0  0  0  0  0  0  0  0  0  0
  -22.8602   19.0917  -24.2244 C   0  0  0  0  0  0  0  0  0  0  0  0
  -23.6543   17.5868  -23.8847 Cl  0  0  0  0  0  0  0  0  0  0  0  0
  -19.9903    9.0314  -15.7584 O   0  0  0  0  0  0  0  0  0  0  0  0
  -19.5185    8.1778  -14.8252 C   0  0  0  0  0  0  0  0  0  0  0  0
  -20.2816    8.0362  -13.5299 C   0  0  0  0  0  0  0  0  0  0  0  0
  -20.2326    9.3011  -12.7222 C   0  0  0  0  0  0  0  0  0  0  0  0
  -21.3492   10.1450  -12.8028 N   0  0  0  0  0  0  0  0  0  0  0  0
  -21.1693   11.2717  -11.8822 C   0  0  0  0  0  0  0  0  0  0  0  0
  -22.1230   12.4012  -12.2149 C   0  0  0  0  0  0  0  0  0  0  0  0
  -23.2391   11.9066  -12.8977 O   0  0  0  0  0  0  0  0  0  0  0  0
  -23.6355   10.6769  -12.3590 C   0  0  0  0  0  0  0  0  0  0  0  0
  -22.6347    9.5751  -12.7107 C   0  0  0  0  0  0  0  0  0  0  0  0
 11 12  1  0  0  0
 12  1  1  0  0  0
  1  2  2  0  0  0
  2  3  1  0  0  0
  3  4  2  0  0  0
  4 13  1  0  0  0
 13 14  1  0  0  0
 14 15  2  0  0  0
 15 16  1  0  0  0
 16 17  2  0  0  0
 17 21  1  0  0  0
 21 22  1  0  0  0
 22 23  2  0  0  0
 22 25  1  0  0  0
 25 26  2  0  0  0
 26 27  1  0  0  0
 26 28  1  0  0  0
 28 29  2  0  0  0
 29 30  1  0  0  0
 30 31  2  0  0  0
 31 32  1  0  0  0
 17 18  1  0  0  0
 18 19  2  0  0  0
 19 20  1  0  0  0
  4  5  1  0  0  0
  5  6  2  0  0  0
  6  7  1  0  0  0
  7  8  2  0  0  0
  8  9  1  0  0  0
  9 10  2  0  0  0
 10 33  1  0  0  0
 33 34  1  0  0  0
 34 35  1  0  0  0
 35 36  1  0  0  0
 36 37  1  0  0  0
 37 38  1  0  0  0
 38 39  1  0  0  0
 39 40  1  0  0  0
 40 41  1  0  0  0
 41 42  1  0  0  0
 10  1  1  0  0  0
 42 37  1  0  0  0
  8  3  1  0  0  0
 19 14  1  0  0  0
 31 25  1  0  0  0
 21 24  1  0  0  0
M  END
> <minimizedAffinity>
-7.63822

> <CNNscore>
0.4036103487

> <CNNaffinity>
7.0241441727

> <CNN_VS>
2.8350172043

> <CNNaffinity_variance>
0.0459902100

$$$$
[H]c1nc2c([H])c(OC([H])([H])C([H])([H])C([H])([H])N3C([H])([H])C([H])([H])OC([H])([H])C3([H])[H])c(OC([H])([H])[H])c([H])c2c(Oc2c([H])c([H])c(N([H])C(=O)c3c(Cl)c([H])c([H])c([H])c3Cl)c([H])c2F)c1[H]


 42 46  0  0  0  0  0  0  0  0999 V2000
  -19.8652   10.9384  -16.2441 C   0  0  0  0  0  0  0  0  0  0  0  0
  -19.4311   11.8433  -17.1528 C   0  0  0  0  0  0  0  0  0  0  0  0
  -18.5499   11.4719  -18.1621 C   0  0  0  0  0  0  0  0  0  0  0  0
  -18.0940   12.4211  -19.1136 C   0  0  0  0  0  0  0  0  0  0  0  0
  -17.2224   11.9839  -20.0832 C   0  0  0  0  0  0  0  0  0  0  0  0
  -16.8131   10.6579  -20.1158 C   0  0  0  0  0  0  0  0  0  0  0  0
  -17.2481    9.7954  -19.2245 N   0  0  0  0  0  0  0  0  0  0  0  0
  -18.1098   10.1799  -18.2480 C   0  0  0  0  0  0  0  0  0  0  0  0
  -18.5434    9.2362  -17.3263 C   0  0  0  0  0  0  0  0  0  0  0  0
  -19.4115    9.6126  -16.3348 C   0  0  0  0  0  0  0  0  0  0  0  0
  -22.1334   11.1905  -15.3508 C   0  0  0  0  0  0  0  0  0  0  0  0
  -20.7473   11.2979  -15.2293 O   0  0  0  0  0  0  0  0  0  0  0  0
  -18.5592   13.6555  -18.9735 O   0  0  0  0  0  0  0  0  0  0  0  0
  -18.9762   14.7318  -19.6279 C   0  0  0  0  0  0  0  0  0  0  0  0
  -18.2390   15.8334  -19.9497 C   0  0  0  0  0  0  0  0  0  0  0  0
  -18.7458   16.9484  -20.6508 C   0  0  0  0  0  0  0  0  0  0  0  0
  -20.0347   16.9521  -21.0375 C   0  0  0  0  0  0  0  0  0  0  0  0
  -20.8192   15.8487  -20.7296 C   0  0  0  0  0  0  0  0  0  0  0  0
  -20.3244   14.7657  -20.0485 C   0  0  0  0  0  0  0  0  0  0  0  0
  -21.1280   13.7040  -19.7684 F   0  0  0  0  0  0  0  0  0  0  0  0
  -20.6646   18.0380  -21.7147 N   0  0  0  0  0  0  0  0  0  0  0  0
  -20.6421   18.2586  -23.0832 C   0  0  0  0  0  0  0  0  0  0  0  0
  -19.9996   17.4032  -23.7890 O   0  0  0  0  0  0  0  0  0  0  0  0
  -21.2137   18.6950  -21.0954 H   0  0  0  0  0  0  0  0  0  0  0  0
  -21.2625   19.3414  -23.8340 C   0  0  0  0  0  0  0  0  0  0  0  0
  -22.4117   19.2497  -24.5593 C   0  0  0  0  0  0  0  0  0  0  0  0
  -23.3805   17.7857  -24.5405 Cl  0  0  0  0  0  0  0  0  0  0  0  0
  -22.9263   20.3174  -25.3180 C   0  0  0  0  0  0  0  0  0  0  0  0
  -22.2655   21.5176  -25.3473 C   0  0  0  0  0  0  0  0  0  0  0  0
  -21.0966   21.6172  -24.6093 C   0  0  0  0  0  0  0  0  0  0  0  0
  -20.6048   20.5845  -23.8806 C   0  0  0  0  0  0  0  0  0  0  0  0
  -19.1356   20.7576  -22.9738 Cl  0  0  0  0  0  0  0  0  0  0  0  0
  -19.8945    8.7758  -15.3826 O   0  0  0  0  0  0  0  0  0  0  0  0
  -19.3769    8.2720  -14.2422 C   0  0  0  0  0  0  0  0  0  0  0  0
  -20.2879    7.4954  -13.3217 C   0  0  0  0  0  0  0  0  0  0  0  0
  -21.4775    6.9499  -14.0578 C   0  0  0  0  0  0  0  0  0  0  0  0
  -21.2388    5.8928  -14.9472 N   0  0  0  0  0  0  0  0  0  0  0  0
  -22.3110    5.8520  -15.9462 C   0  0  0  0  0  0  0  0  0  0  0  0
  -21.9053    5.0164  -17.1433 C   0  0  0  0  0  0  0  0  0  0  0  0
  -20.9172    4.0961  -16.7782 O   0  0  0  0  0  0  0  0  0  0  0  0
  -21.1841    3.5713  -15.5082 C   0  0  0  0  0  0  0  0  0  0  0  0
  -20.9461    4.6192  -14.4199 C   0  0  0  0  0  0  0  0  0  0  0  0
 11 12  1  0  0  0
 12  1  1  0  0  0
  1  2  2  0  0  0
  2  3  1  0  0  0
  3  4  2  0  0  0
  4 13  1  0  0  0
 13 14  1  0  0  0
 14 15  2  0  0  0
 15 16  1  0  0  0
 16 17  2  0  0  0
 17 21  1  0  0  0
 21 22  1  0  0  0
 22 23  2  0  0  0
 22 25  1  0  0  0
 25 26  2  0  0  0
 26 27  1  0  0  0
 26 28  1  0  0  0
 28 29  2  0  0  0
 29 30  1  0  0  0
 30 31  2  0  0  0
 31 32  1  0  0  0
 17 18  1  0  0  0
 18 19  2  0  0  0
 19 20  1  0  0  0
  4  5  1  0  0  0
  5  6  2  0  0  0
  6  7  1  0  0  0
  7  8  2  0  0  0
  8  9  1  0  0  0
  9 10  2  0  0  0
 10 33  1  0  0  0
 33 34  1  0  0  0
 34 35  1  0  0  0
 35 36  1  0  0  0
 36 37  1  0  0  0
 37 38  1  0  0  0
 38 39  1  0  0  0
 39 40  1  0  0  0
 40 41  1  0  0  0
 41 42  1  0  0  0
 10  1  1  0  0  0
 42 37  1  0  0  0
  8  3  1  0  0  0
 19 14  1  0  0  0
 31 25  1  0  0  0
 21 24  1  0  0  0
M  END
> <minimizedAffinity>
-8.06438

> <CNNscore>
0.3737989068

> <CNNaffinity>
7.0423269272

> <CNN_VS>
2.6324141026

> <CNNaffinity_variance>
0.0412027054

$$$$
[H]c1nc2c([H])c(OC([H])([H])C([H])([H])C([H])([H])N3C([H])([H])C([H])([H])OC([H])([H])C3([H])[H])c(OC([H])([H])[H])c([H])c2c(Oc2c([H])c([H])c(N([H])C(=O)c3c(Cl)c([H])c([H])c([H])c3Cl)c([H])c2F)c1[H]


 42 46  0  0  0  0  0  0  0  0999 V2000
  -20.4055   10.8784  -16.3363 C   0  0  0  0  0  0  0  0  0  0  0  0
  -19.8405   11.8092  -17.1409 C   0  0  0  0  0  0  0  0  0  0  0  0
  -18.7995   11.4712  -17.9984 C   0  0  0  0  0  0  0  0  0  0  0  0
  -18.2065   12.4475  -18.8407 C   0  0  0  0  0  0  0  0  0  0  0  0
  -17.1807   12.0429  -19.6620 C   0  0  0  0  0  0  0  0  0  0  0  0
  -16.7523   10.7224  -19.6550 C   0  0  0  0  0  0  0  0  0  0  0  0
  -17.3160    9.8344  -18.8668 N   0  0  0  0  0  0  0  0  0  0  0  0
  -18.3326   10.1864  -18.0381 C   0  0  0  0  0  0  0  0  0  0  0  0
  -18.8986    9.2166  -17.2214 C   0  0  0  0  0  0  0  0  0  0  0  0
  -19.9238    9.5601  -16.3792 C   0  0  0  0  0  0  0  0  0  0  0  0
  -21.2828   12.0161  -14.3508 C   0  0  0  0  0  0  0  0  0  0  0  0
  -21.4481   11.2043  -15.4738 O   0  0  0  0  0  0  0  0  0  0  0  0
  -18.7064   13.6733  -18.7529 O   0  0  0  0  0  0  0  0  0  0  0  0
  -19.1148   14.7243  -19.4522 C   0  0  0  0  0  0  0  0  0  0  0  0
  -18.3668   15.8016  -19.8270 C   0  0  0  0  0  0  0  0  0  0  0  0
  -18.8648   16.8902  -20.5742 C   0  0  0  0  0  0  0  0  0  0  0  0
  -20.1559   16.8921  -20.9534 C   0  0  0  0  0  0  0  0  0  0  0  0
  -20.9514   15.8130  -20.5921 C   0  0  0  0  0  0  0  0  0  0  0  0
  -20.4651   14.7555  -19.8663 C   0  0  0  0  0  0  0  0  0  0  0  0
  -21.2794   13.7170  -19.5346 F   0  0  0  0  0  0  0  0  0  0  0  0
  -20.7772   17.9543  -21.6748 N   0  0  0  0  0  0  0  0  0  0  0  0
  -20.6920   18.1594  -23.0432 C   0  0  0  0  0  0  0  0  0  0  0  0
  -19.9949   17.3119  -23.7054 O   0  0  0  0  0  0  0  0  0  0  0  0
  -21.3721   18.6047  -21.0918 H   0  0  0  0  0  0  0  0  0  0  0  0
  -21.3002   19.2179  -23.8376 C   0  0  0  0  0  0  0  0  0  0  0  0
  -22.4573   19.1138  -24.5484 C   0  0  0  0  0  0  0  0  0  0  0  0
  -23.4515   17.6698  -24.4546 Cl  0  0  0  0  0  0  0  0  0  0  0  0
  -22.9600   20.1549  -25.3509 C   0  0  0  0  0  0  0  0  0  0  0  0
  -22.2785   21.3404  -25.4405 C   0  0  0  0  0  0  0  0  0  0  0  0
  -21.1014   21.4526  -24.7174 C   0  0  0  0  0  0  0  0  0  0  0  0
  -20.6212   20.4455  -23.9464 C   0  0  0  0  0  0  0  0  0  0  0  0
  -19.1410   20.6334  -23.0607 Cl  0  0  0  0  0  0  0  0  0  0  0  0
  -20.5451    8.6958  -15.5383 O   0  0  0  0  0  0  0  0  0  0  0  0
  -20.1281    7.9745  -14.4762 C   0  0  0  0  0  0  0  0  0  0  0  0
  -21.1335    7.6278  -13.4041 C   0  0  0  0  0  0  0  0  0  0  0  0
  -22.3592    8.4896  -13.5009 C   0  0  0  0  0  0  0  0  0  0  0  0
  -23.5634    7.9263  -13.0557 N   0  0  0  0  0  0  0  0  0  0  0  0
  -24.4629    8.9971  -12.6158 C   0  0  0  0  0  0  0  0  0  0  0  0
  -25.8902    8.4986  -12.5137 C   0  0  0  0  0  0  0  0  0  0  0  0
  -25.9060    7.1128  -12.3248 O   0  0  0  0  0  0  0  0  0  0  0  0
  -24.8752    6.7260  -11.4603 C   0  0  0  0  0  0  0  0  0  0  0  0
  -23.5110    6.8573  -12.1390 C   0  0  0  0  0  0  0  0  0  0  0  0
 11 12  1  0  0  0
 12  1  1  0  0  0
  1  2  2  0  0  0
  2  3  1  0  0  0
  3  4  2  0  0  0
  4 13  1  0  0  0
 13 14  1  0  0  0
 14 15  2  0  0  0
 15 16  1  0  0  0
 16 17  2  0  0  0
 17 21  1  0  0  0
 21 22  1  0  0  0
 22 23  2  0  0  0
 22 25  1  0  0  0
 25 26  2  0  0  0
 26 27  1  0  0  0
 26 28  1  0  0  0
 28 29  2  0  0  0
 29 30  1  0  0  0
 30 31  2  0  0  0
 31 32  1  0  0  0
 17 18  1  0  0  0
 18 19  2  0  0  0
 19 20  1  0  0  0
  4  5  1  0  0  0
  5  6  2  0  0  0
  6  7  1  0  0  0
  7  8  2  0  0  0
  8  9  1  0  0  0
  9 10  2  0  0  0
 10 33  1  0  0  0
 33 34  1  0  0  0
 34 35  1  0  0  0
 35 36  1  0  0  0
 36 37  1  0  0  0
 37 38  1  0  0  0
 38 39  1  0  0  0
 39 40  1  0  0  0
 40 41  1  0  0  0
 41 42  1  0  0  0
 10  1  1  0  0  0
 42 37  1  0  0  0
  8  3  1  0  0  0
 19 14  1  0  0  0
 31 25  1  0  0  0
 21 24  1  0  0  0
M  END
> <minimizedAffinity>
-7.46081

> <CNNscore>
0.3508849144

> <CNNaffinity>
6.7780447006

> <CNN_VS>
2.3783135414

> <CNNaffinity_variance>
0.0472629145

$$$$
[H]c1nc2c([H])c(OC([H])([H])C([H])([H])C([H])([H])N3C([H])([H])C([H])([H])OC([H])([H])C3([H])[H])c(OC([H])([H])[H])c([H])c2c(Oc2c([H])c([H])c(N([H])C(=O)c3c(Cl)c([H])c([H])c([H])c3Cl)c([H])c2F)c1[H]


 42 46  0  0  0  0  0  0  0  0999 V2000
  -20.1615   10.8011  -16.3492 C   0  0  0  0  0  0  0  0  0  0  0  0
  -19.6455   11.7365  -17.1810 C   0  0  0  0  0  0  0  0  0  0  0  0
  -18.6409   11.4088  -18.0847 C   0  0  0  0  0  0  0  0  0  0  0  0
  -18.0993   12.3899  -18.9555 C   0  0  0  0  0  0  0  0  0  0  0  0
  -17.1074   11.9954  -19.8223 C   0  0  0  0  0  0  0  0  0  0  0  0
  -16.6632   10.6802  -19.8321 C   0  0  0  0  0  0  0  0  0  0  0  0
  -17.1792    9.7876  -19.0169 N   0  0  0  0  0  0  0  0  0  0  0  0
  -18.1608   10.1296  -18.1431 C   0  0  0  0  0  0  0  0  0  0  0  0
  -18.6768    9.1553  -17.2991 C   0  0  0  0  0  0  0  0  0  0  0  0
  -19.6663    9.4886  -16.4114 C   0  0  0  0  0  0  0  0  0  0  0  0
  -20.9173   11.7119  -14.2031 C   0  0  0  0  0  0  0  0  0  0  0  0
  -21.1673   11.1168  -15.4404 O   0  0  0  0  0  0  0  0  0  0  0  0
  -18.6094   13.6097  -18.8475 O   0  0  0  0  0  0  0  0  0  0  0  0
  -19.0391   14.6635  -19.5296 C   0  0  0  0  0  0  0  0  0  0  0  0
  -18.3028   15.7420  -19.9235 C   0  0  0  0  0  0  0  0  0  0  0  0
  -18.8235   16.8336  -20.6506 C   0  0  0  0  0  0  0  0  0  0  0  0
  -20.1259   16.8374  -20.9891 C   0  0  0  0  0  0  0  0  0  0  0  0
  -20.9102   15.7572  -20.6072 C   0  0  0  0  0  0  0  0  0  0  0  0
  -20.4017   14.6968  -19.9010 C   0  0  0  0  0  0  0  0  0  0  0  0
  -21.2057   13.6573  -19.5479 F   0  0  0  0  0  0  0  0  0  0  0  0
  -20.7691   17.9026  -21.6866 N   0  0  0  0  0  0  0  0  0  0  0  0
  -20.6744   18.1504  -23.0472 C   0  0  0  0  0  0  0  0  0  0  0  0
  -19.9460   17.3428  -23.7255 O   0  0  0  0  0  0  0  0  0  0  0  0
  -21.3887   18.5185  -21.0921 H   0  0  0  0  0  0  0  0  0  0  0  0
  -21.3035   19.2143  -23.8177 C   0  0  0  0  0  0  0  0  0  0  0  0
  -22.4584   19.1035  -24.5311 C   0  0  0  0  0  0  0  0  0  0  0  0
  -23.4238   17.6382  -24.4704 Cl  0  0  0  0  0  0  0  0  0  0  0  0
  -22.9817   20.1523  -25.3099 C   0  0  0  0  0  0  0  0  0  0  0  0
  -22.3239   21.3528  -25.3724 C   0  0  0  0  0  0  0  0  0  0  0  0
  -21.1491   21.4719  -24.6465 C   0  0  0  0  0  0  0  0  0  0  0  0
  -20.6490   20.4573  -23.8983 C   0  0  0  0  0  0  0  0  0  0  0  0
  -19.1727   20.6544  -23.0081 Cl  0  0  0  0  0  0  0  0  0  0  0  0
  -20.2378    8.6192  -15.5409 O   0  0  0  0  0  0  0  0  0  0  0  0
  -20.6867    7.3515  -15.6573 C   0  0  0  0  0  0  0  0  0  0  0  0
  -22.1464    7.0785  -15.3832 C   0  0  0  0  0  0  0  0  0  0  0  0
  -22.6194    7.8010  -14.1549 C   0  0  0  0  0  0  0  0  0  0  0  0
  -23.3967    8.9498  -14.3585 N   0  0  0  0  0  0  0  0  0  0  0  0
  -24.0793    9.2978  -13.1086 C   0  0  0  0  0  0  0  0  0  0  0  0
  -24.5935   10.7225  -13.1500 C   0  0  0  0  0  0  0  0  0  0  0  0
  -24.7796   11.1312  -14.4747 O   0  0  0  0  0  0  0  0  0  0  0  0
  -25.3061   10.0835  -15.2395 C   0  0  0  0  0  0  0  0  0  0  0  0
  -24.2589    8.9935  -15.4724 C   0  0  0  0  0  0  0  0  0  0  0  0
 11 12  1  0  0  0
 12  1  1  0  0  0
  1  2  2  0  0  0
  2  3  1  0  0  0
  3  4  2  0  0  0
  4 13  1  0  0  0
 13 14  1  0  0  0
 14 15  2  0  0  0
 15 16  1  0  0  0
 16 17  2  0  0  0
 17 21  1  0  0  0
 21 22  1  0  0  0
 22 23  2  0  0  0
 22 25  1  0  0  0
 25 26  2  0  0  0
 26 27  1  0  0  0
 26 28  1  0  0  0
 28 29  2  0  0  0
 29 30  1  0  0  0
 30 31  2  0  0  0
 31 32  1  0  0  0
 17 18  1  0  0  0
 18 19  2  0  0  0
 19 20  1  0  0  0
  4  5  1  0  0  0
  5  6  2  0  0  0
  6  7  1  0  0  0
  7  8  2  0  0  0
  8  9  1  0  0  0
  9 10  2  0  0  0
 10 33  1  0  0  0
 33 34  1  0  0  0
 34 35  1  0  0  0
 35 36  1  0  0  0
 36 37  1  0  0  0
 37 38  1  0  0  0
 38 39  1  0  0  0
 39 40  1  0  0  0
 40 41  1  0  0  0
 41 42  1  0  0  0
 10  1  1  0  0  0
 42 37  1  0  0  0
  8  3  1  0  0  0
 19 14  1  0  0  0
 31 25  1  0  0  0
 21 24  1  0  0  0
M  END
> <minimizedAffinity>
-7.82998

> <CNNscore>
0.3495443463

> <CNNaffinity>
6.9306917191

> <CNN_VS>
2.4225840569

> <CNNaffinity_variance>
0.0537116304

$$$$
[H]c1nc2c([H])c(OC([H])([H])C([H])([H])C([H])([H])N3C([H])([H])C([H])([H])OC([H])([H])C3([H])[H])c(OC([H])([H])[H])c([H])c2c(Oc2c([H])c([H])c(N([H])C(=O)N([H])c3c(Cl)c([H])c([H])c([H])c3Cl)c([H])c2Cl)c1[H]


 44 48  0  0  0  0  0  0  0  0999 V2000
  -19.5676   12.5873  -19.1118 C   0  0  0  0  0  0  0  0  0  0  0  0
  -18.8790   12.7011  -20.2905 C   0  0  0  0  0  0  0  0  0  0  0  0
  -17.7144   12.0258  -20.5838 C   0  0  0  0  0  0  0  0  0  0  0  0
  -17.0428   12.1653  -21.7927 C   0  0  0  0  0  0  0  0  0  0  0  0
  -15.8775   11.4777  -22.0584 C   0  0  0  0  0  0  0  0  0  0  0  0
  -15.3941   10.6321  -21.0694 C   0  0  0  0  0  0  0  0  0  0  0  0
  -16.0525   10.5041  -19.9060 N   0  0  0  0  0  0  0  0  0  0  0  0
  -17.1846   11.1618  -19.6270 C   0  0  0  0  0  0  0  0  0  0  0  0
  -17.8644   11.0299  -18.4301 C   0  0  0  0  0  0  0  0  0  0  0  0
  -19.0315   11.7050  -18.1355 C   0  0  0  0  0  0  0  0  0  0  0  0
  -20.7600   14.6643  -18.6341 C   0  0  0  0  0  0  0  0  0  0  0  0
  -20.7355   13.2683  -18.8065 O   0  0  0  0  0  0  0  0  0  0  0  0
  -17.5932   13.0249  -22.7248 O   0  0  0  0  0  0  0  0  0  0  0  0
  -17.7563   14.3913  -22.5620 C   0  0  0  0  0  0  0  0  0  0  0  0
  -18.9185   14.8709  -22.0033 C   0  0  0  0  0  0  0  0  0  0  0  0
  -19.1135   16.2254  -21.8232 C   0  0  0  0  0  0  0  0  0  0  0  0
  -18.1840   17.1687  -22.1802 C   0  0  0  0  0  0  0  0  0  0  0  0
  -17.0000   16.6508  -22.7488 C   0  0  0  0  0  0  0  0  0  0  0  0
  -16.7998   15.3147  -22.9301 C   0  0  0  0  0  0  0  0  0  0  0  0
  -15.2715   14.7241  -23.6233 Cl  0  0  0  0  0  0  0  0  0  0  0  0
  -18.3251   18.5650  -22.0706 N   0  0  0  0  0  0  0  0  0  0  0  0
  -19.1594   19.3358  -22.9837 C   0  0  0  0  0  0  0  0  0  0  0  0
  -19.7697   18.6576  -23.8803 O   0  0  0  0  0  0  0  0  0  0  0  0
  -19.2356   20.6785  -22.8373 N   0  0  0  0  0  0  0  0  0  0  0  0
  -17.8302   19.0812  -21.3300 H   0  0  0  0  0  0  0  0  0  0  0  0
  -20.0809   20.8030  -23.9104 H   0  0  0  0  0  0  0  0  0  0  0  0
  -19.3123   22.0272  -22.6904 C   0  0  0  0  0  0  0  0  0  0  0  0
  -19.3455   22.8933  -23.8039 C   0  0  0  0  0  0  0  0  0  0  0  0
  -19.3438   22.1734  -25.4036 Cl  0  0  0  0  0  0  0  0  0  0  0  0
  -19.3780   24.2485  -23.6814 C   0  0  0  0  0  0  0  0  0  0  0  0
  -19.3782   24.7861  -22.3979 C   0  0  0  0  0  0  0  0  0  0  0  0
  -19.3456   23.9607  -21.3014 C   0  0  0  0  0  0  0  0  0  0  0  0
  -19.3132   22.5881  -21.4213 C   0  0  0  0  0  0  0  0  0  0  0  0
  -19.2714   21.5970  -19.9882 Cl  0  0  0  0  0  0  0  0  0  0  0  0
  -19.7434   11.6243  -16.9997 O   0  0  0  0  0  0  0  0  0  0  0  0
  -19.7795   12.1198  -15.7402 C   0  0  0  0  0  0  0  0  0  0  0  0
  -20.4628   11.0836  -14.8208 C   0  0  0  0  0  0  0  0  0  0  0  0
  -21.0430   11.6686  -13.6161 C   0  0  0  0  0  0  0  0  0  0  0  0
  -21.3196   10.8831  -12.4913 N   0  0  0  0  0  0  0  0  0  0  0  0
  -20.5238    9.6835  -12.3839 C   0  0  0  0  0  0  0  0  0  0  0  0
  -19.3154    9.8895  -11.4840 C   0  0  0  0  0  0  0  0  0  0  0  0
  -19.8668   10.1101  -10.1905 O   0  0  0  0  0  0  0  0  0  0  0  0
  -20.4402   11.3753  -10.2298 C   0  0  0  0  0  0  0  0  0  0  0  0
  -21.5646   11.4825  -11.2403 C   0  0  0  0  0  0  0  0  0  0  0  0
 11 12  1  0  0  0
 12  1  1  0  0  0
  1  2  2  0  0  0
  2  3  1  0  0  0
  3  4  2  0  0  0
  4 13  1  0  0  0
 13 14  1  0  0  0
 14 15  2  0  0  0
 15 16  1  0  0  0
 16 17  2  0  0  0
 17 21  1  0  0  0
 21 22  1  0  0  0
 22 23  2  0  0  0
 22 24  1  0  0  0
 24 27  1  0  0  0
 27 28  2  0  0  0
 28 29  1  0  0  0
 28 30  1  0  0  0
 30 31  2  0  0  0
 31 32  1  0  0  0
 32 33  2  0  0  0
 33 34  1  0  0  0
 17 18  1  0  0  0
 18 19  2  0  0  0
 19 20  1  0  0  0
  4  5  1  0  0  0
  5  6  2  0  0  0
  6  7  1  0  0  0
  7  8  2  0  0  0
  8  9  1  0  0  0
  9 10  2  0  0  0
 10 35  1  0  0  0
 35 36  1  0  0  0
 36 37  1  0  0  0
 37 38  1  0  0  0
 38 39  1  0  0  0
 39 40  1  0  0  0
 40 41  1  0  0  0
 41 42  1  0  0  0
 42 43  1  0  0  0
 43 44  1  0  0  0
 10  1  1  0  0  0
 44 39  1  0  0  0
  8  3  1  0  0  0
 19 14  1  0  0  0
 33 27  1  0  0  0
 21 25  1  0  0  0
 24 26  1  0  0  0
M  END
> <minimizedAffinity>
-7.65846

> <CNNscore>
0.2449094355

> <CNNaffinity>
7.2515974045

> <CNN_VS>
1.7759846449

> <CNNaffinity_variance>
0.0628613010

$$$$
[H]c1nc2c([H])c(OC([H])([H])C([H])([H])C([H])([H])N3C([H])([H])C([H])([H])OC([H])([H])C3([H])[H])c(OC([H])([H])[H])c([H])c2c(Oc2c([H])c([H])c(N([H])C(=O)N([H])c3c(Cl)c([H])c([H])c([H])c3Cl)c([H])c2Cl)c1[H]


 44 48  0  0  0  0  0  0  0  0999 V2000
  -18.5373   14.9366  -20.1967 C   0  0  0  0  0  0  0  0  0  0  0  0
  -18.5008   13.8083  -19.4206 C   0  0  0  0  0  0  0  0  0  0  0  0
  -17.9186   12.6182  -19.7986 C   0  0  0  0  0  0  0  0  0  0  0  0
  -17.8995   11.4927  -18.9831 C   0  0  0  0  0  0  0  0  0  0  0  0
  -17.3107   10.3135  -19.3884 C   0  0  0  0  0  0  0  0  0  0  0  0
  -16.7307   10.2885  -20.6493 C   0  0  0  0  0  0  0  0  0  0  0  0
  -16.7539   11.3827  -21.4276 N   0  0  0  0  0  0  0  0  0  0  0  0
  -17.3198   12.5370  -21.0546 C   0  0  0  0  0  0  0  0  0  0  0  0
  -17.3431   13.6648  -21.8543 C   0  0  0  0  0  0  0  0  0  0  0  0
  -17.9251   14.8579  -21.4765 C   0  0  0  0  0  0  0  0  0  0  0  0
  -18.6061   16.9328  -18.7915 C   0  0  0  0  0  0  0  0  0  0  0  0
  -19.1269   16.1351  -19.8266 O   0  0  0  0  0  0  0  0  0  0  0  0
  -18.4964   11.6030  -17.7413 O   0  0  0  0  0  0  0  0  0  0  0  0
  -19.1452   10.5813  -17.0666 C   0  0  0  0  0  0  0  0  0  0  0  0
  -18.5231    9.3621  -16.9273 C   0  0  0  0  0  0  0  0  0  0  0  0
  -19.1384    8.3233  -16.2585 C   0  0  0  0  0  0  0  0  0  0  0  0
  -20.3856    8.4293  -15.6979 C   0  0  0  0  0  0  0  0  0  0  0  0
  -21.0013    9.6904  -15.8526 C   0  0  0  0  0  0  0  0  0  0  0  0
  -20.4005   10.7214  -16.5117 C   0  0  0  0  0  0  0  0  0  0  0  0
  -21.2168   12.2964  -16.6445 Cl  0  0  0  0  0  0  0  0  0  0  0  0
  -21.0968    7.4074  -15.0411 N   0  0  0  0  0  0  0  0  0  0  0  0
  -20.9730    7.1717  -13.6083 C   0  0  0  0  0  0  0  0  0  0  0  0
  -20.1893    7.9664  -12.9834 O   0  0  0  0  0  0  0  0  0  0  0  0
  -21.6681    6.1590  -13.0414 N   0  0  0  0  0  0  0  0  0  0  0  0
  -21.7299    6.7915  -15.5701 H   0  0  0  0  0  0  0  0  0  0  0  0
  -21.1537    6.4281  -11.7985 H   0  0  0  0  0  0  0  0  0  0  0  0
  -22.3662    5.1418  -12.4717 C   0  0  0  0  0  0  0  0  0  0  0  0
  -22.5586    5.0654  -11.0759 C   0  0  0  0  0  0  0  0  0  0  0  0
  -21.9157    6.3639  -10.0868 Cl  0  0  0  0  0  0  0  0  0  0  0  0
  -23.2161    4.0340  -10.4790 C   0  0  0  0  0  0  0  0  0  0  0  0
  -23.7130    3.0208  -11.2933 C   0  0  0  0  0  0  0  0  0  0  0  0
  -23.5358    3.0760  -12.6535 C   0  0  0  0  0  0  0  0  0  0  0  0
  -22.8711    4.1190  -13.2616 C   0  0  0  0  0  0  0  0  0  0  0  0
  -22.6794    4.1276  -14.9939 Cl  0  0  0  0  0  0  0  0  0  0  0  0
  -17.9829   15.9892  -22.1977 O   0  0  0  0  0  0  0  0  0  0  0  0
  -17.2451   17.0816  -22.5070 C   0  0  0  0  0  0  0  0  0  0  0  0
  -16.6275   16.8801  -23.9084 C   0  0  0  0  0  0  0  0  0  0  0  0
  -15.4198   16.0608  -23.8991 C   0  0  0  0  0  0  0  0  0  0  0  0
  -15.1180   15.2047  -24.9644 N   0  0  0  0  0  0  0  0  0  0  0  0
  -15.9331   14.0151  -25.0307 C   0  0  0  0  0  0  0  0  0  0  0  0
  -17.1036   14.1884  -25.9860 C   0  0  0  0  0  0  0  0  0  0  0  0
  -16.5010   14.3217  -27.2687 O   0  0  0  0  0  0  0  0  0  0  0  0
  -15.9044   15.5765  -27.2825 C   0  0  0  0  0  0  0  0  0  0  0  0
  -14.8156   15.7240  -26.2384 C   0  0  0  0  0  0  0  0  0  0  0  0
 11 12  1  0  0  0
 12  1  1  0  0  0
  1  2  2  0  0  0
  2  3  1  0  0  0
  3  4  2  0  0  0
  4 13  1  0  0  0
 13 14  1  0  0  0
 14 15  2  0  0  0
 15 16  1  0  0  0
 16 17  2  0  0  0
 17 21  1  0  0  0
 21 22  1  0  0  0
 22 23  2  0  0  0
 22 24  1  0  0  0
 24 27  1  0  0  0
 27 28  2  0  0  0
 28 29  1  0  0  0
 28 30  1  0  0  0
 30 31  2  0  0  0
 31 32  1  0  0  0
 32 33  2  0  0  0
 33 34  1  0  0  0
 17 18  1  0  0  0
 18 19  2  0  0  0
 19 20  1  0  0  0
  4  5  1  0  0  0
  5  6  2  0  0  0
  6  7  1  0  0  0
  7  8  2  0  0  0
  8  9  1  0  0  0
  9 10  2  0  0  0
 10 35  1  0  0  0
 35 36  1  0  0  0
 36 37  1  0  0  0
 37 38  1  0  0  0
 38 39  1  0  0  0
 39 40  1  0  0  0
 40 41  1  0  0  0
 41 42  1  0  0  0
 42 43  1  0  0  0
 43 44  1  0  0  0
 10  1  1  0  0  0
 44 39  1  0  0  0
  8  3  1  0  0  0
 19 14  1  0  0  0
 33 27  1  0  0  0
 21 25  1  0  0  0
 24 26  1  0  0  0
M  END
> <minimizedAffinity>
-8.04980

> <CNNscore>
0.1643943787

> <CNNaffinity>
7.1329665184

> <CNN_VS>
1.1726195812

> <CNNaffinity_variance>
0.1090232953

$$$$
[H]c1nc2c([H])c(OC([H])([H])C([H])([H])C([H])([H])N3C([H])([H])C([H])([H])OC([H])([H])C3([H])[H])c(OC([H])([H])[H])c([H])c2c(Oc2c([H])c([H])c(N([H])C(=O)N([H])c3c(Cl)c([H])c([H])c([H])c3Cl)c([H])c2Cl)c1[H]


 44 48  0  0  0  0  0  0  0  0999 V2000
  -18.2839   14.7200  -20.0230 C   0  0  0  0  0  0  0  0  0  0  0  0
  -18.3627   13.6033  -19.2335 C   0  0  0  0  0  0  0  0  0  0  0  0
  -17.8528   12.3690  -19.5724 C   0  0  0  0  0  0  0  0  0  0  0  0
  -17.9505   11.2568  -18.7443 C   0  0  0  0  0  0  0  0  0  0  0  0
  -17.4320   10.0326  -19.1103 C   0  0  0  0  0  0  0  0  0  0  0  0
  -16.8018    9.9479  -20.3443 C   0  0  0  0  0  0  0  0  0  0  0  0
  -16.7121   11.0296  -21.1349 N   0  0  0  0  0  0  0  0  0  0  0  0
  -17.2082   12.2270  -20.7999 C   0  0  0  0  0  0  0  0  0  0  0  0
  -17.1152   13.3420  -21.6124 C   0  0  0  0  0  0  0  0  0  0  0  0
  -17.6247   14.5791  -21.2738 C   0  0  0  0  0  0  0  0  0  0  0  0
  -18.4974   16.5948  -18.4725 C   0  0  0  0  0  0  0  0  0  0  0  0
  -18.8003   15.9631  -19.6925 O   0  0  0  0  0  0  0  0  0  0  0  0
  -18.5905   11.4275  -17.5312 O   0  0  0  0  0  0  0  0  0  0  0  0
  -19.3488   10.4683  -16.8793 C   0  0  0  0  0  0  0  0  0  0  0  0
  -18.8532    9.1919  -16.7451 C   0  0  0  0  0  0  0  0  0  0  0  0
  -19.5797    8.2124  -16.0988 C   0  0  0  0  0  0  0  0  0  0  0  0
  -20.8195    8.4360  -15.5566 C   0  0  0  0  0  0  0  0  0  0  0  0
  -21.3043    9.7536  -15.7056 C   0  0  0  0  0  0  0  0  0  0  0  0
  -20.5931   10.7266  -16.3425 C   0  0  0  0  0  0  0  0  0  0  0  0
  -21.2468   12.3763  -16.4689 Cl  0  0  0  0  0  0  0  0  0  0  0  0
  -21.6396    7.4830  -14.9235 N   0  0  0  0  0  0  0  0  0  0  0  0
  -21.4905    7.1429  -13.5143 C   0  0  0  0  0  0  0  0  0  0  0  0
  -20.5771    7.7809  -12.8857 O   0  0  0  0  0  0  0  0  0  0  0  0
  -22.2970    6.2024  -12.9712 N   0  0  0  0  0  0  0  0  0  0  0  0
  -22.3747    6.9950  -15.4540 H   0  0  0  0  0  0  0  0  0  0  0  0
  -21.6983    6.3192  -11.7425 H   0  0  0  0  0  0  0  0  0  0  0  0
  -23.1071    5.2577  -12.4254 C   0  0  0  0  0  0  0  0  0  0  0  0
  -23.3964    4.0513  -13.0977 C   0  0  0  0  0  0  0  0  0  0  0  0
  -22.6280    3.7725  -14.6500 Cl  0  0  0  0  0  0  0  0  0  0  0  0
  -24.2391    3.1102  -12.5910 C   0  0  0  0  0  0  0  0  0  0  0  0
  -24.8315    3.3636  -11.3576 C   0  0  0  0  0  0  0  0  0  0  0  0
  -24.5636    4.5316  -10.6876 C   0  0  0  0  0  0  0  0  0  0  0  0
  -23.7106    5.4866  -11.1972 C   0  0  0  0  0  0  0  0  0  0  0  0
  -23.4144    6.9488  -10.2960 Cl  0  0  0  0  0  0  0  0  0  0  0  0
  -17.5693   15.7013  -22.0093 O   0  0  0  0  0  0  0  0  0  0  0  0
  -17.8450   16.1623  -23.2522 C   0  0  0  0  0  0  0  0  0  0  0  0
  -18.1765   14.9598  -24.1631 C   0  0  0  0  0  0  0  0  0  0  0  0
  -17.5950   15.0638  -25.4978 C   0  0  0  0  0  0  0  0  0  0  0  0
  -16.3895   14.4267  -25.8134 N   0  0  0  0  0  0  0  0  0  0  0  0
  -15.5565   15.1435  -26.7494 C   0  0  0  0  0  0  0  0  0  0  0  0
  -14.5017   15.9772  -26.0389 C   0  0  0  0  0  0  0  0  0  0  0  0
  -13.6532   15.0214  -25.4125 O   0  0  0  0  0  0  0  0  0  0  0  0
  -14.3871   14.4908  -24.3586 C   0  0  0  0  0  0  0  0  0  0  0  0
  -15.6411   13.7725  -24.8153 C   0  0  0  0  0  0  0  0  0  0  0  0
 11 12  1  0  0  0
 12  1  1  0  0  0
  1  2  2  0  0  0
  2  3  1  0  0  0
  3  4  2  0  0  0
  4 13  1  0  0  0
 13 14  1  0  0  0
 14 15  2  0  0  0
 15 16  1  0  0  0
 16 17  2  0  0  0
 17 21  1  0  0  0
 21 22  1  0  0  0
 22 23  2  0  0  0
 22 24  1  0  0  0
 24 27  1  0  0  0
 27 28  2  0  0  0
 28 29  1  0  0  0
 28 30  1  0  0  0
 30 31  2  0  0  0
 31 32  1  0  0  0
 32 33  2  0  0  0
 33 34  1  0  0  0
 17 18  1  0  0  0
 18 19  2  0  0  0
 19 20  1  0  0  0
  4  5  1  0  0  0
  5  6  2  0  0  0
  6  7  1  0  0  0
  7  8  2  0  0  0
  8  9  1  0  0  0
  9 10  2  0  0  0
 10 35  1  0  0  0
 35 36  1  0  0  0
 36 37  1  0  0  0
 37 38  1  0  0  0
 38 39  1  0  0  0
 39 40  1  0  0  0
 40 41  1  0  0  0
 41 42  1  0  0  0
 42 43  1  0  0  0
 43 44  1  0  0  0
 10  1  1  0  0  0
 44 39  1  0  0  0
  8  3  1  0  0  0
 19 14  1  0  0  0
 33 27  1  0  0  0
 21 25  1  0  0  0
 24 26  1  0  0  0
M  END
> <minimizedAffinity>
-7.98220

> <CNNscore>
0.1375199705

> <CNNaffinity>
7.0397377014

> <CNN_VS>
0.9681045413

> <CNNaffinity_variance>
0.0994589776

$$$$
[H]c1nc2c([H])c(OC([H])([H])C([H])([H])C([H])([H])N3C([H])([H])C([H])([H])OC([H])([H])C3([H])[H])c(OC([H])([H])[H])c([H])c2c(Oc2c([H])c([H])c(N([H])C(=O)N([H])c3c(Cl)c([H])c([H])c([H])c3Cl)c([H])c2Cl)c1[H]


 44 48  0  0  0  0  0  0  0  0999 V2000
  -20.4460   10.2677  -15.8498 C   0  0  0  0  0  0  0  0  0  0  0  0
  -19.9216   11.3001  -16.5819 C   0  0  0  0  0  0  0  0  0  0  0  0
  -18.9219   11.1642  -17.5201 C   0  0  0  0  0  0  0  0  0  0  0  0
  -18.4147   12.2357  -18.2458 C   0  0  0  0  0  0  0  0  0  0  0  0
  -17.4120   12.0704  -19.1779 C   0  0  0  0  0  0  0  0  0  0  0  0
  -16.9230   10.7855  -19.3703 C   0  0  0  0  0  0  0  0  0  0  0  0
  -17.4220    9.7579  -18.6644 N   0  0  0  0  0  0  0  0  0  0  0  0
  -18.3946    9.8955  -17.7550 C   0  0  0  0  0  0  0  0  0  0  0  0
  -18.9104    8.8381  -17.0285 C   0  0  0  0  0  0  0  0  0  0  0  0
  -19.9125    8.9727  -16.0891 C   0  0  0  0  0  0  0  0  0  0  0  0
  -21.1712   10.7916  -13.5774 C   0  0  0  0  0  0  0  0  0  0  0  0
  -21.4465   10.3973  -14.8995 O   0  0  0  0  0  0  0  0  0  0  0  0
  -18.9592   13.4813  -17.9960 O   0  0  0  0  0  0  0  0  0  0  0  0
  -19.1760   14.4696  -18.9428 C   0  0  0  0  0  0  0  0  0  0  0  0
  -19.4775   14.1112  -20.2364 C   0  0  0  0  0  0  0  0  0  0  0  0
  -19.7027   15.0689  -21.2044 C   0  0  0  0  0  0  0  0  0  0  0  0
  -19.6433   16.4157  -20.9520 C   0  0  0  0  0  0  0  0  0  0  0  0
  -19.3346   16.7570  -19.6172 C   0  0  0  0  0  0  0  0  0  0  0  0
  -19.1108   15.8173  -18.6554 C   0  0  0  0  0  0  0  0  0  0  0  0
  -18.7574   16.3132  -16.9839 Cl  0  0  0  0  0  0  0  0  0  0  0  0
  -19.8159   17.4507  -21.8903 N   0  0  0  0  0  0  0  0  0  0  0  0
  -21.1315   17.9702  -22.2412 C   0  0  0  0  0  0  0  0  0  0  0  0
  -22.1182   17.4361  -21.6267 O   0  0  0  0  0  0  0  0  0  0  0  0
  -21.2306   18.9517  -23.1668 N   0  0  0  0  0  0  0  0  0  0  0  0
  -19.0004   17.8689  -22.3594 H   0  0  0  0  0  0  0  0  0  0  0  0
  -22.5986   18.9813  -23.0697 H   0  0  0  0  0  0  0  0  0  0  0  0
  -21.3303   19.9377  -24.0966 C   0  0  0  0  0  0  0  0  0  0  0  0
  -22.2974   19.8933  -25.1232 C   0  0  0  0  0  0  0  0  0  0  0  0
  -23.4199   18.5452  -25.1351 Cl  0  0  0  0  0  0  0  0  0  0  0  0
  -22.3878   20.8463  -26.0907 C   0  0  0  0  0  0  0  0  0  0  0  0
  -21.4817   21.9017  -26.0514 C   0  0  0  0  0  0  0  0  0  0  0  0
  -20.5327   21.9630  -25.0612 C   0  0  0  0  0  0  0  0  0  0  0  0
  -20.4383   21.0003  -24.0796 C   0  0  0  0  0  0  0  0  0  0  0  0
  -19.2090   21.1371  -22.8516 Cl  0  0  0  0  0  0  0  0  0  0  0  0
  -20.4609    7.9939  -15.3512 O   0  0  0  0  0  0  0  0  0  0  0  0
  -20.8411    6.6970  -15.4347 C   0  0  0  0  0  0  0  0  0  0  0  0
  -21.0696    6.1560  -14.0061 C   0  0  0  0  0  0  0  0  0  0  0  0
  -20.4319    4.8656  -13.7643 C   0  0  0  0  0  0  0  0  0  0  0  0
  -19.7876    4.1725  -14.7953 N   0  0  0  0  0  0  0  0  0  0  0  0
  -18.4456    3.7411  -14.4843 C   0  0  0  0  0  0  0  0  0  0  0  0
  -18.4168    2.3005  -13.9983 C   0  0  0  0  0  0  0  0  0  0  0  0
  -18.8220    1.5344  -15.1275 O   0  0  0  0  0  0  0  0  0  0  0  0
  -20.1806    1.7779  -15.2873 C   0  0  0  0  0  0  0  0  0  0  0  0
  -20.4894    3.2333  -15.5763 C   0  0  0  0  0  0  0  0  0  0  0  0
 11 12  1  0  0  0
 12  1  1  0  0  0
  1  2  2  0  0  0
  2  3  1  0  0  0
  3  4  2  0  0  0
  4 13  1  0  0  0
 13 14  1  0  0  0
 14 15  2  0  0  0
 15 16  1  0  0  0
 16 17  2  0  0  0
 17 21  1  0  0  0
 21 22  1  0  0  0
 22 23  2  0  0  0
 22 24  1  0  0  0
 24 27  1  0  0  0
 27 28  2  0  0  0
 28 29  1  0  0  0
 28 30  1  0  0  0
 30 31  2  0  0  0
 31 32  1  0  0  0
 32 33  2  0  0  0
 33 34  1  0  0  0
 17 18  1  0  0  0
 18 19  2  0  0  0
 19 20  1  0  0  0
  4  5  1  0  0  0
  5  6  2  0  0  0
  6  7  1  0  0  0
  7  8  2  0  0  0
  8  9  1  0  0  0
  9 10  2  0  0  0
 10 35  1  0  0  0
 35 36  1  0  0  0
 36 37  1  0  0  0
 37 38  1  0  0  0
 38 39  1  0  0  0
 39 40  1  0  0  0
 40 41  1  0  0  0
 41 42  1  0  0  0
 42 43  1  0  0  0
 43 44  1  0  0  0
 10  1  1  0  0  0
 44 39  1  0  0  0
  8  3  1  0  0  0
 19 14  1  0  0  0
 33 27  1  0  0  0
 21 25  1  0  0  0
 24 26  1  0  0  0
M  END
> <minimizedAffinity>
-7.53736

> <CNNscore>
0.1237660944

> <CNNaffinity>
6.8015570641

> <CNN_VS>
0.8418021798

> <CNNaffinity_variance>
0.1125422120

$$$$
[H]c1nc2c([H])c(OC([H])([H])C([H])([H])C([H])([H])N3C([H])([H])C([H])([H])OC([H])([H])C3([H])[H])c(OC([H])([H])[H])c([H])c2c(Oc2c([H])c([H])c(N([H])C(=O)N([H])c3c(Cl)c([H])c([H])c([H])c3Cl)c([H])c2Cl)c1[H]


 44 48  0  0  0  0  0  0  0  0999 V2000
  -19.5321   12.8998  -19.8225 C   0  0  0  0  0  0  0  0  0  0  0  0
  -18.9392   13.0917  -21.0425 C   0  0  0  0  0  0  0  0  0  0  0  0
  -17.7401   12.5317  -21.4256 C   0  0  0  0  0  0  0  0  0  0  0  0
  -17.1686   12.7480  -22.6740 C   0  0  0  0  0  0  0  0  0  0  0  0
  -15.9657   12.1755  -23.0299 C   0  0  0  0  0  0  0  0  0  0  0  0
  -15.3397   11.3668  -22.0912 C   0  0  0  0  0  0  0  0  0  0  0  0
  -15.9023   11.1638  -20.8889 N   0  0  0  0  0  0  0  0  0  0  0  0
  -17.0685   11.7094  -20.5225 C   0  0  0  0  0  0  0  0  0  0  0  0
  -17.6496   11.5001  -19.2854 C   0  0  0  0  0  0  0  0  0  0  0  0
  -18.8512   12.0597  -18.9008 C   0  0  0  0  0  0  0  0  0  0  0  0
  -20.9867   14.8431  -19.5547 C   0  0  0  0  0  0  0  0  0  0  0  0
  -20.7342   13.4650  -19.4271 O   0  0  0  0  0  0  0  0  0  0  0  0
  -17.8585   13.5636  -23.5511 O   0  0  0  0  0  0  0  0  0  0  0  0
  -17.9629   14.9421  -23.4556 C   0  0  0  0  0  0  0  0  0  0  0  0
  -18.6956   15.4945  -22.4305 C   0  0  0  0  0  0  0  0  0  0  0  0
  -18.8182   16.8633  -22.3028 C   0  0  0  0  0  0  0  0  0  0  0  0
  -18.2320   17.7507  -23.1689 C   0  0  0  0  0  0  0  0  0  0  0  0
  -17.4842   17.1588  -24.2100 C   0  0  0  0  0  0  0  0  0  0  0  0
  -17.3583   15.8080  -24.3431 C   0  0  0  0  0  0  0  0  0  0  0  0
  -16.3751   15.1256  -25.6593 Cl  0  0  0  0  0  0  0  0  0  0  0  0
  -18.3454   19.1533  -23.1328 N   0  0  0  0  0  0  0  0  0  0  0  0
  -19.5429   19.8481  -23.5881 C   0  0  0  0  0  0  0  0  0  0  0  0
  -20.4914   19.0982  -24.0057 O   0  0  0  0  0  0  0  0  0  0  0  0
  -19.5801   21.1997  -23.5469 N   0  0  0  0  0  0  0  0  0  0  0  0
  -17.5685   19.7291  -22.7794 H   0  0  0  0  0  0  0  0  0  0  0  0
  -20.8450   21.2361  -24.0765 H   0  0  0  0  0  0  0  0  0  0  0  0
  -19.6178   22.5574  -23.5056 C   0  0  0  0  0  0  0  0  0  0  0  0
  -19.3124   23.2719  -22.3278 C   0  0  0  0  0  0  0  0  0  0  0  0
  -18.8200   22.3542  -20.9160 Cl  0  0  0  0  0  0  0  0  0  0  0  0
  -19.3857   24.6287  -22.2502 C   0  0  0  0  0  0  0  0  0  0  0  0
  -19.7797   25.3253  -23.3886 C   0  0  0  0  0  0  0  0  0  0  0  0
  -20.0819   24.6489  -24.5444 C   0  0  0  0  0  0  0  0  0  0  0  0
  -20.0083   23.2752  -24.6270 C   0  0  0  0  0  0  0  0  0  0  0  0
  -20.4069   22.4778  -26.1247 Cl  0  0  0  0  0  0  0  0  0  0  0  0
  -19.4732   11.8990  -17.7215 O   0  0  0  0  0  0  0  0  0  0  0  0
  -19.5458   12.4447  -16.4845 C   0  0  0  0  0  0  0  0  0  0  0  0
  -20.0624   11.3720  -15.5006 C   0  0  0  0  0  0  0  0  0  0  0  0
  -20.0103   10.0163  -16.0387 C   0  0  0  0  0  0  0  0  0  0  0  0
  -19.5769    8.9422  -15.2531 N   0  0  0  0  0  0  0  0  0  0  0  0
  -19.2677    9.2828  -13.8849 C   0  0  0  0  0  0  0  0  0  0  0  0
  -20.4412    9.0066  -12.9580 C   0  0  0  0  0  0  0  0  0  0  0  0
  -20.5918    7.5914  -12.9843 O   0  0  0  0  0  0  0  0  0  0  0  0
  -21.1102    7.2851  -14.2366 C   0  0  0  0  0  0  0  0  0  0  0  0
  -20.1841    7.6765  -15.3707 C   0  0  0  0  0  0  0  0  0  0  0  0
 11 12  1  0  0  0
 12  1  1  0  0  0
  1  2  2  0  0  0
  2  3  1  0  0  0
  3  4  2  0  0  0
  4 13  1  0  0  0
 13 14  1  0  0  0
 14 15  2  0  0  0
 15 16  1  0  0  0
 16 17  2  0  0  0
 17 21  1  0  0  0
 21 22  1  0  0  0
 22 23  2  0  0  0
 22 24  1  0  0  0
 24 27  1  0  0  0
 27 28  2  0  0  0
 28 29  1  0  0  0
 28 30  1  0  0  0
 30 31  2  0  0  0
 31 32  1  0  0  0
 32 33  2  0  0  0
 33 34  1  0  0  0
 17 18  1  0  0  0
 18 19  2  0  0  0
 19 20  1  0  0  0
  4  5  1  0  0  0
  5  6  2  0  0  0
  6  7  1  0  0  0
  7  8  2  0  0  0
  8  9  1  0  0  0
  9 10  2  0  0  0
 10 35  1  0  0  0
 35 36  1  0  0  0
 36 37  1  0  0  0
 37 38  1  0  0  0
 38 39  1  0  0  0
 39 40  1  0  0  0
 40 41  1  0  0  0
 41 42  1  0  0  0
 42 43  1  0  0  0
 43 44  1  0  0  0
 10  1  1  0  0  0
 44 39  1  0  0  0
  8  3  1  0  0  0
 19 14  1  0  0  0
 33 27  1  0  0  0
 21 25  1  0  0  0
 24 26  1  0  0  0
M  END
> <minimizedAffinity>
-7.73538

> <CNNscore>
0.1157428324

> <CNNaffinity>
7.0821981430

> <CNN_VS>
0.8197136521

> <CNNaffinity_variance>
0.1849769801

$$$$
[H]c1nc2c([H])c(OC([H])([H])C([H])([H])C([H])([H])N3C([H])([H])C([H])([H])OC([H])([H])C3([H])[H])c(OC([H])([H])[H])c([H])c2c(Oc2c([H])c([H])c(N([H])C(=O)N([H])c3c(Cl)c([H])c([H])c([H])c3Cl)c([H])c2Cl)c1[H]


 44 48  0  0  0  0  0  0  0  0999 V2000
  -18.7020   12.2620  -18.0400 C   0  0  0  0  0  0  0  0  0  0  0  0
  -18.6087   13.2973  -18.9322 C   0  0  0  0  0  0  0  0  0  0  0  0
  -17.9865   13.2183  -20.1590 C   0  0  0  0  0  0  0  0  0  0  0  0
  -17.9122   14.2907  -21.0401 C   0  0  0  0  0  0  0  0  0  0  0  0
  -17.2813   14.1833  -22.2615 C   0  0  0  0  0  0  0  0  0  0  0  0
  -16.7192   12.9561  -22.5853 C   0  0  0  0  0  0  0  0  0  0  0  0
  -16.7988   11.9267  -21.7266 N   0  0  0  0  0  0  0  0  0  0  0  0
  -17.4058   12.0087  -20.5364 C   0  0  0  0  0  0  0  0  0  0  0  0
  -17.4898   10.9492  -19.6519 C   0  0  0  0  0  0  0  0  0  0  0  0
  -18.1135   11.0268  -18.4232 C   0  0  0  0  0  0  0  0  0  0  0  0
  -20.7090   12.1721  -16.6515 C   0  0  0  0  0  0  0  0  0  0  0  0
  -19.3198   12.3354  -16.8015 O   0  0  0  0  0  0  0  0  0  0  0  0
  -18.5006   15.4764  -20.6420 O   0  0  0  0  0  0  0  0  0  0  0  0
  -18.6783   16.5947  -21.4408 C   0  0  0  0  0  0  0  0  0  0  0  0
  -19.7321   16.6329  -22.3245 C   0  0  0  0  0  0  0  0  0  0  0  0
  -19.9413   17.7318  -23.1330 C   0  0  0  0  0  0  0  0  0  0  0  0
  -19.1322   18.8391  -23.1139 C   0  0  0  0  0  0  0  0  0  0  0  0
  -18.0601   18.7759  -22.1974 C   0  0  0  0  0  0  0  0  0  0  0  0
  -17.8466   17.6943  -21.3956 C   0  0  0  0  0  0  0  0  0  0  0  0
  -16.4953   17.6902  -20.2384 Cl  0  0  0  0  0  0  0  0  0  0  0  0
  -19.2520   19.9765  -23.9346 N   0  0  0  0  0  0  0  0  0  0  0  0
  -20.4548   20.7992  -23.9518 C   0  0  0  0  0  0  0  0  0  0  0  0
  -21.3879   20.4301  -23.1584 O   0  0  0  0  0  0  0  0  0  0  0  0
  -20.5144   21.8676  -24.7795 N   0  0  0  0  0  0  0  0  0  0  0  0
  -18.4780   20.2550  -24.5537 H   0  0  0  0  0  0  0  0  0  0  0  0
  -21.7871   22.1802  -24.3742 H   0  0  0  0  0  0  0  0  0  0  0  0
  -20.5745   22.9408  -25.6108 C   0  0  0  0  0  0  0  0  0  0  0  0
  -20.1952   24.2311  -25.1839 C   0  0  0  0  0  0  0  0  0  0  0  0
  -19.5811   24.4072  -23.5500 Cl  0  0  0  0  0  0  0  0  0  0  0  0
  -20.2882   25.3280  -25.9843 C   0  0  0  0  0  0  0  0  0  0  0  0
  -20.7796   25.1525  -27.2744 C   0  0  0  0  0  0  0  0  0  0  0  0
  -21.1546   23.9054  -27.7088 C   0  0  0  0  0  0  0  0  0  0  0  0
  -21.0615   22.7923  -26.9015 C   0  0  0  0  0  0  0  0  0  0  0  0
  -21.5561   21.2375  -27.5144 Cl  0  0  0  0  0  0  0  0  0  0  0  0
  -18.2344   10.0420  -17.5182 O   0  0  0  0  0  0  0  0  0  0  0  0
  -19.0085    8.9714  -17.2217 C   0  0  0  0  0  0  0  0  0  0  0  0
  -19.0686    8.8151  -15.6862 C   0  0  0  0  0  0  0  0  0  0  0  0
  -19.2780    7.4382  -15.2498 C   0  0  0  0  0  0  0  0  0  0  0  0
  -20.3539    7.0971  -14.4223 N   0  0  0  0  0  0  0  0  0  0  0  0
  -21.5854    7.7892  -14.7195 C   0  0  0  0  0  0  0  0  0  0  0  0
  -22.4927    6.9619  -15.6165 C   0  0  0  0  0  0  0  0  0  0  0  0
  -22.8570    5.8404  -14.8192 O   0  0  0  0  0  0  0  0  0  0  0  0
  -21.7166    5.0521  -14.7242 C   0  0  0  0  0  0  0  0  0  0  0  0
  -20.5660    5.7591  -14.0362 C   0  0  0  0  0  0  0  0  0  0  0  0
 11 12  1  0  0  0
 12  1  1  0  0  0
  1  2  2  0  0  0
  2  3  1  0  0  0
  3  4  2  0  0  0
  4 13  1  0  0  0
 13 14  1  0  0  0
 14 15  2  0  0  0
 15 16  1  0  0  0
 16 17  2  0  0  0
 17 21  1  0  0  0
 21 22  1  0  0  0
 22 23  2  0  0  0
 22 24  1  0  0  0
 24 27  1  0  0  0
 27 28  2  0  0  0
 28 29  1  0  0  0
 28 30  1  0  0  0
 30 31  2  0  0  0
 31 32  1  0  0  0
 32 33  2  0  0  0
 33 34  1  0  0  0
 17 18  1  0  0  0
 18 19  2  0  0  0
 19 20  1  0  0  0
  4  5  1  0  0  0
  5  6  2  0  0  0
  6  7  1  0  0  0
  7  8  2  0  0  0
  8  9  1  0  0  0
  9 10  2  0  0  0
 10 35  1  0  0  0
 35 36  1  0  0  0
 36 37  1  0  0  0
 37 38  1  0  0  0
 38 39  1  0  0  0
 39 40  1  0  0  0
 40 41  1  0  0  0
 41 42  1  0  0  0
 42 43  1  0  0  0
 43 44  1  0  0  0
 10  1  1  0  0  0
 44 39  1  0  0  0
  8  3  1  0  0  0
 19 14  1  0  0  0
 33 27  1  0  0  0
 21 25  1  0  0  0
 24 26  1  0  0  0
M  END
> <minimizedAffinity>
-8.05807

> <CNNscore>
0.1123536304

> <CNNaffinity>
6.6981821060

> <CNN_VS>
0.7525650859

> <CNNaffinity_variance>
0.1048298255

$$$$
[H]c1nc2c([H])c(OC([H])([H])C([H])([H])C([H])([H])N3C([H])([H])C([H])([H])OC([H])([H])C3([H])[H])c(OC([H])([H])[H])c([H])c2c(Oc2c([H])c([H])c(N([H])C(=O)N([H])c3c(Cl)c([H])c([H])c([H])c3Cl)c([H])c2Cl)c1[H]


 44 48  0  0  0  0  0  0  0  0999 V2000
  -19.2035   16.5079  -20.8493 C   0  0  0  0  0  0  0  0  0  0  0  0
  -18.7085   15.3323  -20.3498 C   0  0  0  0  0  0  0  0  0  0  0  0
  -18.1319   14.3402  -21.1124 C   0  0  0  0  0  0  0  0  0  0  0  0
  -17.6387   13.1592  -20.5701 C   0  0  0  0  0  0  0  0  0  0  0  0
  -17.0679   12.1823  -21.3582 C   0  0  0  0  0  0  0  0  0  0  0  0
  -17.0002   12.4209  -22.7241 C   0  0  0  0  0  0  0  0  0  0  0  0
  -17.4785   13.5663  -23.2363 N   0  0  0  0  0  0  0  0  0  0  0  0
  -18.0365   14.5276  -22.4902 C   0  0  0  0  0  0  0  0  0  0  0  0
  -18.5281   15.7081  -23.0162 C   0  0  0  0  0  0  0  0  0  0  0  0
  -19.1050   16.7031  -22.2532 C   0  0  0  0  0  0  0  0  0  0  0  0
  -19.1140   18.1286  -19.0246 C   0  0  0  0  0  0  0  0  0  0  0  0
  -19.7911   17.5074  -20.0899 O   0  0  0  0  0  0  0  0  0  0  0  0
  -17.7421   13.0021  -19.2008 O   0  0  0  0  0  0  0  0  0  0  0  0
  -18.1939   11.8635  -18.5531 C   0  0  0  0  0  0  0  0  0  0  0  0
  -17.4398   10.7138  -18.6032 C   0  0  0  0  0  0  0  0  0  0  0  0
  -17.8574    9.5624  -17.9670 C   0  0  0  0  0  0  0  0  0  0  0  0
  -19.0275    9.4834  -17.2556 C   0  0  0  0  0  0  0  0  0  0  0  0
  -19.7814   10.6765  -17.2176 C   0  0  0  0  0  0  0  0  0  0  0  0
  -19.3759   11.8178  -17.8433 C   0  0  0  0  0  0  0  0  0  0  0  0
  -20.3566   13.2977  -17.7304 Cl  0  0  0  0  0  0  0  0  0  0  0  0
  -19.5430    8.3390  -16.6183 N   0  0  0  0  0  0  0  0  0  0  0  0
  -19.3532    8.0903  -15.1950 C   0  0  0  0  0  0  0  0  0  0  0  0
  -18.7029    8.9897  -14.5589 O   0  0  0  0  0  0  0  0  0  0  0  0
  -19.8561    6.9601  -14.6475 N   0  0  0  0  0  0  0  0  0  0  0  0
  -20.0732    7.6389  -17.1556 H   0  0  0  0  0  0  0  0  0  0  0  0
  -19.3704    7.2798  -13.4051 H   0  0  0  0  0  0  0  0  0  0  0  0
  -20.3612    5.8248  -14.0974 C   0  0  0  0  0  0  0  0  0  0  0  0
  -21.3074    5.0291  -14.7775 C   0  0  0  0  0  0  0  0  0  0  0  0
  -21.7779    5.5167  -16.3957 Cl  0  0  0  0  0  0  0  0  0  0  0  0
  -21.8599    3.9125  -14.2293 C   0  0  0  0  0  0  0  0  0  0  0  0
  -21.4643    3.5546  -12.9440 C   0  0  0  0  0  0  0  0  0  0  0  0
  -20.5455    4.3158  -12.2650 C   0  0  0  0  0  0  0  0  0  0  0  0
  -19.9835    5.4467  -12.8170 C   0  0  0  0  0  0  0  0  0  0  0  0
  -18.8233    6.3695  -11.9004 Cl  0  0  0  0  0  0  0  0  0  0  0  0
  -19.5997   17.8711  -22.6943 O   0  0  0  0  0  0  0  0  0  0  0  0
  -19.2062   19.0367  -23.2598 C   0  0  0  0  0  0  0  0  0  0  0  0
  -20.3807   20.0379  -23.1966 C   0  0  0  0  0  0  0  0  0  0  0  0
  -19.9937   21.4089  -23.5140 C   0  0  0  0  0  0  0  0  0  0  0  0
  -20.2356   21.9543  -24.7800 N   0  0  0  0  0  0  0  0  0  0  0  0
  -21.4162   22.7807  -24.8643 C   0  0  0  0  0  0  0  0  0  0  0  0
  -21.0828   24.2553  -24.7004 C   0  0  0  0  0  0  0  0  0  0  0  0
  -20.2998   24.5739  -25.8456 O   0  0  0  0  0  0  0  0  0  0  0  0
  -19.0698   23.9571  -25.6517 C   0  0  0  0  0  0  0  0  0  0  0  0
  -19.1739   22.4477  -25.5634 C   0  0  0  0  0  0  0  0  0  0  0  0
 11 12  1  0  0  0
 12  1  1  0  0  0
  1  2  2  0  0  0
  2  3  1  0  0  0
  3  4  2  0  0  0
  4 13  1  0  0  0
 13 14  1  0  0  0
 14 15  2  0  0  0
 15 16  1  0  0  0
 16 17  2  0  0  0
 17 21  1  0  0  0
 21 22  1  0  0  0
 22 23  2  0  0  0
 22 24  1  0  0  0
 24 27  1  0  0  0
 27 28  2  0  0  0
 28 29  1  0  0  0
 28 30  1  0  0  0
 30 31  2  0  0  0
 31 32  1  0  0  0
 32 33  2  0  0  0
 33 34  1  0  0  0
 17 18  1  0  0  0
 18 19  2  0  0  0
 19 20  1  0  0  0
  4  5  1  0  0  0
  5  6  2  0  0  0
  6  7  1  0  0  0
  7  8  2  0  0  0
  8  9  1  0  0  0
  9 10  2  0  0  0
 10 35  1  0  0  0
 35 36  1  0  0  0
 36 37  1  0  0  0
 37 38  1  0  0  0
 38 39  1  0  0  0
 39 40  1  0  0  0
 40 41  1  0  0  0
 41 42  1  0  0  0
 42 43  1  0  0  0
 43 44  1  0  0  0
 10  1  1  0  0  0
 44 39  1  0  0  0
  8  3  1  0  0  0
 19 14  1  0  0  0
 33 27  1  0  0  0
 21 25  1  0  0  0
 24 26  1  0  0  0
M  END
> <minimizedAffinity>
-7.99194

> <CNNscore>
0.1120660007

> <CNNaffinity>
6.4068655968

> <CNN_VS>
0.7179918289

> <CNNaffinity_variance>
0.2717505097

$$$$
[H]c1nc2c([H])c(OC([H])([H])C([H])([H])C([H])([H])N3C([H])([H])C([H])([H])OC([H])([H])C3([H])[H])c(OC([H])([H])[H])c([H])c2c(Oc2c([H])c([H])c(N([H])C(=O)N([H])c3c(Cl)c([H])c([H])c([H])c3Cl)c([H])c2Cl)c1[H]


 44 48  0  0  0  0  0  0  0  0999 V2000
  -20.4441   10.3485  -15.5344 C   0  0  0  0  0  0  0  0  0  0  0  0
  -20.0158   11.3523  -16.3624 C   0  0  0  0  0  0  0  0  0  0  0  0
  -19.0875   11.1934  -17.3680 C   0  0  0  0  0  0  0  0  0  0  0  0
  -18.6772   12.2361  -18.1905 C   0  0  0  0  0  0  0  0  0  0  0  0
  -17.7444   12.0483  -19.1886 C   0  0  0  0  0  0  0  0  0  0  0  0
  -17.2255   10.7705  -19.3470 C   0  0  0  0  0  0  0  0  0  0  0  0
  -17.6309    9.7707  -18.5473 N   0  0  0  0  0  0  0  0  0  0  0  0
  -18.5344    9.9305  -17.5727 C   0  0  0  0  0  0  0  0  0  0  0  0
  -18.9537    8.9016  -16.7495 C   0  0  0  0  0  0  0  0  0  0  0  0
  -19.8842    9.0593  -15.7425 C   0  0  0  0  0  0  0  0  0  0  0  0
  -21.6624   11.7593  -13.9566 C   0  0  0  0  0  0  0  0  0  0  0  0
  -21.3720   10.5017  -14.5163 O   0  0  0  0  0  0  0  0  0  0  0  0
  -19.2455   13.4763  -17.9683 O   0  0  0  0  0  0  0  0  0  0  0  0
  -19.4164   14.4661  -18.9229 C   0  0  0  0  0  0  0  0  0  0  0  0
  -19.8369   14.1204  -20.1864 C   0  0  0  0  0  0  0  0  0  0  0  0
  -20.0208   15.0804  -21.1609 C   0  0  0  0  0  0  0  0  0  0  0  0
  -19.8023   16.4171  -20.9447 C   0  0  0  0  0  0  0  0  0  0  0  0
  -19.3738   16.7456  -19.6401 C   0  0  0  0  0  0  0  0  0  0  0  0
  -19.1898   15.8036  -18.6721 C   0  0  0  0  0  0  0  0  0  0  0  0
  -18.6788   16.2866  -17.0380 Cl  0  0  0  0  0  0  0  0  0  0  0  0
  -19.9239   17.4487  -21.8947 N   0  0  0  0  0  0  0  0  0  0  0  0
  -21.2107   18.0387  -22.2408 C   0  0  0  0  0  0  0  0  0  0  0  0
  -22.2206   17.5700  -21.6110 O   0  0  0  0  0  0  0  0  0  0  0  0
  -21.2617   19.0129  -23.1780 N   0  0  0  0  0  0  0  0  0  0  0  0
  -19.0900   17.8134  -22.3760 H   0  0  0  0  0  0  0  0  0  0  0  0
  -22.6248   19.1224  -23.0695 H   0  0  0  0  0  0  0  0  0  0  0  0
  -21.3133   19.9915  -24.1195 C   0  0  0  0  0  0  0  0  0  0  0  0
  -22.2397   19.9488  -25.1829 C   0  0  0  0  0  0  0  0  0  0  0  0
  -23.3768   18.6136  -25.2273 Cl  0  0  0  0  0  0  0  0  0  0  0  0
  -22.2809   20.8940  -26.1614 C   0  0  0  0  0  0  0  0  0  0  0  0
  -21.3646   21.9392  -26.0956 C   0  0  0  0  0  0  0  0  0  0  0  0
  -20.4546   21.9987  -25.0694 C   0  0  0  0  0  0  0  0  0  0  0  0
  -20.4101   21.0439  -24.0765 C   0  0  0  0  0  0  0  0  0  0  0  0
  -19.2284   21.1777  -22.8024 Cl  0  0  0  0  0  0  0  0  0  0  0  0
  -20.3380    8.1084  -14.9097 O   0  0  0  0  0  0  0  0  0  0  0  0
  -19.9803    7.4202  -13.7999 C   0  0  0  0  0  0  0  0  0  0  0  0
  -19.2452    8.3800  -12.8386 C   0  0  0  0  0  0  0  0  0  0  0  0
  -18.5337    7.6946  -11.7643 C   0  0  0  0  0  0  0  0  0  0  0  0
  -18.6007    8.1539  -10.4440 N   0  0  0  0  0  0  0  0  0  0  0  0
  -17.4821    7.7714   -9.6156 C   0  0  0  0  0  0  0  0  0  0  0  0
  -16.4292    8.8668   -9.5523 C   0  0  0  0  0  0  0  0  0  0  0  0
  -17.0707    9.9400   -8.8720 O   0  0  0  0  0  0  0  0  0  0  0  0
  -18.0002   10.4581   -9.7655 C   0  0  0  0  0  0  0  0  0  0  0  0
  -19.0644    9.4532  -10.1591 C   0  0  0  0  0  0  0  0  0  0  0  0
 11 12  1  0  0  0
 12  1  1  0  0  0
  1  2  2  0  0  0
  2  3  1  0  0  0
  3  4  2  0  0  0
  4 13  1  0  0  0
 13 14  1  0  0  0
 14 15  2  0  0  0
 15 16  1  0  0  0
 16 17  2  0  0  0
 17 21  1  0  0  0
 21 22  1  0  0  0
 22 23  2  0  0  0
 22 24  1  0  0  0
 24 27  1  0  0  0
 27 28  2  0  0  0
 28 29  1  0  0  0
 28 30  1  0  0  0
 30 31  2  0  0  0
 31 32  1  0  0  0
 32 33  2  0  0  0
 33 34  1  0  0  0
 17 18  1  0  0  0
 18 19  2  0  0  0
 19 20  1  0  0  0
  4  5  1  0  0  0
  5  6  2  0  0  0
  6  7  1  0  0  0
  7  8  2  0  0  0
  8  9  1  0  0  0
  9 10  2  0  0  0
 10 35  1  0  0  0
 35 36  1  0  0  0
 36 37  1  0  0  0
 37 38  1  0  0  0
 38 39  1  0  0  0
 39 40  1  0  0  0
 40 41  1  0  0  0
 41 42  1  0  0  0
 42 43  1  0  0  0
 43 44  1  0  0  0
 10  1  1  0  0  0
 44 39  1  0  0  0
  8  3  1  0  0  0
 19 14  1  0  0  0
 33 27  1  0  0  0
 21 25  1  0  0  0
 24 26  1  0  0  0
M  END
> <minimizedAffinity>
-8.32175

> <CNNscore>
0.1115571707

> <CNNaffinity>
6.8055748940

> <CNN_VS>
0.7592107058

> <CNNaffinity_variance>
0.1039570346

$$$$
[H]c1nc2c([H])c(OC([H])([H])C([H])([H])C([H])([H])N3C([H])([H])C([H])([H])OC([H])([H])C3([H])[H])c(OC([H])([H])[H])c([H])c2c(Oc2c([H])c([H])c(N([H])C(=O)N([H])c3c(Cl)c([H])c([H])c([H])c3Cl)c([H])c2Cl)c1[H]


 44 48  0  0  0  0  0  0  0  0999 V2000
  -20.5284   10.2851  -15.0490 C   0  0  0  0  0  0  0  0  0  0  0  0
  -20.1252   11.3068  -15.8676 C   0  0  0  0  0  0  0  0  0  0  0  0
  -19.2796   11.1577  -16.9452 C   0  0  0  0  0  0  0  0  0  0  0  0
  -18.8925   12.2186  -17.7555 C   0  0  0  0  0  0  0  0  0  0  0  0
  -18.0431   12.0402  -18.8270 C   0  0  0  0  0  0  0  0  0  0  0  0
  -17.5848   10.7530  -19.0726 C   0  0  0  0  0  0  0  0  0  0  0  0
  -17.9671    9.7357  -18.2838 N   0  0  0  0  0  0  0  0  0  0  0  0
  -18.7902    9.8862  -17.2389 C   0  0  0  0  0  0  0  0  0  0  0  0
  -19.1858    8.8393  -16.4267 C   0  0  0  0  0  0  0  0  0  0  0  0
  -20.0334    8.9872  -15.3476 C   0  0  0  0  0  0  0  0  0  0  0  0
  -21.7098   11.6910  -13.4390 C   0  0  0  0  0  0  0  0  0  0  0  0
  -21.3729   10.4281  -13.9593 O   0  0  0  0  0  0  0  0  0  0  0  0
  -19.3966   13.4673  -17.4441 O   0  0  0  0  0  0  0  0  0  0  0  0
  -19.8638   14.3977  -18.3585 C   0  0  0  0  0  0  0  0  0  0  0  0
  -20.8530   14.0367  -19.2440 C   0  0  0  0  0  0  0  0  0  0  0  0
  -21.3443   14.9385  -20.1661 C   0  0  0  0  0  0  0  0  0  0  0  0
  -20.8920   16.2297  -20.2637 C   0  0  0  0  0  0  0  0  0  0  0  0
  -19.8791   16.5756  -19.3429 C   0  0  0  0  0  0  0  0  0  0  0  0
  -19.3885   15.6908  -18.4293 C   0  0  0  0  0  0  0  0  0  0  0  0
  -18.1339   16.1989  -17.2749 Cl  0  0  0  0  0  0  0  0  0  0  0  0
  -21.3085   17.1930  -21.2018 N   0  0  0  0  0  0  0  0  0  0  0  0
  -20.5167   17.5239  -22.3796 C   0  0  0  0  0  0  0  0  0  0  0  0
  -19.4266   16.8682  -22.5146 O   0  0  0  0  0  0  0  0  0  0  0  0
  -20.9632   18.4749  -23.2319 N   0  0  0  0  0  0  0  0  0  0  0  0
  -22.1976   17.6954  -21.0716 H   0  0  0  0  0  0  0  0  0  0  0  0
  -19.8646   18.3425  -24.0427 H   0  0  0  0  0  0  0  0  0  0  0  0
  -21.4115   19.4301  -24.0881 C   0  0  0  0  0  0  0  0  0  0  0  0
  -20.7581   20.6740  -24.2188 C   0  0  0  0  0  0  0  0  0  0  0  0
  -19.3002   20.9376  -23.2793 Cl  0  0  0  0  0  0  0  0  0  0  0  0
  -21.2134   21.6620  -25.0367 C   0  0  0  0  0  0  0  0  0  0  0  0
  -22.3726   21.4194  -25.7674 C   0  0  0  0  0  0  0  0  0  0  0  0
  -23.0236   20.2161  -25.6539 C   0  0  0  0  0  0  0  0  0  0  0  0
  -22.5654   19.2131  -24.8273 C   0  0  0  0  0  0  0  0  0  0  0  0
  -23.4403   17.7089  -24.7283 Cl  0  0  0  0  0  0  0  0  0  0  0  0
  -20.4598    8.0191  -14.5203 O   0  0  0  0  0  0  0  0  0  0  0  0
  -20.1712    7.4494  -13.3264 C   0  0  0  0  0  0  0  0  0  0  0  0
  -18.9632    8.1858  -12.7064 C   0  0  0  0  0  0  0  0  0  0  0  0
  -18.3948    7.4996  -11.5505 C   0  0  0  0  0  0  0  0  0  0  0  0
  -18.4743    8.0547  -10.2683 N   0  0  0  0  0  0  0  0  0  0  0  0
  -17.3993    7.6785   -9.3813 C   0  0  0  0  0  0  0  0  0  0  0  0
  -16.2945    8.7233   -9.3626 C   0  0  0  0  0  0  0  0  0  0  0  0
  -16.8992    9.8721   -8.7790 O   0  0  0  0  0  0  0  0  0  0  0  0
  -17.7768   10.3696   -9.7346 C   0  0  0  0  0  0  0  0  0  0  0  0
  -18.8793    9.3920  -10.0894 C   0  0  0  0  0  0  0  0  0  0  0  0
 11 12  1  0  0  0
 12  1  1  0  0  0
  1  2  2  0  0  0
  2  3  1  0  0  0
  3  4  2  0  0  0
  4 13  1  0  0  0
 13 14  1  0  0  0
 14 15  2  0  0  0
 15 16  1  0  0  0
 16 17  2  0  0  0
 17 21  1  0  0  0
 21 22  1  0  0  0
 22 23  2  0  0  0
 22 24  1  0  0  0
 24 27  1  0  0  0
 27 28  2  0  0  0
 28 29  1  0  0  0
 28 30  1  0  0  0
 30 31  2  0  0  0
 31 32  1  0  0  0
 32 33  2  0  0  0
 33 34  1  0  0  0
 17 18  1  0  0  0
 18 19  2  0  0  0
 19 20  1  0  0  0
  4  5  1  0  0  0
  5  6  2  0  0  0
  6  7  1  0  0  0
  7  8  2  0  0  0
  8  9  1  0  0  0
  9 10  2  0  0  0
 10 35  1  0  0  0
 35 36  1  0  0  0
 36 37  1  0  0  0
 37 38  1  0  0  0
 38 39  1  0  0  0
 39 40  1  0  0  0
 40 41  1  0  0  0
 41 42  1  0  0  0
 42 43  1  0  0  0
 43 44  1  0  0  0
 10  1  1  0  0  0
 44 39  1  0  0  0
  8  3  1  0  0  0
 19 14  1  0  0  0
 33 27  1  0  0  0
 21 25  1  0  0  0
 24 26  1  0  0  0
M  END
> <minimizedAffinity>
-8.21895

> <CNNscore>
0.1112415865

> <CNNaffinity>
6.6104555130

> <CNN_VS>
0.7353575826

> <CNNaffinity_variance>
0.0784313977

$$$$
[H]c1nc2c([H])c(OC([H])([H])[H])c(OC([H])([H])[H])c([H])c2c(Oc2c([H])c([H])c(N([H])C(=O)N([H])c3c(Cl)c([H])c([H])c([H])c3Cl)c([H])c2F)c1[H]


 36 39  0  0  0  0  0  0  0  0999 V2000
  -18.4970   12.3431  -20.1630 C   0  0  0  0  0  0  0  0  0  0  0  0
  -19.2322   12.3886  -18.9730 C   0  0  0  0  0  0  0  0  0  0  0  0
  -19.0834   11.4296  -18.0088 C   0  0  0  0  0  0  0  0  0  0  0  0
  -18.1887   10.3535  -18.1612 C   0  0  0  0  0  0  0  0  0  0  0  0
  -17.4760   10.3168  -19.3246 C   0  0  0  0  0  0  0  0  0  0  0  0
  -17.6234   11.3001  -20.3198 C   0  0  0  0  0  0  0  0  0  0  0  0
  -16.8641   11.2236  -21.4400 F   0  0  0  0  0  0  0  0  0  0  0  0
  -18.1377    9.4134  -17.1202 N   0  0  0  0  0  0  0  0  0  0  0  0
  -19.2103    9.1773  -16.2431 C   0  0  0  0  0  0  0  0  0  0  0  0
  -20.2835    9.7993  -16.3571 O   0  0  0  0  0  0  0  0  0  0  0  0
  -19.1041    8.2087  -15.1838 N   0  0  0  0  0  0  0  0  0  0  0  0
  -17.2279    8.8604  -17.0004 H   0  0  0  0  0  0  0  0  0  0  0  0
  -18.2042    7.6993  -15.1023 H   0  0  0  0  0  0  0  0  0  0  0  0
  -20.1862    7.9670  -14.2950 C   0  0  0  0  0  0  0  0  0  0  0  0
  -21.1156    7.0118  -14.6596 C   0  0  0  0  0  0  0  0  0  0  0  0
  -21.0022    6.1132  -16.1462 Cl  0  0  0  0  0  0  0  0  0  0  0  0
  -22.1874    6.7537  -13.8074 C   0  0  0  0  0  0  0  0  0  0  0  0
  -22.2880    7.4668  -12.6154 C   0  0  0  0  0  0  0  0  0  0  0  0
  -21.3415    8.4157  -12.2803 C   0  0  0  0  0  0  0  0  0  0  0  0
  -20.2635    8.6858  -13.1213 C   0  0  0  0  0  0  0  0  0  0  0  0
  -19.0872    9.8922  -12.6641 Cl  0  0  0  0  0  0  0  0  0  0  0  0
  -18.6388   13.3017  -21.1305 O   0  0  0  0  0  0  0  0  0  0  0  0
  -15.4536   14.7864  -24.6790 C   0  0  0  0  0  0  0  0  0  0  0  0
  -15.3614   15.6954  -23.6498 C   0  0  0  0  0  0  0  0  0  0  0  0
  -16.1154   15.5863  -22.4908 C   0  0  0  0  0  0  0  0  0  0  0  0
  -16.0015   16.4986  -21.4943 N   0  0  0  0  0  0  0  0  0  0  0  0
  -16.7356   16.3860  -20.3738 C   0  0  0  0  0  0  0  0  0  0  0  0
  -17.6285   15.3228  -20.2223 C   0  0  0  0  0  0  0  0  0  0  0  0
  -17.7798   14.3813  -21.1941 C   0  0  0  0  0  0  0  0  0  0  0  0
  -16.9897   14.5432  -22.3461 C   0  0  0  0  0  0  0  0  0  0  0  0
  -17.0860   13.6269  -23.3780 C   0  0  0  0  0  0  0  0  0  0  0  0
  -16.3357   13.7359  -24.5305 C   0  0  0  0  0  0  0  0  0  0  0  0
  -15.1996   15.6883  -26.9065 C   0  0  0  0  0  0  0  0  0  0  0  0
  -14.6798   14.9227  -25.8366 O   0  0  0  0  0  0  0  0  0  0  0  0
  -16.4332   12.8205  -25.5592 O   0  0  0  0  0  0  0  0  0  0  0  0
  -17.6453   12.3740  -26.1119 C   0  0  0  0  0  0  0  0  0  0  0  0
 33 34  1  0  0  0
 34 23  1  0  0  0
 23 24  2  0  0  0
 24 25  1  0  0  0
 25 26  2  0  0  0
 26 27  1  0  0  0
 27 28  2  0  0  0
 28 29  1  0  0  0
 29 22  1  0  0  0
 22  1  1  0  0  0
  1  2  2  0  0  0
  2  3  1  0  0  0
  3  4  2  0  0  0
  4  8  1  0  0  0
  8  9  1  0  0  0
  9 10  2  0  0  0
  9 11  1  0  0  0
 11 14  1  0  0  0
 14 15  2  0  0  0
 15 16  1  0  0  0
 15 17  1  0  0  0
 17 18  2  0  0  0
 18 19  1  0  0  0
 19 20  2  0  0  0
 20 21  1  0  0  0
  4  5  1  0  0  0
  5  6  2  0  0  0
  6  7  1  0  0  0
 29 30  2  0  0  0
 30 31  1  0  0  0
 31 32  2  0  0  0
 32 35  1  0  0  0
 35 36  1  0  0  0
 32 23  1  0  0  0
 30 25  1  0  0  0
  6  1  1  0  0  0
 20 14  1  0  0  0
  8 12  1  0  0  0
 11 13  1  0  0  0
M  END
> <minimizedAffinity>
-9.06466

> <CNNscore>
0.2257175148

> <CNNaffinity>
7.0853524208

> <CNN_VS>
1.5992881060

> <CNNaffinity_variance>
0.0900745615

$$$$
[H]c1nc2c([H])c(OC([H])([H])[H])c(OC([H])([H])[H])c([H])c2c(Oc2c([H])c([H])c(N([H])C(=O)N([H])c3c(Cl)c([H])c([H])c([H])c3Cl)c([H])c2F)c1[H]


 36 39  0  0  0  0  0  0  0  0999 V2000
  -18.5343   12.3761  -20.1222 C   0  0  0  0  0  0  0  0  0  0  0  0
  -19.2396   12.4298  -18.9146 C   0  0  0  0  0  0  0  0  0  0  0  0
  -19.0854   11.4640  -17.9581 C   0  0  0  0  0  0  0  0  0  0  0  0
  -18.2148   10.3723  -18.1364 C   0  0  0  0  0  0  0  0  0  0  0  0
  -17.5312   10.3276  -19.3169 C   0  0  0  0  0  0  0  0  0  0  0  0
  -17.6844   11.3178  -20.3043 C   0  0  0  0  0  0  0  0  0  0  0  0
  -16.9539   11.2323  -21.4429 F   0  0  0  0  0  0  0  0  0  0  0  0
  -18.1561    9.4267  -17.1007 N   0  0  0  0  0  0  0  0  0  0  0  0
  -19.2350    9.1594  -16.2407 C   0  0  0  0  0  0  0  0  0  0  0  0
  -20.3211    9.7564  -16.3660 O   0  0  0  0  0  0  0  0  0  0  0  0
  -19.1208    8.1866  -15.1860 N   0  0  0  0  0  0  0  0  0  0  0  0
  -17.2351    8.8947  -16.9714 H   0  0  0  0  0  0  0  0  0  0  0  0
  -18.2102    7.6983  -15.0948 H   0  0  0  0  0  0  0  0  0  0  0  0
  -20.2093    7.9134  -14.3143 C   0  0  0  0  0  0  0  0  0  0  0  0
  -20.2721    8.6158  -13.1261 C   0  0  0  0  0  0  0  0  0  0  0  0
  -19.0809    9.8021  -12.6744 Cl  0  0  0  0  0  0  0  0  0  0  0  0
  -21.3286    8.3688  -12.2516 C   0  0  0  0  0  0  0  0  0  0  0  0
  -22.2873    7.4217  -12.6029 C   0  0  0  0  0  0  0  0  0  0  0  0
  -22.1952    6.7365  -13.7989 C   0  0  0  0  0  0  0  0  0  0  0  0
  -21.1452    6.9717  -14.6846 C   0  0  0  0  0  0  0  0  0  0  0  0
  -21.0624    6.0861  -16.1870 Cl  0  0  0  0  0  0  0  0  0  0  0  0
  -18.6817   13.3414  -21.0822 O   0  0  0  0  0  0  0  0  0  0  0  0
  -15.4582   14.7657  -24.6209 C   0  0  0  0  0  0  0  0  0  0  0  0
  -15.3686   15.6858  -23.6013 C   0  0  0  0  0  0  0  0  0  0  0  0
  -16.1329   15.5947  -22.4474 C   0  0  0  0  0  0  0  0  0  0  0  0
  -16.0215   16.5175  -21.4605 N   0  0  0  0  0  0  0  0  0  0  0  0
  -16.7654   16.4223  -20.3449 C   0  0  0  0  0  0  0  0  0  0  0  0
  -17.6662   15.3664  -20.1887 C   0  0  0  0  0  0  0  0  0  0  0  0
  -17.8154   14.4149  -21.1509 C   0  0  0  0  0  0  0  0  0  0  0  0
  -17.0149   14.5587  -22.2981 C   0  0  0  0  0  0  0  0  0  0  0  0
  -17.1084   13.6312  -23.3203 C   0  0  0  0  0  0  0  0  0  0  0  0
  -16.3480   13.7224  -24.4678 C   0  0  0  0  0  0  0  0  0  0  0  0
  -15.1337   15.7220  -26.8163 C   0  0  0  0  0  0  0  0  0  0  0  0
  -14.6740   14.8839  -25.7734 O   0  0  0  0  0  0  0  0  0  0  0  0
  -16.4428   12.7959  -25.4867 O   0  0  0  0  0  0  0  0  0  0  0  0
  -17.6508   12.3802  -26.0714 C   0  0  0  0  0  0  0  0  0  0  0  0
 33 34  1  0  0  0
 34 23  1  0  0  0
 23 24  2  0  0  0
 24 25  1  0  0  0
 25 26  2  0  0  0
 26 27  1  0  0  0
 27 28  2  0  0  0
 28 29  1  0  0  0
 29 22  1  0  0  0
 22  1  1  0  0  0
  1  2  2  0  0  0
  2  3  1  0  0  0
  3  4  2  0  0  0
  4  8  1  0  0  0
  8  9  1  0  0  0
  9 10  2  0  0  0
  9 11  1  0  0  0
 11 14  1  0  0  0
 14 15  2  0  0  0
 15 16  1  0  0  0
 15 17  1  0  0  0
 17 18  2  0  0  0
 18 19  1  0  0  0
 19 20  2  0  0  0
 20 21  1  0  0  0
  4  5  1  0  0  0
  5  6  2  0  0  0
  6  7  1  0  0  0
 29 30  2  0  0  0
 30 31  1  0  0  0
 31 32  2  0  0  0
 32 35  1  0  0  0
 35 36  1  0  0  0
 32 23  1  0  0  0
 30 25  1  0  0  0
  6  1  1  0  0  0
 20 14  1  0  0  0
  8 12  1  0  0  0
 11 13  1  0  0  0
M  END
> <minimizedAffinity>
-9.04764

> <CNNscore>
0.2175079137

> <CNNaffinity>
7.0685052872

> <CNN_VS>
1.5374557972

> <CNNaffinity_variance>
0.0884630606

$$$$
[H]c1nc2c([H])c(OC([H])([H])[H])c(OC([H])([H])[H])c([H])c2c(Oc2c([H])c([H])c(N([H])C(=O)N([H])c3c(Cl)c([H])c([H])c([H])c3Cl)c([H])c2F)c1[H]


 36 39  0  0  0  0  0  0  0  0999 V2000
  -19.3898   11.7228  -17.6646 C   0  0  0  0  0  0  0  0  0  0  0  0
  -19.4842   10.3405  -17.4672 C   0  0  0  0  0  0  0  0  0  0  0  0
  -19.8193    9.8180  -16.2482 C   0  0  0  0  0  0  0  0  0  0  0  0
  -20.0852   10.6376  -15.1349 C   0  0  0  0  0  0  0  0  0  0  0  0
  -19.9906   11.9842  -15.3361 C   0  0  0  0  0  0  0  0  0  0  0  0
  -19.6475   12.5281  -16.5872 C   0  0  0  0  0  0  0  0  0  0  0  0
  -19.5998   13.8752  -16.7300 F   0  0  0  0  0  0  0  0  0  0  0  0
  -20.3925    9.9929  -13.9265 N   0  0  0  0  0  0  0  0  0  0  0  0
  -19.5070    9.1178  -13.2743 C   0  0  0  0  0  0  0  0  0  0  0  0
  -18.3794    8.8750  -13.7445 O   0  0  0  0  0  0  0  0  0  0  0  0
  -19.8740    8.4729  -12.0410 N   0  0  0  0  0  0  0  0  0  0  0  0
  -21.3546   10.1859  -13.4963 H   0  0  0  0  0  0  0  0  0  0  0  0
  -20.8161    8.6854  -11.6626 H   0  0  0  0  0  0  0  0  0  0  0  0
  -18.9816    7.5874  -11.3785 C   0  0  0  0  0  0  0  0  0  0  0  0
  -19.0466    6.2466  -11.7059 C   0  0  0  0  0  0  0  0  0  0  0  0
  -20.1670    5.6225  -12.8829 Cl  0  0  0  0  0  0  0  0  0  0  0  0
  -18.1834    5.3549  -11.0722 C   0  0  0  0  0  0  0  0  0  0  0  0
  -17.2829    5.8434  -10.1288 C   0  0  0  0  0  0  0  0  0  0  0  0
  -17.2435    7.1903   -9.8241 C   0  0  0  0  0  0  0  0  0  0  0  0
  -18.0997    8.0953  -10.4487 C   0  0  0  0  0  0  0  0  0  0  0  0
  -18.0207    9.7902  -10.0375 Cl  0  0  0  0  0  0  0  0  0  0  0  0
  -19.0582   12.2522  -18.8831 O   0  0  0  0  0  0  0  0  0  0  0  0
  -16.9851   13.7355  -23.1778 C   0  0  0  0  0  0  0  0  0  0  0  0
  -16.3341   12.5856  -22.7929 C   0  0  0  0  0  0  0  0  0  0  0  0
  -16.6599   11.8987  -21.6328 C   0  0  0  0  0  0  0  0  0  0  0  0
  -15.9995   10.7681  -21.2810 N   0  0  0  0  0  0  0  0  0  0  0  0
  -16.3212   10.1078  -20.1552 C   0  0  0  0  0  0  0  0  0  0  0  0
  -17.3444   10.5809  -19.3307 C   0  0  0  0  0  0  0  0  0  0  0  0
  -18.0368   11.7117  -19.6397 C   0  0  0  0  0  0  0  0  0  0  0  0
  -17.6630   12.3657  -20.8271 C   0  0  0  0  0  0  0  0  0  0  0  0
  -18.3203   13.5213  -21.2098 C   0  0  0  0  0  0  0  0  0  0  0  0
  -17.9959   14.2040  -22.3638 C   0  0  0  0  0  0  0  0  0  0  0  0
  -17.0470   13.8572  -25.5905 C   0  0  0  0  0  0  0  0  0  0  0  0
  -16.6342   14.4067  -24.3540 O   0  0  0  0  0  0  0  0  0  0  0  0
  -18.6530   15.3570  -22.7439 O   0  0  0  0  0  0  0  0  0  0  0  0
  -18.4424   16.6187  -22.1628 C   0  0  0  0  0  0  0  0  0  0  0  0
 33 34  1  0  0  0
 34 23  1  0  0  0
 23 24  2  0  0  0
 24 25  1  0  0  0
 25 26  2  0  0  0
 26 27  1  0  0  0
 27 28  2  0  0  0
 28 29  1  0  0  0
 29 22  1  0  0  0
 22  1  1  0  0  0
  1  2  2  0  0  0
  2  3  1  0  0  0
  3  4  2  0  0  0
  4  8  1  0  0  0
  8  9  1  0  0  0
  9 10  2  0  0  0
  9 11  1  0  0  0
 11 14  1  0  0  0
 14 15  2  0  0  0
 15 16  1  0  0  0
 15 17  1  0  0  0
 17 18  2  0  0  0
 18 19  1  0  0  0
 19 20  2  0  0  0
 20 21  1  0  0  0
  4  5  1  0  0  0
  5  6  2  0  0  0
  6  7  1  0  0  0
 29 30  2  0  0  0
 30 31  1  0  0  0
 31 32  2  0  0  0
 32 35  1  0  0  0
 35 36  1  0  0  0
 32 23  1  0  0  0
 30 25  1  0  0  0
  6  1  1  0  0  0
 20 14  1  0  0  0
  8 12  1  0  0  0
 11 13  1  0  0  0
M  END
> <minimizedAffinity>
-8.17865

> <CNNscore>
0.2004918605

> <CNNaffinity>
6.8790884018

> <CNN_VS>
1.3792011738

> <CNNaffinity_variance>
0.0880936757

$$$$
[H]c1nc2c([H])c(OC([H])([H])[H])c(OC([H])([H])[H])c([H])c2c(Oc2c([H])c([H])c(N([H])C(=O)N([H])c3c(Cl)c([H])c([H])c([H])c3Cl)c([H])c2F)c1[H]


 36 39  0  0  0  0  0  0  0  0999 V2000
  -18.9322   14.6735  -19.0467 C   0  0  0  0  0  0  0  0  0  0  0  0
  -17.9897   15.5751  -19.5542 C   0  0  0  0  0  0  0  0  0  0  0  0
  -18.2674   16.3554  -20.6430 C   0  0  0  0  0  0  0  0  0  0  0  0
  -19.5075   16.2934  -21.3063 C   0  0  0  0  0  0  0  0  0  0  0  0
  -20.4205   15.4114  -20.8049 C   0  0  0  0  0  0  0  0  0  0  0  0
  -20.1419   14.6068  -19.6851 C   0  0  0  0  0  0  0  0  0  0  0  0
  -21.1023   13.7723  -19.2174 F   0  0  0  0  0  0  0  0  0  0  0  0
  -19.6730   17.1195  -22.4290 N   0  0  0  0  0  0  0  0  0  0  0  0
  -20.8411   17.8619  -22.6726 C   0  0  0  0  0  0  0  0  0  0  0  0
  -21.8023   17.8275  -21.8810 O   0  0  0  0  0  0  0  0  0  0  0  0
  -20.9656   18.6870  -23.8454 N   0  0  0  0  0  0  0  0  0  0  0  0
  -18.8607   17.1718  -23.1257 H   0  0  0  0  0  0  0  0  0  0  0  0
  -20.1568   18.7048  -24.4946 H   0  0  0  0  0  0  0  0  0  0  0  0
  -22.1451   19.4392  -24.0955 C   0  0  0  0  0  0  0  0  0  0  0  0
  -22.1968   20.7321  -23.6108 C   0  0  0  0  0  0  0  0  0  0  0  0
  -20.8857   21.4525  -22.7207 Cl  0  0  0  0  0  0  0  0  0  0  0  0
  -23.3410   21.4934  -23.8411 C   0  0  0  0  0  0  0  0  0  0  0  0
  -24.3960   20.9270  -24.5521 C   0  0  0  0  0  0  0  0  0  0  0  0
  -24.3124   19.6309  -25.0231 C   0  0  0  0  0  0  0  0  0  0  0  0
  -23.1754   18.8562  -24.8016 C   0  0  0  0  0  0  0  0  0  0  0  0
  -23.1063   17.2220  -25.4123 Cl  0  0  0  0  0  0  0  0  0  0  0  0
  -18.6617   13.8921  -17.9552 O   0  0  0  0  0  0  0  0  0  0  0  0
  -20.7730    9.9012  -15.8206 C   0  0  0  0  0  0  0  0  0  0  0  0
  -19.7922    9.4338  -16.6653 C   0  0  0  0  0  0  0  0  0  0  0  0
  -18.9988   10.2806  -17.4251 C   0  0  0  0  0  0  0  0  0  0  0  0
  -18.0403    9.7890  -18.2483 N   0  0  0  0  0  0  0  0  0  0  0  0
  -17.2751   10.6162  -18.9813 C   0  0  0  0  0  0  0  0  0  0  0  0
  -17.4593   11.9984  -18.9030 C   0  0  0  0  0  0  0  0  0  0  0  0
  -18.4087   12.5413  -18.0921 C   0  0  0  0  0  0  0  0  0  0  0  0
  -19.1826   11.6347  -17.3460 C   0  0  0  0  0  0  0  0  0  0  0  0
  -20.1674   12.1093  -16.4982 C   0  0  0  0  0  0  0  0  0  0  0  0
  -20.9562   11.2665  -15.7428 C   0  0  0  0  0  0  0  0  0  0  0  0
  -20.9417    8.3043  -14.0147 C   0  0  0  0  0  0  0  0  0  0  0  0
  -21.5579    9.0222  -15.0664 O   0  0  0  0  0  0  0  0  0  0  0  0
  -21.9384   11.7421  -14.8974 O   0  0  0  0  0  0  0  0  0  0  0  0
  -21.7124   12.1646  -13.5767 C   0  0  0  0  0  0  0  0  0  0  0  0
 33 34  1  0  0  0
 34 23  1  0  0  0
 23 24  2  0  0  0
 24 25  1  0  0  0
 25 26  2  0  0  0
 26 27  1  0  0  0
 27 28  2  0  0  0
 28 29  1  0  0  0
 29 22  1  0  0  0
 22  1  1  0  0  0
  1  2  2  0  0  0
  2  3  1  0  0  0
  3  4  2  0  0  0
  4  8  1  0  0  0
  8  9  1  0  0  0
  9 10  2  0  0  0
  9 11  1  0  0  0
 11 14  1  0  0  0
 14 15  2  0  0  0
 15 16  1  0  0  0
 15 17  1  0  0  0
 17 18  2  0  0  0
 18 19  1  0  0  0
 19 20  2  0  0  0
 20 21  1  0  0  0
  4  5  1  0  0  0
  5  6  2  0  0  0
  6  7  1  0  0  0
 29 30  2  0  0  0
 30 31  1  0  0  0
 31 32  2  0  0  0
 32 35  1  0  0  0
 35 36  1  0  0  0
 32 23  1  0  0  0
 30 25  1  0  0  0
  6  1  1  0  0  0
 20 14  1  0  0  0
  8 12  1  0  0  0
 11 13  1  0  0  0
M  END
> <minimizedAffinity>
-7.89141

> <CNNscore>
0.1669210643

> <CNNaffinity>
6.3925261497

> <CNN_VS>
1.0670472383

> <CNNaffinity_variance>
0.0621600375

$$$$
[H]c1nc2c([H])c(OC([H])([H])[H])c(OC([H])([H])[H])c([H])c2c(Oc2c([H])c([H])c(N([H])C(=O)N([H])c3c(Cl)c([H])c([H])c([H])c3Cl)c([H])c2F)c1[H]


 36 39  0  0  0  0  0  0  0  0999 V2000
  -19.2888   12.5970  -18.6096 C   0  0  0  0  0  0  0  0  0  0  0  0
  -18.8955   11.3206  -18.1913 C   0  0  0  0  0  0  0  0  0  0  0  0
  -19.4543   10.7298  -17.0913 C   0  0  0  0  0  0  0  0  0  0  0  0
  -20.4479   11.3700  -16.3267 C   0  0  0  0  0  0  0  0  0  0  0  0
  -20.8253   12.6144  -16.7415 C   0  0  0  0  0  0  0  0  0  0  0  0
  -20.2555   13.2273  -17.8723 C   0  0  0  0  0  0  0  0  0  0  0  0
  -20.6953   14.4525  -18.2501 F   0  0  0  0  0  0  0  0  0  0  0  0
  -20.9308   10.6819  -15.2026 N   0  0  0  0  0  0  0  0  0  0  0  0
  -20.3304   10.7624  -13.9344 C   0  0  0  0  0  0  0  0  0  0  0  0
  -19.3242   11.4713  -13.7427 O   0  0  0  0  0  0  0  0  0  0  0  0
  -20.8584   10.0282  -12.8148 N   0  0  0  0  0  0  0  0  0  0  0  0
  -21.7978   10.0669  -15.3368 H   0  0  0  0  0  0  0  0  0  0  0  0
  -21.6963    9.4426  -12.9908 H   0  0  0  0  0  0  0  0  0  0  0  0
  -20.2543   10.1069  -11.5309 C   0  0  0  0  0  0  0  0  0  0  0  0
  -20.6992   11.0930  -10.6714 C   0  0  0  0  0  0  0  0  0  0  0  0
  -21.9532   12.2194  -11.1061 Cl  0  0  0  0  0  0  0  0  0  0  0  0
  -20.1250   11.1939   -9.4057 C   0  0  0  0  0  0  0  0  0  0  0  0
  -19.1209   10.2979   -9.0475 C   0  0  0  0  0  0  0  0  0  0  0  0
  -18.6987    9.3231   -9.9307 C   0  0  0  0  0  0  0  0  0  0  0  0
  -19.2626    9.2085  -11.2001 C   0  0  0  0  0  0  0  0  0  0  0  0
  -18.7030    7.9639  -12.2890 Cl  0  0  0  0  0  0  0  0  0  0  0  0
  -18.7358   13.1924  -19.7118 O   0  0  0  0  0  0  0  0  0  0  0  0
  -17.0160   14.0749  -24.3167 C   0  0  0  0  0  0  0  0  0  0  0  0
  -16.3498   12.9673  -23.8439 C   0  0  0  0  0  0  0  0  0  0  0  0
  -16.5847   12.4396  -22.5829 C   0  0  0  0  0  0  0  0  0  0  0  0
  -15.9117   11.3467  -22.1460 N   0  0  0  0  0  0  0  0  0  0  0  0
  -16.1452   10.8408  -20.9227 C   0  0  0  0  0  0  0  0  0  0  0  0
  -17.0883   11.4379  -20.0833 C   0  0  0  0  0  0  0  0  0  0  0  0
  -17.7896   12.5371  -20.4753 C   0  0  0  0  0  0  0  0  0  0  0  0
  -17.5095   13.0277  -21.7630 C   0  0  0  0  0  0  0  0  0  0  0  0
  -18.1818   14.1414  -22.2339 C   0  0  0  0  0  0  0  0  0  0  0  0
  -17.9477   14.6658  -23.4882 C   0  0  0  0  0  0  0  0  0  0  0  0
  -15.5882   15.3577  -25.7850 C   0  0  0  0  0  0  0  0  0  0  0  0
  -16.7575   14.5847  -25.5937 O   0  0  0  0  0  0  0  0  0  0  0  0
  -18.6195   15.7773  -23.9561 O   0  0  0  0  0  0  0  0  0  0  0  0
  -18.4245   17.0831  -23.4757 C   0  0  0  0  0  0  0  0  0  0  0  0
 33 34  1  0  0  0
 34 23  1  0  0  0
 23 24  2  0  0  0
 24 25  1  0  0  0
 25 26  2  0  0  0
 26 27  1  0  0  0
 27 28  2  0  0  0
 28 29  1  0  0  0
 29 22  1  0  0  0
 22  1  1  0  0  0
  1  2  2  0  0  0
  2  3  1  0  0  0
  3  4  2  0  0  0
  4  8  1  0  0  0
  8  9  1  0  0  0
  9 10  2  0  0  0
  9 11  1  0  0  0
 11 14  1  0  0  0
 14 15  2  0  0  0
 15 16  1  0  0  0
 15 17  1  0  0  0
 17 18  2  0  0  0
 18 19  1  0  0  0
 19 20  2  0  0  0
 20 21  1  0  0  0
  4  5  1  0  0  0
  5  6  2  0  0  0
  6  7  1  0  0  0
 29 30  2  0  0  0
 30 31  1  0  0  0
 31 32  2  0  0  0
 32 35  1  0  0  0
 35 36  1  0  0  0
 32 23  1  0  0  0
 30 25  1  0  0  0
  6  1  1  0  0  0
 20 14  1  0  0  0
  8 12  1  0  0  0
 11 13  1  0  0  0
M  END
> <minimizedAffinity>
-8.29067

> <CNNscore>
0.0930410624

> <CNNaffinity>
6.5912399292

> <CNN_VS>
0.6132559776

> <CNNaffinity_variance>
0.0446442626

$$$$
[H]c1nc2c([H])c(OC([H])([H])[H])c(OC([H])([H])[H])c([H])c2c(Oc2c([H])c([H])c(N([H])C(=O)N([H])c3c(Cl)c([H])c([H])c([H])c3Cl)c([H])c2F)c1[H]


 36 39  0  0  0  0  0  0  0  0999 V2000
  -19.6481   15.3159  -18.7025 C   0  0  0  0  0  0  0  0  0  0  0  0
  -18.3973   15.8310  -19.0612 C   0  0  0  0  0  0  0  0  0  0  0  0
  -17.6525   15.2598  -20.0564 C   0  0  0  0  0  0  0  0  0  0  0  0
  -18.1016   14.1310  -20.7677 C   0  0  0  0  0  0  0  0  0  0  0  0
  -19.3221   13.6351  -20.4112 C   0  0  0  0  0  0  0  0  0  0  0  0
  -20.0936   14.2182  -19.3895 C   0  0  0  0  0  0  0  0  0  0  0  0
  -21.3115   13.6964  -19.1034 F   0  0  0  0  0  0  0  0  0  0  0  0
  -17.2430   13.6118  -21.7492 N   0  0  0  0  0  0  0  0  0  0  0  0
  -17.1899   14.1050  -23.0642 C   0  0  0  0  0  0  0  0  0  0  0  0
  -17.9123   15.0534  -23.4254 O   0  0  0  0  0  0  0  0  0  0  0  0
  -16.2986   13.5305  -24.0375 N   0  0  0  0  0  0  0  0  0  0  0  0
  -16.6069   12.7974  -21.4661 H   0  0  0  0  0  0  0  0  0  0  0  0
  -15.7039   12.7417  -23.7212 H   0  0  0  0  0  0  0  0  0  0  0  0
  -16.2419   14.0264  -25.3680 C   0  0  0  0  0  0  0  0  0  0  0  0
  -15.3775   15.0727  -25.6269 C   0  0  0  0  0  0  0  0  0  0  0  0
  -14.3756   15.7874  -24.3957 Cl  0  0  0  0  0  0  0  0  0  0  0  0
  -15.3007   15.5794  -26.9228 C   0  0  0  0  0  0  0  0  0  0  0  0
  -16.0978   15.0152  -27.9156 C   0  0  0  0  0  0  0  0  0  0  0  0
  -16.9520   13.9694  -27.6235 C   0  0  0  0  0  0  0  0  0  0  0  0
  -17.0407   13.4511  -26.3329 C   0  0  0  0  0  0  0  0  0  0  0  0
  -18.1318   12.1290  -26.0018 Cl  0  0  0  0  0  0  0  0  0  0  0  0
  -20.4000   15.8851  -17.7096 O   0  0  0  0  0  0  0  0  0  0  0  0
  -24.9902   15.8455  -15.7422 C   0  0  0  0  0  0  0  0  0  0  0  0
  -24.9857   16.8000  -16.7336 C   0  0  0  0  0  0  0  0  0  0  0  0
  -23.8598   17.0772  -17.4947 C   0  0  0  0  0  0  0  0  0  0  0  0
  -23.8875   18.0240  -18.4648 N   0  0  0  0  0  0  0  0  0  0  0  0
  -22.7922   18.2869  -19.1985 C   0  0  0  0  0  0  0  0  0  0  0  0
  -21.6072   17.5842  -18.9691 C   0  0  0  0  0  0  0  0  0  0  0  0
  -21.5281   16.6247  -18.0064 C   0  0  0  0  0  0  0  0  0  0  0  0
  -22.7001   16.3868  -17.2667 C   0  0  0  0  0  0  0  0  0  0  0  0
  -22.6997   15.4263  -16.2711 C   0  0  0  0  0  0  0  0  0  0  0  0
  -23.8199   15.1510  -15.5145 C   0  0  0  0  0  0  0  0  0  0  0  0
  -26.4615   16.4656  -13.9283 C   0  0  0  0  0  0  0  0  0  0  0  0
  -26.1418   15.5879  -14.9907 O   0  0  0  0  0  0  0  0  0  0  0  0
  -23.8174   14.1921  -14.5214 O   0  0  0  0  0  0  0  0  0  0  0  0
  -22.6681   13.7592  -13.8392 C   0  0  0  0  0  0  0  0  0  0  0  0
 33 34  1  0  0  0
 34 23  1  0  0  0
 23 24  2  0  0  0
 24 25  1  0  0  0
 25 26  2  0  0  0
 26 27  1  0  0  0
 27 28  2  0  0  0
 28 29  1  0  0  0
 29 22  1  0  0  0
 22  1  1  0  0  0
  1  2  2  0  0  0
  2  3  1  0  0  0
  3  4  2  0  0  0
  4  8  1  0  0  0
  8  9  1  0  0  0
  9 10  2  0  0  0
  9 11  1  0  0  0
 11 14  1  0  0  0
 14 15  2  0  0  0
 15 16  1  0  0  0
 15 17  1  0  0  0
 17 18  2  0  0  0
 18 19  1  0  0  0
 19 20  2  0  0  0
 20 21  1  0  0  0
  4  5  1  0  0  0
  5  6  2  0  0  0
  6  7  1  0  0  0
 29 30  2  0  0  0
 30 31  1  0  0  0
 31 32  2  0  0  0
 32 35  1  0  0  0
 35 36  1  0  0  0
 32 23  1  0  0  0
 30 25  1  0  0  0
  6  1  1  0  0  0
 20 14  1  0  0  0
  8 12  1  0  0  0
 11 13  1  0  0  0
M  END
> <minimizedAffinity>
-7.12903

> <CNNscore>
0.0908434317

> <CNNaffinity>
6.5868024826

> <CNN_VS>
0.5983677506

> <CNNaffinity_variance>
0.0495635159

$$$$
[H]c1nc2c([H])c(OC([H])([H])[H])c(OC([H])([H])[H])c([H])c2c(Oc2c([H])c([H])c(N([H])C(=O)N([H])c3c(Cl)c([H])c([H])c([H])c3Cl)c([H])c2F)c1[H]


 36 39  0  0  0  0  0  0  0  0999 V2000
  -19.5373   13.1171  -18.6145 C   0  0  0  0  0  0  0  0  0  0  0  0
  -18.2375   12.6089  -18.5091 C   0  0  0  0  0  0  0  0  0  0  0  0
  -17.4597   12.4118  -19.6171 C   0  0  0  0  0  0  0  0  0  0  0  0
  -17.9221   12.7077  -20.9133 C   0  0  0  0  0  0  0  0  0  0  0  0
  -19.1906   13.2025  -21.0069 C   0  0  0  0  0  0  0  0  0  0  0  0
  -19.9955   13.4086  -19.8717 C   0  0  0  0  0  0  0  0  0  0  0  0
  -21.2362   13.9315  -20.0291 F   0  0  0  0  0  0  0  0  0  0  0  0
  -17.0489   12.4401  -21.9792 N   0  0  0  0  0  0  0  0  0  0  0  0
  -16.9462   13.2618  -23.1148 C   0  0  0  0  0  0  0  0  0  0  0  0
  -17.6346   14.2939  -23.2266 O   0  0  0  0  0  0  0  0  0  0  0  0
  -16.0419   12.9377  -24.1867 N   0  0  0  0  0  0  0  0  0  0  0  0
  -16.4412   11.5605  -21.9089 H   0  0  0  0  0  0  0  0  0  0  0  0
  -15.4760   12.0752  -24.0785 H   0  0  0  0  0  0  0  0  0  0  0  0
  -15.9352   13.7659  -25.3365 C   0  0  0  0  0  0  0  0  0  0  0  0
  -16.7906   13.5127  -26.3917 C   0  0  0  0  0  0  0  0  0  0  0  0
  -17.9719   12.2347  -26.3548 Cl  0  0  0  0  0  0  0  0  0  0  0  0
  -16.7086   14.3089  -27.5324 C   0  0  0  0  0  0  0  0  0  0  0  0
  -15.7671   15.3343  -27.5727 C   0  0  0  0  0  0  0  0  0  0  0  0
  -14.9263   15.5610  -26.5002 C   0  0  0  0  0  0  0  0  0  0  0  0
  -14.9953   14.7741  -25.3521 C   0  0  0  0  0  0  0  0  0  0  0  0
  -13.9161   15.0908  -24.0168 Cl  0  0  0  0  0  0  0  0  0  0  0  0
  -20.3197   13.3199  -17.5092 O   0  0  0  0  0  0  0  0  0  0  0  0
  -22.9211   13.2195  -13.2472 C   0  0  0  0  0  0  0  0  0  0  0  0
  -22.2953   11.9994  -13.3654 C   0  0  0  0  0  0  0  0  0  0  0  0
  -21.4814   11.6817  -14.4426 C   0  0  0  0  0  0  0  0  0  0  0  0
  -20.8785   10.4705  -14.5299 N   0  0  0  0  0  0  0  0  0  0  0  0
  -20.0908   10.1700  -15.5770 C   0  0  0  0  0  0  0  0  0  0  0  0
  -19.8832   11.1066  -16.5920 C   0  0  0  0  0  0  0  0  0  0  0  0
  -20.4664   12.3362  -16.5509 C   0  0  0  0  0  0  0  0  0  0  0  0
  -21.2805   12.6021  -15.4356 C   0  0  0  0  0  0  0  0  0  0  0  0
  -21.9076   13.8299  -15.3213 C   0  0  0  0  0  0  0  0  0  0  0  0
  -22.7170   14.1453  -14.2496 C   0  0  0  0  0  0  0  0  0  0  0  0
  -23.4283   12.9122  -10.9046 C   0  0  0  0  0  0  0  0  0  0  0  0
  -23.7366   13.5112  -12.1485 O   0  0  0  0  0  0  0  0  0  0  0  0
  -23.3418   15.3712  -14.1374 O   0  0  0  0  0  0  0  0  0  0  0  0
  -22.6904   16.5645  -13.7831 C   0  0  0  0  0  0  0  0  0  0  0  0
 33 34  1  0  0  0
 34 23  1  0  0  0
 23 24  2  0  0  0
 24 25  1  0  0  0
 25 26  2  0  0  0
 26 27  1  0  0  0
 27 28  2  0  0  0
 28 29  1  0  0  0
 29 22  1  0  0  0
 22  1  1  0  0  0
  1  2  2  0  0  0
  2  3  1  0  0  0
  3  4  2  0  0  0
  4  8  1  0  0  0
  8  9  1  0  0  0
  9 10  2  0  0  0
  9 11  1  0  0  0
 11 14  1  0  0  0
 14 15  2  0  0  0
 15 16  1  0  0  0
 15 17  1  0  0  0
 17 18  2  0  0  0
 18 19  1  0  0  0
 19 20  2  0  0  0
 20 21  1  0  0  0
  4  5  1  0  0  0
  5  6  2  0  0  0
  6  7  1  0  0  0
 29 30  2  0  0  0
 30 31  1  0  0  0
 31 32  2  0  0  0
 32 35  1  0  0  0
 35 36  1  0  0  0
 32 23  1  0  0  0
 30 25  1  0  0  0
  6  1  1  0  0  0
 20 14  1  0  0  0
  8 12  1  0  0  0
 11 13  1  0  0  0
M  END
> <minimizedAffinity>
-8.46822

> <CNNscore>
0.0907726586

> <CNNaffinity>
6.6390671730

> <CNN_VS>
0.6026457548

> <CNNaffinity_variance>
0.0616192147

$$$$
[H]c1nc2c([H])c(OC([H])([H])[H])c(OC([H])([H])[H])c([H])c2c(Oc2c([H])c([H])c(N([H])C(=O)N([H])c3c(Cl)c([H])c([H])c([H])c3Cl)c([H])c2F)c1[H]


 36 39  0  0  0  0  0  0  0  0999 V2000
  -19.8033   15.5027  -18.8139 C   0  0  0  0  0  0  0  0  0  0  0  0
  -18.5181   15.9840  -19.0883 C   0  0  0  0  0  0  0  0  0  0  0  0
  -17.7439   15.4246  -20.0676 C   0  0  0  0  0  0  0  0  0  0  0  0
  -18.1958   14.3423  -20.8463 C   0  0  0  0  0  0  0  0  0  0  0  0
  -19.4500   13.8792  -20.5719 C   0  0  0  0  0  0  0  0  0  0  0  0
  -20.2518   14.4504  -19.5670 C   0  0  0  0  0  0  0  0  0  0  0  0
  -21.5006   13.9641  -19.3637 F   0  0  0  0  0  0  0  0  0  0  0  0
  -17.3070   13.8300  -21.8042 N   0  0  0  0  0  0  0  0  0  0  0  0
  -17.2651   14.2815  -23.1345 C   0  0  0  0  0  0  0  0  0  0  0  0
  -18.0261   15.1841  -23.5319 O   0  0  0  0  0  0  0  0  0  0  0  0
  -16.3412   13.7157  -24.0821 N   0  0  0  0  0  0  0  0  0  0  0  0
  -16.6375   13.0548  -21.4898 H   0  0  0  0  0  0  0  0  0  0  0  0
  -15.7145   12.9653  -23.7357 H   0  0  0  0  0  0  0  0  0  0  0  0
  -16.2958   14.1694  -25.4280 C   0  0  0  0  0  0  0  0  0  0  0  0
  -15.5260   15.2831  -25.7045 C   0  0  0  0  0  0  0  0  0  0  0  0
  -14.6278   16.1299  -24.4770 Cl  0  0  0  0  0  0  0  0  0  0  0  0
  -15.4626   15.7506  -27.0157 C   0  0  0  0  0  0  0  0  0  0  0  0
  -16.1772   15.0807  -28.0056 C   0  0  0  0  0  0  0  0  0  0  0  0
  -16.9378   13.9698  -27.6958 C   0  0  0  0  0  0  0  0  0  0  0  0
  -17.0118   13.4894  -26.3897 C   0  0  0  0  0  0  0  0  0  0  0  0
  -17.9835   12.0825  -26.0364 Cl  0  0  0  0  0  0  0  0  0  0  0  0
  -20.5845   16.0605  -17.8374 O   0  0  0  0  0  0  0  0  0  0  0  0
  -23.4421   19.5644  -19.9583 C   0  0  0  0  0  0  0  0  0  0  0  0
  -22.6123   20.2068  -19.0679 C   0  0  0  0  0  0  0  0  0  0  0  0
  -21.6785   19.5286  -18.2986 C   0  0  0  0  0  0  0  0  0  0  0  0
  -20.8751   20.1905  -17.4300 N   0  0  0  0  0  0  0  0  0  0  0  0
  -19.9721   19.5263  -16.6880 C   0  0  0  0  0  0  0  0  0  0  0  0
  -19.8504   18.1398  -16.8039 C   0  0  0  0  0  0  0  0  0  0  0  0
  -20.6341   17.4294  -17.6611 C   0  0  0  0  0  0  0  0  0  0  0  0
  -21.5624   18.1697  -18.4146 C   0  0  0  0  0  0  0  0  0  0  0  0
  -22.3943   17.5195  -19.3084 C   0  0  0  0  0  0  0  0  0  0  0  0
  -23.3230   18.1946  -20.0733 C   0  0  0  0  0  0  0  0  0  0  0  0
  -23.9068   21.0327  -21.8205 C   0  0  0  0  0  0  0  0  0  0  0  0
  -24.3748   20.2756  -20.7209 O   0  0  0  0  0  0  0  0  0  0  0  0
  -24.1523   17.5439  -20.9646 O   0  0  0  0  0  0  0  0  0  0  0  0
  -23.8044   17.2318  -22.2896 C   0  0  0  0  0  0  0  0  0  0  0  0
 33 34  1  0  0  0
 34 23  1  0  0  0
 23 24  2  0  0  0
 24 25  1  0  0  0
 25 26  2  0  0  0
 26 27  1  0  0  0
 27 28  2  0  0  0
 28 29  1  0  0  0
 29 22  1  0  0  0
 22  1  1  0  0  0
  1  2  2  0  0  0
  2  3  1  0  0  0
  3  4  2  0  0  0
  4  8  1  0  0  0
  8  9  1  0  0  0
  9 10  2  0  0  0
  9 11  1  0  0  0
 11 14  1  0  0  0
 14 15  2  0  0  0
 15 16  1  0  0  0
 15 17  1  0  0  0
 17 18  2  0  0  0
 18 19  1  0  0  0
 19 20  2  0  0  0
 20 21  1  0  0  0
  4  5  1  0  0  0
  5  6  2  0  0  0
  6  7  1  0  0  0
 29 30  2  0  0  0
 30 31  1  0  0  0
 31 32  2  0  0  0
 32 35  1  0  0  0
 35 36  1  0  0  0
 32 23  1  0  0  0
 30 25  1  0  0  0
  6  1  1  0  0  0
 20 14  1  0  0  0
  8 12  1  0  0  0
 11 13  1  0  0  0
M  END
> <minimizedAffinity>
-7.80633

> <CNNscore>
0.0904126391

> <CNNaffinity>
6.6370277405

> <CNN_VS>
0.6000711918

> <CNNaffinity_variance>
0.0707753152

$$$$
[H]c1nc2c([H])c(OC([H])([H])[H])c(OC([H])([H])[H])c([H])c2c(Oc2c([H])c([H])c(N([H])C(=O)N([H])c3c(Cl)c([H])c([H])c([H])c3Cl)c([H])c2F)c1[H]


 36 39  0  0  0  0  0  0  0  0999 V2000
  -19.5139   14.9718  -19.5151 C   0  0  0  0  0  0  0  0  0  0  0  0
  -20.4987   14.5344  -18.6221 C   0  0  0  0  0  0  0  0  0  0  0  0
  -20.5725   15.0277  -17.3483 C   0  0  0  0  0  0  0  0  0  0  0  0
  -19.6679   15.9950  -16.8712 C   0  0  0  0  0  0  0  0  0  0  0  0
  -18.7107   16.4157  -17.7484 C   0  0  0  0  0  0  0  0  0  0  0  0
  -18.6297   15.9134  -19.0599 C   0  0  0  0  0  0  0  0  0  0  0  0
  -17.6742   16.3943  -19.8925 F   0  0  0  0  0  0  0  0  0  0  0  0
  -19.8203   16.4094  -15.5388 N   0  0  0  0  0  0  0  0  0  0  0  0
  -20.8392   17.2798  -15.1153 C   0  0  0  0  0  0  0  0  0  0  0  0
  -21.6789   17.7271  -15.9194 O   0  0  0  0  0  0  0  0  0  0  0  0
  -20.9463   17.6835  -13.7379 N   0  0  0  0  0  0  0  0  0  0  0  0
  -19.1143   16.0375  -14.8237 H   0  0  0  0  0  0  0  0  0  0  0  0
  -20.2397   17.3026  -13.0810 H   0  0  0  0  0  0  0  0  0  0  0  0
  -21.9751   18.5634  -13.3057 C   0  0  0  0  0  0  0  0  0  0  0  0
  -23.1391   18.0002  -12.8188 C   0  0  0  0  0  0  0  0  0  0  0  0
  -23.3778   16.2786  -12.7209 Cl  0  0  0  0  0  0  0  0  0  0  0  0
  -24.1651   18.8387  -12.3876 C   0  0  0  0  0  0  0  0  0  0  0  0
  -23.9849   20.2177  -12.4615 C   0  0  0  0  0  0  0  0  0  0  0  0
  -22.8085   20.7489  -12.9537 C   0  0  0  0  0  0  0  0  0  0  0  0
  -21.7726   19.9243  -13.3889 C   0  0  0  0  0  0  0  0  0  0  0  0
  -20.3004   20.6322  -14.0049 Cl  0  0  0  0  0  0  0  0  0  0  0  0
  -19.4367   14.4845  -20.7924 O   0  0  0  0  0  0  0  0  0  0  0  0
  -16.0558   14.3032  -24.4638 C   0  0  0  0  0  0  0  0  0  0  0  0
  -15.9305   13.1371  -23.7436 C   0  0  0  0  0  0  0  0  0  0  0  0
  -16.7243   12.8538  -22.6421 C   0  0  0  0  0  0  0  0  0  0  0  0
  -16.5764   11.6955  -21.9532 N   0  0  0  0  0  0  0  0  0  0  0  0
  -17.3498   11.4278  -20.8868 C   0  0  0  0  0  0  0  0  0  0  0  0
  -18.3195   12.3442  -20.4740 C   0  0  0  0  0  0  0  0  0  0  0  0
  -18.5067   13.5214  -21.1318 C   0  0  0  0  0  0  0  0  0  0  0  0
  -17.6734   13.7545  -22.2403 C   0  0  0  0  0  0  0  0  0  0  0  0
  -17.8032   14.9281  -22.9611 C   0  0  0  0  0  0  0  0  0  0  0  0
  -17.0133   15.2094  -24.0566 C   0  0  0  0  0  0  0  0  0  0  0  0
  -13.9149   14.9995  -25.3420 C   0  0  0  0  0  0  0  0  0  0  0  0
  -15.2404   14.5613  -25.5709 O   0  0  0  0  0  0  0  0  0  0  0  0
  -17.1444   16.3812  -24.7746 O   0  0  0  0  0  0  0  0  0  0  0  0
  -17.1448   17.6653  -24.2046 C   0  0  0  0  0  0  0  0  0  0  0  0
 33 34  1  0  0  0
 34 23  1  0  0  0
 23 24  2  0  0  0
 24 25  1  0  0  0
 25 26  2  0  0  0
 26 27  1  0  0  0
 27 28  2  0  0  0
 28 29  1  0  0  0
 29 22  1  0  0  0
 22  1  1  0  0  0
  1  2  2  0  0  0
  2  3  1  0  0  0
  3  4  2  0  0  0
  4  8  1  0  0  0
  8  9  1  0  0  0
  9 10  2  0  0  0
  9 11  1  0  0  0
 11 14  1  0  0  0
 14 15  2  0  0  0
 15 16  1  0  0  0
 15 17  1  0  0  0
 17 18  2  0  0  0
 18 19  1  0  0  0
 19 20  2  0  0  0
 20 21  1  0  0  0
  4  5  1  0  0  0
  5  6  2  0  0  0
  6  7  1  0  0  0
 29 30  2  0  0  0
 30 31  1  0  0  0
 31 32  2  0  0  0
 32 35  1  0  0  0
 35 36  1  0  0  0
 32 23  1  0  0  0
 30 25  1  0  0  0
  6  1  1  0  0  0
 20 14  1  0  0  0
  8 12  1  0  0  0
 11 13  1  0  0  0
M  END
> <minimizedAffinity>
-7.67242

> <CNNscore>
0.0904069915

> <CNNaffinity>
6.4864287376

> <CNN_VS>
0.5864185095

> <CNNaffinity_variance>
0.0425082892

$$$$
[H]c1nc2c([H])c(OC([H])([H])C([H])([H])C([H])([H])N3C([H])([H])C([H])([H])OC([H])([H])C3([H])[H])c(OC([H])([H])[H])c([H])c2c(Oc2c([H])c([H])c(N([H])C(=O)N([H])c3c(Cl)c([H])c([H])c([H])c3C([H])([H])[H])c([H])c2F)c1[H]


 44 48  0  0  0  0  0  0  0  0999 V2000
  -19.3716   11.6983  -16.6971 C   0  0  0  0  0  0  0  0  0  0  0  0
  -19.0901   12.7652  -17.5170 C   0  0  0  0  0  0  0  0  0  0  0  0
  -18.4911   12.6557  -18.7763 C   0  0  0  0  0  0  0  0  0  0  0  0
  -18.1728   13.7350  -19.5622 C   0  0  0  0  0  0  0  0  0  0  0  0
  -17.5394   13.6041  -20.7924 C   0  0  0  0  0  0  0  0  0  0  0  0
  -17.2289   12.3003  -21.2109 C   0  0  0  0  0  0  0  0  0  0  0  0
  -17.5437   11.2622  -20.4347 N   0  0  0  0  0  0  0  0  0  0  0  0
  -18.1557   11.3962  -19.2455 C   0  0  0  0  0  0  0  0  0  0  0  0
  -18.4267   10.3186  -18.4454 C   0  0  0  0  0  0  0  0  0  0  0  0
  -19.0229   10.4346  -17.1819 C   0  0  0  0  0  0  0  0  0  0  0  0
  -21.3220   11.9095  -15.2086 C   0  0  0  0  0  0  0  0  0  0  0  0
  -19.9618   11.7762  -15.4564 O   0  0  0  0  0  0  0  0  0  0  0  0
  -18.4979   15.0205  -19.0803 O   0  0  0  0  0  0  0  0  0  0  0  0
  -18.4087   16.1211  -19.9489 C   0  0  0  0  0  0  0  0  0  0  0  0
  -17.3708   17.0010  -19.9690 C   0  0  0  0  0  0  0  0  0  0  0  0
  -17.3384   18.0838  -20.8623 C   0  0  0  0  0  0  0  0  0  0  0  0
  -18.3472   18.2978  -21.7461 C   0  0  0  0  0  0  0  0  0  0  0  0
  -19.4127   17.3837  -21.7171 C   0  0  0  0  0  0  0  0  0  0  0  0
  -19.4555   16.3270  -20.8555 C   0  0  0  0  0  0  0  0  0  0  0  0
  -20.4864   15.4431  -20.8826 F   0  0  0  0  0  0  0  0  0  0  0  0
  -18.3825   19.3570  -22.6833 N   0  0  0  0  0  0  0  0  0  0  0  0
  -19.3542   20.3793  -22.5783 C   0  0  0  0  0  0  0  0  0  0  0  0
  -20.2371   20.3575  -21.6542 O   0  0  0  0  0  0  0  0  0  0  0  0
  -19.3417   21.4633  -23.5205 N   0  0  0  0  0  0  0  0  0  0  0  0
  -17.6901   19.4045  -23.4706 H   0  0  0  0  0  0  0  0  0  0  0  0
  -18.6173   21.4709  -24.2649 H   0  0  0  0  0  0  0  0  0  0  0  0
  -20.3179   22.4924  -23.4074 C   0  0  0  0  0  0  0  0  0  0  0  0
  -20.1478   23.5353  -22.5307 C   0  0  0  0  0  0  0  0  0  0  0  0
  -18.9256   23.5834  -21.6830 C   0  0  0  0  0  0  0  0  0  0  0  0
  -21.0544   24.5783  -22.3742 C   0  0  0  0  0  0  0  0  0  0  0  0
  -22.2014   24.5714  -23.1481 C   0  0  0  0  0  0  0  0  0  0  0  0
  -22.3865   23.5236  -24.0396 C   0  0  0  0  0  0  0  0  0  0  0  0
  -21.4710   22.5003  -24.1746 C   0  0  0  0  0  0  0  0  0  0  0  0
  -21.7473   21.2132  -25.2992 Cl  0  0  0  0  0  0  0  0  0  0  0  0
  -19.2451    9.3079  -16.4385 O   0  0  0  0  0  0  0  0  0  0  0  0
  -18.8800    8.4002  -15.6316 C   0  0  0  0  0  0  0  0  0  0  0  0
  -19.7393    8.3274  -14.3421 C   0  0  0  0  0  0  0  0  0  0  0  0
  -19.2214    9.2371  -13.2708 C   0  0  0  0  0  0  0  0  0  0  0  0
  -20.3014    9.5238  -12.3417 N   0  0  0  0  0  0  0  0  0  0  0  0
  -20.6337    8.4010  -11.5188 C   0  0  0  0  0  0  0  0  0  0  0  0
  -20.1524    8.5133  -10.1005 C   0  0  0  0  0  0  0  0  0  0  0  0
  -19.1423    9.4731   -9.9720 O   0  0  0  0  0  0  0  0  0  0  0  0
  -19.7676   10.6974  -10.2175 C   0  0  0  0  0  0  0  0  0  0  0  0
  -20.1621   10.7620  -11.6438 C   0  0  0  0  0  0  0  0  0  0  0  0
 11 12  1  0  0  0
 12  1  1  0  0  0
  1  2  2  0  0  0
  2  3  1  0  0  0
  3  4  2  0  0  0
  4 13  1  0  0  0
 13 14  1  0  0  0
 14 15  2  0  0  0
 15 16  1  0  0  0
 16 17  2  0  0  0
 17 21  1  0  0  0
 21 22  1  0  0  0
 22 23  2  0  0  0
 22 24  1  0  0  0
 24 27  1  0  0  0
 27 28  2  0  0  0
 28 29  1  0  0  0
 28 30  1  0  0  0
 30 31  2  0  0  0
 31 32  1  0  0  0
 32 33  2  0  0  0
 33 34  1  0  0  0
 17 18  1  0  0  0
 18 19  2  0  0  0
 19 20  1  0  0  0
  4  5  1  0  0  0
  5  6  2  0  0  0
  6  7  1  0  0  0
  7  8  2  0  0  0
  8  9  1  0  0  0
  9 10  2  0  0  0
 10 35  1  0  0  0
 35 36  1  0  0  0
 36 37  1  0  0  0
 37 38  1  0  0  0
 38 39  1  0  0  0
 39 40  1  0  0  0
 40 41  1  0  0  0
 41 42  1  0  0  0
 42 43  1  0  0  0
 43 44  1  0  0  0
 10  1  1  0  0  0
 44 39  1  0  0  0
  8  3  1  0  0  0
 19 14  1  0  0  0
 33 27  1  0  0  0
 21 25  1  0  0  0
 24 26  1  0  0  0
M  END
> <minimizedAffinity>
-7.32397

> <CNNscore>
0.2263605446

> <CNNaffinity>
6.6939926147

> <CNN_VS>
1.5152558088

> <CNNaffinity_variance>
0.1701558381

$$$$
[H]c1nc2c([H])c(OC([H])([H])C([H])([H])C([H])([H])N3C([H])([H])C([H])([H])OC([H])([H])C3([H])[H])c(OC([H])([H])[H])c([H])c2c(Oc2c([H])c([H])c(N([H])C(=O)N([H])c3c(Cl)c([H])c([H])c([H])c3C([H])([H])[H])c([H])c2F)c1[H]


 44 48  0  0  0  0  0  0  0  0999 V2000
  -20.1149   10.5962  -15.8978 C   0  0  0  0  0  0  0  0  0  0  0  0
  -19.6622   11.6067  -16.7124 C   0  0  0  0  0  0  0  0  0  0  0  0
  -18.7581   11.4265  -17.7645 C   0  0  0  0  0  0  0  0  0  0  0  0
  -18.2788   12.4539  -18.5383 C   0  0  0  0  0  0  0  0  0  0  0  0
  -17.3485   12.2564  -19.5517 C   0  0  0  0  0  0  0  0  0  0  0  0
  -16.9058   10.9402  -19.7592 C   0  0  0  0  0  0  0  0  0  0  0  0
  -17.3803    9.9533  -18.9978 N   0  0  0  0  0  0  0  0  0  0  0  0
  -18.2796   10.1516  -18.0187 C   0  0  0  0  0  0  0  0  0  0  0  0
  -18.7169    9.1293  -17.2195 C   0  0  0  0  0  0  0  0  0  0  0  0
  -19.6195    9.3165  -16.1632 C   0  0  0  0  0  0  0  0  0  0  0  0
  -22.3800   10.8974  -14.9796 C   0  0  0  0  0  0  0  0  0  0  0  0
  -21.0048   10.7439  -14.8585 O   0  0  0  0  0  0  0  0  0  0  0  0
  -18.7514   13.7562  -18.2715 O   0  0  0  0  0  0  0  0  0  0  0  0
  -18.8610   14.6755  -19.3283 C   0  0  0  0  0  0  0  0  0  0  0  0
  -18.0534   15.7589  -19.4902 C   0  0  0  0  0  0  0  0  0  0  0  0
  -18.2126   16.6434  -20.5690 C   0  0  0  0  0  0  0  0  0  0  0  0
  -19.1842   16.4524  -21.4986 C   0  0  0  0  0  0  0  0  0  0  0  0
  -20.0112   15.3314  -21.3222 C   0  0  0  0  0  0  0  0  0  0  0  0
  -19.8661   14.4638  -20.2795 C   0  0  0  0  0  0  0  0  0  0  0  0
  -20.6628   13.3699  -20.1632 F   0  0  0  0  0  0  0  0  0  0  0  0
  -19.4008   17.2905  -22.6176 N   0  0  0  0  0  0  0  0  0  0  0  0
  -20.5821   18.0610  -22.7222 C   0  0  0  0  0  0  0  0  0  0  0  0
  -21.4913   17.9993  -21.8257 O   0  0  0  0  0  0  0  0  0  0  0  0
  -20.7576   18.9330  -23.8500 N   0  0  0  0  0  0  0  0  0  0  0  0
  -18.6909   17.3568  -23.3878 H   0  0  0  0  0  0  0  0  0  0  0  0
  -20.0101   18.9763  -24.5700 H   0  0  0  0  0  0  0  0  0  0  0  0
  -21.9453   19.7104  -23.9480 C   0  0  0  0  0  0  0  0  0  0  0  0
  -23.0481   19.2359  -24.6144 C   0  0  0  0  0  0  0  0  0  0  0  0
  -22.9944   17.8904  -25.2477 C   0  0  0  0  0  0  0  0  0  0  0  0
  -24.2430   19.9360  -24.7421 C   0  0  0  0  0  0  0  0  0  0  0  0
  -24.3335   21.1894  -24.1629 C   0  0  0  0  0  0  0  0  0  0  0  0
  -23.2266   21.6817  -23.4851 C   0  0  0  0  0  0  0  0  0  0  0  0
  -22.0522   20.9663  -23.3740 C   0  0  0  0  0  0  0  0  0  0  0  0
  -20.6971   21.6239  -22.5201 Cl  0  0  0  0  0  0  0  0  0  0  0  0
  -19.9937    8.2433  -15.4019 O   0  0  0  0  0  0  0  0  0  0  0  0
  -19.8378    7.4399  -14.4330 C   0  0  0  0  0  0  0  0  0  0  0  0
  -20.1209    8.0721  -13.0450 C   0  0  0  0  0  0  0  0  0  0  0  0
  -18.8718    8.5852  -12.3970 C   0  0  0  0  0  0  0  0  0  0  0  0
  -18.9927    8.4205  -10.9583 N   0  0  0  0  0  0  0  0  0  0  0  0
  -17.7225    8.3558  -10.3018 C   0  0  0  0  0  0  0  0  0  0  0  0
  -17.3533    9.6030   -9.5511 C   0  0  0  0  0  0  0  0  0  0  0  0
  -18.1087   10.7028   -9.9728 O   0  0  0  0  0  0  0  0  0  0  0  0
  -19.4143   10.4301   -9.5589 C   0  0  0  0  0  0  0  0  0  0  0  0
  -19.9437    9.2923  -10.3456 C   0  0  0  0  0  0  0  0  0  0  0  0
 11 12  1  0  0  0
 12  1  1  0  0  0
  1  2  2  0  0  0
  2  3  1  0  0  0
  3  4  2  0  0  0
  4 13  1  0  0  0
 13 14  1  0  0  0
 14 15  2  0  0  0
 15 16  1  0  0  0
 16 17  2  0  0  0
 17 21  1  0  0  0
 21 22  1  0  0  0
 22 23  2  0  0  0
 22 24  1  0  0  0
 24 27  1  0  0  0
 27 28  2  0  0  0
 28 29  1  0  0  0
 28 30  1  0  0  0
 30 31  2  0  0  0
 31 32  1  0  0  0
 32 33  2  0  0  0
 33 34  1  0  0  0
 17 18  1  0  0  0
 18 19  2  0  0  0
 19 20  1  0  0  0
  4  5  1  0  0  0
  5  6  2  0  0  0
  6  7  1  0  0  0
  7  8  2  0  0  0
  8  9  1  0  0  0
  9 10  2  0  0  0
 10 35  1  0  0  0
 35 36  1  0  0  0
 36 37  1  0  0  0
 37 38  1  0  0  0
 38 39  1  0  0  0
 39 40  1  0  0  0
 40 41  1  0  0  0
 41 42  1  0  0  0
 42 43  1  0  0  0
 43 44  1  0  0  0
 10  1  1  0  0  0
 44 39  1  0  0  0
  8  3  1  0  0  0
 19 14  1  0  0  0
 33 27  1  0  0  0
 21 25  1  0  0  0
 24 26  1  0  0  0
M  END
> <minimizedAffinity>
-8.21136

> <CNNscore>
0.2014430761

> <CNNaffinity>
6.8020067215

> <CNN_VS>
1.3702172041

> <CNNaffinity_variance>
0.0525102988

$$$$
[H]c1nc2c([H])c(OC([H])([H])C([H])([H])C([H])([H])N3C([H])([H])C([H])([H])OC([H])([H])C3([H])[H])c(OC([H])([H])[H])c([H])c2c(Oc2c([H])c([H])c(N([H])C(=O)N([H])c3c(Cl)c([H])c([H])c([H])c3C([H])([H])[H])c([H])c2F)c1[H]


 44 48  0  0  0  0  0  0  0  0999 V2000
  -20.0037   13.0862  -19.1316 C   0  0  0  0  0  0  0  0  0  0  0  0
  -19.1781   13.0021  -20.2274 C   0  0  0  0  0  0  0  0  0  0  0  0
  -18.0992   12.1185  -20.3363 C   0  0  0  0  0  0  0  0  0  0  0  0
  -17.2550   12.0803  -21.4178 C   0  0  0  0  0  0  0  0  0  0  0  0
  -16.1639   11.2222  -21.4855 C   0  0  0  0  0  0  0  0  0  0  0  0
  -15.9506   10.3784  -20.3837 C   0  0  0  0  0  0  0  0  0  0  0  0
  -16.7794   10.4288  -19.3399 N   0  0  0  0  0  0  0  0  0  0  0  0
  -17.8325   11.2619  -19.2807 C   0  0  0  0  0  0  0  0  0  0  0  0
  -18.6419   11.3283  -18.1783 C   0  0  0  0  0  0  0  0  0  0  0  0
  -19.7191   12.2194  -18.0727 C   0  0  0  0  0  0  0  0  0  0  0  0
  -21.3327   15.0501  -19.7957 C   0  0  0  0  0  0  0  0  0  0  0  0
  -21.0724   13.9429  -18.9984 O   0  0  0  0  0  0  0  0  0  0  0  0
  -17.5137   12.9628  -22.4878 O   0  0  0  0  0  0  0  0  0  0  0  0
  -17.3960   14.3471  -22.2784 C   0  0  0  0  0  0  0  0  0  0  0  0
  -16.7101   14.9120  -21.2477 C   0  0  0  0  0  0  0  0  0  0  0  0
  -16.6281   16.3049  -21.0912 C   0  0  0  0  0  0  0  0  0  0  0  0
  -17.2338   17.1486  -21.9665 C   0  0  0  0  0  0  0  0  0  0  0  0
  -17.9382   16.5551  -23.0264 C   0  0  0  0  0  0  0  0  0  0  0  0
  -18.0241   15.2036  -23.1905 C   0  0  0  0  0  0  0  0  0  0  0  0
  -18.6845   14.6677  -24.2495 F   0  0  0  0  0  0  0  0  0  0  0  0
  -17.1882   18.5601  -21.8835 N   0  0  0  0  0  0  0  0  0  0  0  0
  -18.3444   19.2990  -21.5407 C   0  0  0  0  0  0  0  0  0  0  0  0
  -19.4605   18.7145  -21.3245 O   0  0  0  0  0  0  0  0  0  0  0  0
  -18.2593   20.7281  -21.4253 N   0  0  0  0  0  0  0  0  0  0  0  0
  -16.2985   19.0836  -22.0730 H   0  0  0  0  0  0  0  0  0  0  0  0
  -17.3459   21.1908  -21.6006 H   0  0  0  0  0  0  0  0  0  0  0  0
  -19.4239   21.4667  -21.0747 C   0  0  0  0  0  0  0  0  0  0  0  0
  -20.1783   22.0953  -22.0345 C   0  0  0  0  0  0  0  0  0  0  0  0
  -19.7651   22.0056  -23.4612 C   0  0  0  0  0  0  0  0  0  0  0  0
  -21.3311   22.8255  -21.7657 C   0  0  0  0  0  0  0  0  0  0  0  0
  -21.7503   22.9283  -20.4510 C   0  0  0  0  0  0  0  0  0  0  0  0
  -20.9978   22.2972  -19.4700 C   0  0  0  0  0  0  0  0  0  0  0  0
  -19.8569   21.5792  -19.7640 C   0  0  0  0  0  0  0  0  0  0  0  0
  -18.9501   20.8111  -18.5049 Cl  0  0  0  0  0  0  0  0  0  0  0  0
  -20.4694   12.2328  -16.9289 O   0  0  0  0  0  0  0  0  0  0  0  0
  -20.7497   12.6655  -15.7701 C   0  0  0  0  0  0  0  0  0  0  0  0
  -20.4522   11.6508  -14.6350 C   0  0  0  0  0  0  0  0  0  0  0  0
  -20.9088   10.2678  -14.9850 C   0  0  0  0  0  0  0  0  0  0  0  0
  -19.7564    9.3827  -14.9815 N   0  0  0  0  0  0  0  0  0  0  0  0
  -19.1662    9.2508  -13.6843 C   0  0  0  0  0  0  0  0  0  0  0  0
  -19.4537    7.9413  -13.0073 C   0  0  0  0  0  0  0  0  0  0  0  0
  -20.5538    7.2937  -13.5806 O   0  0  0  0  0  0  0  0  0  0  0  0
  -20.1366    6.9299  -14.8627 C   0  0  0  0  0  0  0  0  0  0  0  0
  -19.9587    8.1530  -15.6791 C   0  0  0  0  0  0  0  0  0  0  0  0
 11 12  1  0  0  0
 12  1  1  0  0  0
  1  2  2  0  0  0
  2  3  1  0  0  0
  3  4  2  0  0  0
  4 13  1  0  0  0
 13 14  1  0  0  0
 14 15  2  0  0  0
 15 16  1  0  0  0
 16 17  2  0  0  0
 17 21  1  0  0  0
 21 22  1  0  0  0
 22 23  2  0  0  0
 22 24  1  0  0  0
 24 27  1  0  0  0
 27 28  2  0  0  0
 28 29  1  0  0  0
 28 30  1  0  0  0
 30 31  2  0  0  0
 31 32  1  0  0  0
 32 33  2  0  0  0
 33 34  1  0  0  0
 17 18  1  0  0  0
 18 19  2  0  0  0
 19 20  1  0  0  0
  4  5  1  0  0  0
  5  6  2  0  0  0
  6  7  1  0  0  0
  7  8  2  0  0  0
  8  9  1  0  0  0
  9 10  2  0  0  0
 10 35  1  0  0  0
 35 36  1  0  0  0
 36 37  1  0  0  0
 37 38  1  0  0  0
 38 39  1  0  0  0
 39 40  1  0  0  0
 40 41  1  0  0  0
 41 42  1  0  0  0
 42 43  1  0  0  0
 43 44  1  0  0  0
 10  1  1  0  0  0
 44 39  1  0  0  0
  8  3  1  0  0  0
 19 14  1  0  0  0
 33 27  1  0  0  0
 21 25  1  0  0  0
 24 26  1  0  0  0
M  END
> <minimizedAffinity>
-8.04078

> <CNNscore>
0.2009083331

> <CNNaffinity>
6.8338289261

> <CNN_VS>
1.3729732037

> <CNNaffinity_variance>
0.3864910901

$$$$
[H]c1nc2c([H])c(OC([H])([H])C([H])([H])C([H])([H])N3C([H])([H])C([H])([H])OC([H])([H])C3([H])[H])c(OC([H])([H])[H])c([H])c2c(Oc2c([H])c([H])c(N([H])C(=O)N([H])c3c(Cl)c([H])c([H])c([H])c3C([H])([H])[H])c([H])c2F)c1[H]


 44 48  0  0  0  0  0  0  0  0999 V2000
  -20.6567   10.6513  -15.9850 C   0  0  0  0  0  0  0  0  0  0  0  0
  -19.9841   11.6155  -16.6975 C   0  0  0  0  0  0  0  0  0  0  0  0
  -18.9255   11.3541  -17.5736 C   0  0  0  0  0  0  0  0  0  0  0  0
  -18.2327   12.3333  -18.2410 C   0  0  0  0  0  0  0  0  0  0  0  0
  -17.1566   12.0527  -19.0746 C   0  0  0  0  0  0  0  0  0  0  0  0
  -16.7948   10.7030  -19.2115 C   0  0  0  0  0  0  0  0  0  0  0  0
  -17.4773    9.7637  -18.5550 N   0  0  0  0  0  0  0  0  0  0  0  0
  -18.5168   10.0423  -17.7497 C   0  0  0  0  0  0  0  0  0  0  0  0
  -19.1724    9.0650  -17.0497 C   0  0  0  0  0  0  0  0  0  0  0  0
  -20.2298    9.3332  -16.1691 C   0  0  0  0  0  0  0  0  0  0  0  0
  -21.6111   11.4943  -13.8772 C   0  0  0  0  0  0  0  0  0  0  0  0
  -21.7018   10.8790  -15.1192 O   0  0  0  0  0  0  0  0  0  0  0  0
  -18.6355   13.6720  -18.0513 O   0  0  0  0  0  0  0  0  0  0  0  0
  -18.8281   14.4955  -19.1732 C   0  0  0  0  0  0  0  0  0  0  0  0
  -19.4559   14.1027  -20.3150 C   0  0  0  0  0  0  0  0  0  0  0  0
  -19.6183   14.9731  -21.4047 C   0  0  0  0  0  0  0  0  0  0  0  0
  -19.1525   16.2483  -21.3628 C   0  0  0  0  0  0  0  0  0  0  0  0
  -18.5070   16.6431  -20.1800 C   0  0  0  0  0  0  0  0  0  0  0  0
  -18.3441   15.8078  -19.1138 C   0  0  0  0  0  0  0  0  0  0  0  0
  -17.7463   16.2379  -17.9726 F   0  0  0  0  0  0  0  0  0  0  0  0
  -19.2866   17.1870  -22.4126 N   0  0  0  0  0  0  0  0  0  0  0  0
  -20.4796   17.9313  -22.5650 C   0  0  0  0  0  0  0  0  0  0  0  0
  -21.4714   17.7559  -21.7779 O   0  0  0  0  0  0  0  0  0  0  0  0
  -20.5732   18.9058  -23.6159 N   0  0  0  0  0  0  0  0  0  0  0  0
  -18.5059   17.3491  -23.0950 H   0  0  0  0  0  0  0  0  0  0  0  0
  -19.7593   19.0410  -24.2470 H   0  0  0  0  0  0  0  0  0  0  0  0
  -21.7734   19.6561  -23.7618 C   0  0  0  0  0  0  0  0  0  0  0  0
  -21.8829   20.9230  -23.2436 C   0  0  0  0  0  0  0  0  0  0  0  0
  -20.7290   21.5145  -22.5136 C   0  0  0  0  0  0  0  0  0  0  0  0
  -23.0201   21.7158  -23.3558 C   0  0  0  0  0  0  0  0  0  0  0  0
  -24.1130   21.2023  -24.0316 C   0  0  0  0  0  0  0  0  0  0  0  0
  -24.0165   19.9230  -24.5616 C   0  0  0  0  0  0  0  0  0  0  0  0
  -22.8760   19.1570  -24.4352 C   0  0  0  0  0  0  0  0  0  0  0  0
  -22.8042   17.5649  -25.1119 Cl  0  0  0  0  0  0  0  0  0  0  0  0
  -20.8210    8.2996  -15.4957 O   0  0  0  0  0  0  0  0  0  0  0  0
  -20.9248    7.5113  -14.5076 C   0  0  0  0  0  0  0  0  0  0  0  0
  -19.9944    6.2730  -14.5954 C   0  0  0  0  0  0  0  0  0  0  0  0
  -20.3119    5.2570  -13.5416 C   0  0  0  0  0  0  0  0  0  0  0  0
  -19.9688    3.9389  -14.0479 N   0  0  0  0  0  0  0  0  0  0  0  0
  -18.5668    3.6634  -13.9639 C   0  0  0  0  0  0  0  0  0  0  0  0
  -18.1915    2.7097  -12.8661 C   0  0  0  0  0  0  0  0  0  0  0  0
  -19.2023    2.6054  -11.9040 O   0  0  0  0  0  0  0  0  0  0  0  0
  -20.2637    1.9739  -12.5558 C   0  0  0  0  0  0  0  0  0  0  0  0
  -20.8178    2.8906  -13.5788 C   0  0  0  0  0  0  0  0  0  0  0  0
 11 12  1  0  0  0
 12  1  1  0  0  0
  1  2  2  0  0  0
  2  3  1  0  0  0
  3  4  2  0  0  0
  4 13  1  0  0  0
 13 14  1  0  0  0
 14 15  2  0  0  0
 15 16  1  0  0  0
 16 17  2  0  0  0
 17 21  1  0  0  0
 21 22  1  0  0  0
 22 23  2  0  0  0
 22 24  1  0  0  0
 24 27  1  0  0  0
 27 28  2  0  0  0
 28 29  1  0  0  0
 28 30  1  0  0  0
 30 31  2  0  0  0
 31 32  1  0  0  0
 32 33  2  0  0  0
 33 34  1  0  0  0
 17 18  1  0  0  0
 18 19  2  0  0  0
 19 20  1  0  0  0
  4  5  1  0  0  0
  5  6  2  0  0  0
  6  7  1  0  0  0
  7  8  2  0  0  0
  8  9  1  0  0  0
  9 10  2  0  0  0
 10 35  1  0  0  0
 35 36  1  0  0  0
 36 37  1  0  0  0
 37 38  1  0  0  0
 38 39  1  0  0  0
 39 40  1  0  0  0
 40 41  1  0  0  0
 41 42  1  0  0  0
 42 43  1  0  0  0
 43 44  1  0  0  0
 10  1  1  0  0  0
 44 39  1  0  0  0
  8  3  1  0  0  0
 19 14  1  0  0  0
 33 27  1  0  0  0
 21 25  1  0  0  0
 24 26  1  0  0  0
M  END
> <minimizedAffinity>
-7.12043

> <CNNscore>
0.1889190078

> <CNNaffinity>
6.6889357567

> <CNN_VS>
1.2636671066

> <CNNaffinity_variance>
0.0710119233

$$$$
[H]c1nc2c([H])c(OC([H])([H])C([H])([H])C([H])([H])N3C([H])([H])C([H])([H])OC([H])([H])C3([H])[H])c(OC([H])([H])[H])c([H])c2c(Oc2c([H])c([H])c(N([H])C(=O)N([H])c3c(Cl)c([H])c([H])c([H])c3C([H])([H])[H])c([H])c2F)c1[H]


 44 48  0  0  0  0  0  0  0  0999 V2000
  -19.7371   11.9267  -16.9170 C   0  0  0  0  0  0  0  0  0  0  0  0
  -19.6254   13.1357  -17.5614 C   0  0  0  0  0  0  0  0  0  0  0  0
  -18.9075   13.3351  -18.7453 C   0  0  0  0  0  0  0  0  0  0  0  0
  -18.7657   14.5590  -19.3505 C   0  0  0  0  0  0  0  0  0  0  0  0
  -18.0124   14.7405  -20.5042 C   0  0  0  0  0  0  0  0  0  0  0  0
  -17.3870   13.6031  -21.0394 C   0  0  0  0  0  0  0  0  0  0  0  0
  -17.5335   12.4213  -20.4385 N   0  0  0  0  0  0  0  0  0  0  0  0
  -18.2631   12.2530  -19.3222 C   0  0  0  0  0  0  0  0  0  0  0  0
  -18.3606   11.0386  -18.6974 C   0  0  0  0  0  0  0  0  0  0  0  0
  -19.0775   10.8454  -17.5082 C   0  0  0  0  0  0  0  0  0  0  0  0
  -21.3320   12.5814  -15.1587 C   0  0  0  0  0  0  0  0  0  0  0  0
  -20.4378   11.7011  -15.7542 O   0  0  0  0  0  0  0  0  0  0  0  0
  -19.4070   15.6665  -18.7566 O   0  0  0  0  0  0  0  0  0  0  0  0
  -20.1395   16.5501  -19.5669 C   0  0  0  0  0  0  0  0  0  0  0  0
  -19.7590   17.8254  -19.8511 C   0  0  0  0  0  0  0  0  0  0  0  0
  -20.5350   18.6621  -20.6691 C   0  0  0  0  0  0  0  0  0  0  0  0
  -21.7028   18.2300  -21.2118 C   0  0  0  0  0  0  0  0  0  0  0  0
  -22.0855   16.9126  -20.9125 C   0  0  0  0  0  0  0  0  0  0  0  0
  -21.3399   16.0892  -20.1206 C   0  0  0  0  0  0  0  0  0  0  0  0
  -21.7253   14.8085  -19.8837 F   0  0  0  0  0  0  0  0  0  0  0  0
  -22.5333   19.0071  -22.0531 N   0  0  0  0  0  0  0  0  0  0  0  0
  -22.1285   19.3241  -23.3706 C   0  0  0  0  0  0  0  0  0  0  0  0
  -20.9960   18.9409  -23.8228 O   0  0  0  0  0  0  0  0  0  0  0  0
  -23.0091   20.0813  -24.2158 N   0  0  0  0  0  0  0  0  0  0  0  0
  -23.4625   19.3608  -21.7169 H   0  0  0  0  0  0  0  0  0  0  0  0
  -23.9279   20.3843  -23.8375 H   0  0  0  0  0  0  0  0  0  0  0  0
  -22.5998   20.3931  -25.5424 C   0  0  0  0  0  0  0  0  0  0  0  0
  -22.9399   19.5817  -26.5966 C   0  0  0  0  0  0  0  0  0  0  0  0
  -23.7435   18.3552  -26.3430 C   0  0  0  0  0  0  0  0  0  0  0  0
  -22.5827   19.8288  -27.9178 C   0  0  0  0  0  0  0  0  0  0  0  0
  -21.8387   20.9623  -28.1946 C   0  0  0  0  0  0  0  0  0  0  0  0
  -21.4883   21.7925  -27.1388 C   0  0  0  0  0  0  0  0  0  0  0  0
  -21.8553   21.5234  -25.8363 C   0  0  0  0  0  0  0  0  0  0  0  0
  -21.3921   22.5884  -24.5522 Cl  0  0  0  0  0  0  0  0  0  0  0  0
  -19.1117    9.6017  -16.9395 O   0  0  0  0  0  0  0  0  0  0  0  0
  -18.6110    8.6662  -16.2448 C   0  0  0  0  0  0  0  0  0  0  0  0
  -19.5167    8.2041  -15.0731 C   0  0  0  0  0  0  0  0  0  0  0  0
  -20.9620    8.1622  -15.4642 C   0  0  0  0  0  0  0  0  0  0  0  0
  -21.5965    7.0473  -14.7814 N   0  0  0  0  0  0  0  0  0  0  0  0
  -22.5477    6.3653  -15.6051 C   0  0  0  0  0  0  0  0  0  0  0  0
  -22.0749    5.0362  -16.1204 C   0  0  0  0  0  0  0  0  0  0  0  0
  -20.6829    4.9169  -16.0418 O   0  0  0  0  0  0  0  0  0  0  0  0
  -20.3961    4.8742  -14.6758 C   0  0  0  0  0  0  0  0  0  0  0  0
  -20.6898    6.1971  -14.0780 C   0  0  0  0  0  0  0  0  0  0  0  0
 11 12  1  0  0  0
 12  1  1  0  0  0
  1  2  2  0  0  0
  2  3  1  0  0  0
  3  4  2  0  0  0
  4 13  1  0  0  0
 13 14  1  0  0  0
 14 15  2  0  0  0
 15 16  1  0  0  0
 16 17  2  0  0  0
 17 21  1  0  0  0
 21 22  1  0  0  0
 22 23  2  0  0  0
 22 24  1  0  0  0
 24 27  1  0  0  0
 27 28  2  0  0  0
 28 29  1  0  0  0
 28 30  1  0  0  0
 30 31  2  0  0  0
 31 32  1  0  0  0
 32 33  2  0  0  0
 33 34  1  0  0  0
 17 18  1  0  0  0
 18 19  2  0  0  0
 19 20  1  0  0  0
  4  5  1  0  0  0
  5  6  2  0  0  0
  6  7  1  0  0  0
  7  8  2  0  0  0
  8  9  1  0  0  0
  9 10  2  0  0  0
 10 35  1  0  0  0
 35 36  1  0  0  0
 36 37  1  0  0  0
 37 38  1  0  0  0
 38 39  1  0  0  0
 39 40  1  0  0  0
 40 41  1  0  0  0
 41 42  1  0  0  0
 42 43  1  0  0  0
 43 44  1  0  0  0
 10  1  1  0  0  0
 44 39  1  0  0  0
  8  3  1  0  0  0
 19 14  1  0  0  0
 33 27  1  0  0  0
 21 25  1  0  0  0
 24 26  1  0  0  0
M  END
> <minimizedAffinity>
-8.23192

> <CNNscore>
0.1595684588

> <CNNaffinity>
6.6324639320

> <CNN_VS>
1.0583320856

> <CNNaffinity_variance>
0.0937622339

$$$$
[H]c1nc2c([H])c(OC([H])([H])C([H])([H])C([H])([H])N3C([H])([H])C([H])([H])OC([H])([H])C3([H])[H])c(OC([H])([H])[H])c([H])c2c(Oc2c([H])c([H])c(N([H])C(=O)N([H])c3c(Cl)c([H])c([H])c([H])c3C([H])([H])[H])c([H])c2F)c1[H]


 44 48  0  0  0  0  0  0  0  0999 V2000
  -20.4409   10.2779  -16.1056 C   0  0  0  0  0  0  0  0  0  0  0  0
  -20.2427   11.2491  -17.0581 C   0  0  0  0  0  0  0  0  0  0  0  0
  -19.2096   11.2299  -18.0010 C   0  0  0  0  0  0  0  0  0  0  0  0
  -18.9967   12.2319  -18.9147 C   0  0  0  0  0  0  0  0  0  0  0  0
  -17.9380   12.2112  -19.8148 C   0  0  0  0  0  0  0  0  0  0  0  0
  -17.0746   11.1057  -19.7539 C   0  0  0  0  0  0  0  0  0  0  0  0
  -17.2945   10.1412  -18.8593 N   0  0  0  0  0  0  0  0  0  0  0  0
  -18.3202   10.1679  -17.9910 C   0  0  0  0  0  0  0  0  0  0  0  0
  -18.4983    9.1888  -17.0506 C   0  0  0  0  0  0  0  0  0  0  0  0
  -19.5327    9.2155  -16.1047 C   0  0  0  0  0  0  0  0  0  0  0  0
  -22.7561    9.8521  -15.3824 C   0  0  0  0  0  0  0  0  0  0  0  0
  -21.4487   10.2697  -15.1686 O   0  0  0  0  0  0  0  0  0  0  0  0
  -19.8908   13.3232  -18.9169 O   0  0  0  0  0  0  0  0  0  0  0  0
  -19.5780   14.4673  -18.1638 C   0  0  0  0  0  0  0  0  0  0  0  0
  -18.5005   15.2663  -18.3931 C   0  0  0  0  0  0  0  0  0  0  0  0
  -18.2401   16.3985  -17.6046 C   0  0  0  0  0  0  0  0  0  0  0  0
  -19.0572   16.7430  -16.5758 C   0  0  0  0  0  0  0  0  0  0  0  0
  -20.1661   15.9121  -16.3484 C   0  0  0  0  0  0  0  0  0  0  0  0
  -20.4310   14.8104  -17.1080 C   0  0  0  0  0  0  0  0  0  0  0  0
  -21.5343   14.0518  -16.8799 F   0  0  0  0  0  0  0  0  0  0  0  0
  -18.8692   17.8722  -15.7445 N   0  0  0  0  0  0  0  0  0  0  0  0
  -19.9642   18.6919  -15.3848 C   0  0  0  0  0  0  0  0  0  0  0  0
  -21.1409   18.4495  -15.8215 O   0  0  0  0  0  0  0  0  0  0  0  0
  -19.7504   19.8089  -14.5076 N   0  0  0  0  0  0  0  0  0  0  0  0
  -17.9173   18.1213  -15.3795 H   0  0  0  0  0  0  0  0  0  0  0  0
  -18.7901   19.9934  -14.1573 H   0  0  0  0  0  0  0  0  0  0  0  0
  -20.8562   20.6274  -14.1441 C   0  0  0  0  0  0  0  0  0  0  0  0
  -21.5827   20.3708  -13.0077 C   0  0  0  0  0  0  0  0  0  0  0  0
  -21.2089   19.2144  -12.1489 C   0  0  0  0  0  0  0  0  0  0  0  0
  -22.6677   21.1325  -12.5872 C   0  0  0  0  0  0  0  0  0  0  0  0
  -23.0435   22.2191  -13.3571 C   0  0  0  0  0  0  0  0  0  0  0  0
  -22.3175   22.4913  -14.5085 C   0  0  0  0  0  0  0  0  0  0  0  0
  -21.2450   21.7185  -14.9035 C   0  0  0  0  0  0  0  0  0  0  0  0
  -20.3715   22.0967  -16.3498 Cl  0  0  0  0  0  0  0  0  0  0  0  0
  -19.6306    8.2045  -15.1884 O   0  0  0  0  0  0  0  0  0  0  0  0
  -19.6963    7.7617  -14.0018 C   0  0  0  0  0  0  0  0  0  0  0  0
  -18.8721    8.5878  -12.9796 C   0  0  0  0  0  0  0  0  0  0  0  0
  -19.6833    8.9636  -11.7779 C   0  0  0  0  0  0  0  0  0  0  0  0
  -18.7785    9.3420  -10.7057 N   0  0  0  0  0  0  0  0  0  0  0  0
  -19.4678    9.8037   -9.5394 C   0  0  0  0  0  0  0  0  0  0  0  0
  -19.4842    8.8204   -8.4043 C   0  0  0  0  0  0  0  0  0  0  0  0
  -19.1944    7.5228   -8.8405 O   0  0  0  0  0  0  0  0  0  0  0  0
  -17.8565    7.5610   -9.2386 C   0  0  0  0  0  0  0  0  0  0  0  0
  -17.7373    8.3971  -10.4554 C   0  0  0  0  0  0  0  0  0  0  0  0
 11 12  1  0  0  0
 12  1  1  0  0  0
  1  2  2  0  0  0
  2  3  1  0  0  0
  3  4  2  0  0  0
  4 13  1  0  0  0
 13 14  1  0  0  0
 14 15  2  0  0  0
 15 16  1  0  0  0
 16 17  2  0  0  0
 17 21  1  0  0  0
 21 22  1  0  0  0
 22 23  2  0  0  0
 22 24  1  0  0  0
 24 27  1  0  0  0
 27 28  2  0  0  0
 28 29  1  0  0  0
 28 30  1  0  0  0
 30 31  2  0  0  0
 31 32  1  0  0  0
 32 33  2  0  0  0
 33 34  1  0  0  0
 17 18  1  0  0  0
 18 19  2  0  0  0
 19 20  1  0  0  0
  4  5  1  0  0  0
  5  6  2  0  0  0
  6  7  1  0  0  0
  7  8  2  0  0  0
  8  9  1  0  0  0
  9 10  2  0  0  0
 10 35  1  0  0  0
 35 36  1  0  0  0
 36 37  1  0  0  0
 37 38  1  0  0  0
 38 39  1  0  0  0
 39 40  1  0  0  0
 40 41  1  0  0  0
 41 42  1  0  0  0
 42 43  1  0  0  0
 43 44  1  0  0  0
 10  1  1  0  0  0
 44 39  1  0  0  0
  8  3  1  0  0  0
 19 14  1  0  0  0
 33 27  1  0  0  0
 21 25  1  0  0  0
 24 26  1  0  0  0
M  END
> <minimizedAffinity>
-7.09652

> <CNNscore>
0.1535370648

> <CNNaffinity>
6.6442079544

> <CNN_VS>
1.0201321840

> <CNNaffinity_variance>
0.0511784256

$$$$
[H]c1nc2c([H])c(OC([H])([H])C([H])([H])C([H])([H])N3C([H])([H])C([H])([H])OC([H])([H])C3([H])[H])c(OC([H])([H])[H])c([H])c2c(Oc2c([H])c([H])c(N([H])C(=O)N([H])c3c(Cl)c([H])c([H])c([H])c3C([H])([H])[H])c([H])c2F)c1[H]


 44 48  0  0  0  0  0  0  0  0999 V2000
  -17.3761   12.0711  -20.2097 C   0  0  0  0  0  0  0  0  0  0  0  0
  -18.0563   12.0861  -19.0153 C   0  0  0  0  0  0  0  0  0  0  0  0
  -19.2065   12.8440  -18.7721 C   0  0  0  0  0  0  0  0  0  0  0  0
  -19.8465   12.8850  -17.5585 C   0  0  0  0  0  0  0  0  0  0  0  0
  -20.9641   13.6783  -17.3283 C   0  0  0  0  0  0  0  0  0  0  0  0
  -21.4244   14.4542  -18.4042 C   0  0  0  0  0  0  0  0  0  0  0  0
  -20.7904   14.4041  -19.5767 N   0  0  0  0  0  0  0  0  0  0  0  0
  -19.7093   13.6349  -19.7923 C   0  0  0  0  0  0  0  0  0  0  0  0
  -19.0477   13.6358  -20.9910 C   0  0  0  0  0  0  0  0  0  0  0  0
  -17.8923   12.8778  -21.2277 C   0  0  0  0  0  0  0  0  0  0  0  0
  -16.1866    9.9535  -20.6164 C   0  0  0  0  0  0  0  0  0  0  0  0
  -16.2450   11.3343  -20.4775 O   0  0  0  0  0  0  0  0  0  0  0  0
  -19.3275   12.0934  -16.5123 O   0  0  0  0  0  0  0  0  0  0  0  0
  -19.9473   10.8704  -16.2057 C   0  0  0  0  0  0  0  0  0  0  0  0
  -21.1411   10.7548  -15.5627 C   0  0  0  0  0  0  0  0  0  0  0  0
  -21.7109    9.5022  -15.2839 C   0  0  0  0  0  0  0  0  0  0  0  0
  -21.0899    8.3498  -15.6462 C   0  0  0  0  0  0  0  0  0  0  0  0
  -19.8592    8.4808  -16.3095 C   0  0  0  0  0  0  0  0  0  0  0  0
  -19.2957    9.6916  -16.5877 C   0  0  0  0  0  0  0  0  0  0  0  0
  -18.1209    9.7781  -17.2637 F   0  0  0  0  0  0  0  0  0  0  0  0
  -21.6036    7.0528  -15.4116 N   0  0  0  0  0  0  0  0  0  0  0  0
  -21.0144    6.2096  -14.4410 C   0  0  0  0  0  0  0  0  0  0  0  0
  -19.9913    6.5865  -13.7736 O   0  0  0  0  0  0  0  0  0  0  0  0
  -21.5812    4.9128  -14.1961 N   0  0  0  0  0  0  0  0  0  0  0  0
  -22.4293    6.6935  -15.9507 H   0  0  0  0  0  0  0  0  0  0  0  0
  -22.4142    4.6194  -14.7429 H   0  0  0  0  0  0  0  0  0  0  0  0
  -20.9882    4.0702  -13.2147 C   0  0  0  0  0  0  0  0  0  0  0  0
  -20.0334    3.1458  -13.5598 C   0  0  0  0  0  0  0  0  0  0  0  0
  -19.6195    3.0218  -14.9838 C   0  0  0  0  0  0  0  0  0  0  0  0
  -19.4062    2.2972  -12.6538 C   0  0  0  0  0  0  0  0  0  0  0  0
  -19.7611    2.3854  -11.3193 C   0  0  0  0  0  0  0  0  0  0  0  0
  -20.7245    3.3161  -10.9555 C   0  0  0  0  0  0  0  0  0  0  0  0
  -21.3321    4.1458  -11.8752 C   0  0  0  0  0  0  0  0  0  0  0  0
  -22.5308    5.2899  -11.3732 Cl  0  0  0  0  0  0  0  0  0  0  0  0
  -17.2823   12.9479  -22.4501 O   0  0  0  0  0  0  0  0  0  0  0  0
  -16.2968   12.7742  -23.2293 C   0  0  0  0  0  0  0  0  0  0  0  0
  -16.3860   13.5951  -24.5427 C   0  0  0  0  0  0  0  0  0  0  0  0
  -17.7334   14.2247  -24.7202 C   0  0  0  0  0  0  0  0  0  0  0  0
  -17.5739   15.6690  -24.7332 N   0  0  0  0  0  0  0  0  0  0  0  0
  -18.5417   16.3382  -23.9184 C   0  0  0  0  0  0  0  0  0  0  0  0
  -17.9965   16.8644  -22.6217 C   0  0  0  0  0  0  0  0  0  0  0  0
  -16.7848   16.2514  -22.2838 O   0  0  0  0  0  0  0  0  0  0  0  0
  -15.8710   16.6945  -23.2423 C   0  0  0  0  0  0  0  0  0  0  0  0
  -16.2278   16.1124  -24.5567 C   0  0  0  0  0  0  0  0  0  0  0  0
 11 12  1  0  0  0
 12  1  1  0  0  0
  1  2  2  0  0  0
  2  3  1  0  0  0
  3  4  2  0  0  0
  4 13  1  0  0  0
 13 14  1  0  0  0
 14 15  2  0  0  0
 15 16  1  0  0  0
 16 17  2  0  0  0
 17 21  1  0  0  0
 21 22  1  0  0  0
 22 23  2  0  0  0
 22 24  1  0  0  0
 24 27  1  0  0  0
 27 28  2  0  0  0
 28 29  1  0  0  0
 28 30  1  0  0  0
 30 31  2  0  0  0
 31 32  1  0  0  0
 32 33  2  0  0  0
 33 34  1  0  0  0
 17 18  1  0  0  0
 18 19  2  0  0  0
 19 20  1  0  0  0
  4  5  1  0  0  0
  5  6  2  0  0  0
  6  7  1  0  0  0
  7  8  2  0  0  0
  8  9  1  0  0  0
  9 10  2  0  0  0
 10 35  1  0  0  0
 35 36  1  0  0  0
 36 37  1  0  0  0
 37 38  1  0  0  0
 38 39  1  0  0  0
 39 40  1  0  0  0
 40 41  1  0  0  0
 41 42  1  0  0  0
 42 43  1  0  0  0
 43 44  1  0  0  0
 10  1  1  0  0  0
 44 39  1  0  0  0
  8  3  1  0  0  0
 19 14  1  0  0  0
 33 27  1  0  0  0
 21 25  1  0  0  0
 24 26  1  0  0  0
M  END
> <minimizedAffinity>
-7.35263

> <CNNscore>
0.1242910102

> <CNNaffinity>
6.6454620361

> <CNN_VS>
0.8259711862

> <CNNaffinity_variance>
0.1985609233

$$$$
[H]c1nc2c([H])c(OC([H])([H])C([H])([H])C([H])([H])N3C([H])([H])C([H])([H])OC([H])([H])C3([H])[H])c(OC([H])([H])[H])c([H])c2c(Oc2c([H])c([H])c(N([H])C(=O)N([H])c3c(Cl)c([H])c([H])c([H])c3C([H])([H])[H])c([H])c2F)c1[H]


 44 48  0  0  0  0  0  0  0  0999 V2000
  -19.6957   14.9410  -20.7201 C   0  0  0  0  0  0  0  0  0  0  0  0
  -19.5707   13.8933  -19.8391 C   0  0  0  0  0  0  0  0  0  0  0  0
  -18.6413   12.8564  -19.9733 C   0  0  0  0  0  0  0  0  0  0  0  0
  -18.5615   11.7918  -19.1106 C   0  0  0  0  0  0  0  0  0  0  0  0
  -17.6573   10.7513  -19.2878 C   0  0  0  0  0  0  0  0  0  0  0  0
  -16.8112   10.8291  -20.4056 C   0  0  0  0  0  0  0  0  0  0  0  0
  -16.9024   11.8696  -21.2351 N   0  0  0  0  0  0  0  0  0  0  0  0
  -17.7799   12.8723  -21.0581 C   0  0  0  0  0  0  0  0  0  0  0  0
  -17.8866   13.9066  -21.9490 C   0  0  0  0  0  0  0  0  0  0  0  0
  -18.8233   14.9407  -21.8121 C   0  0  0  0  0  0  0  0  0  0  0  0
  -20.4492   17.1054  -19.8191 C   0  0  0  0  0  0  0  0  0  0  0  0
  -20.5979   15.9746  -20.6117 O   0  0  0  0  0  0  0  0  0  0  0  0
  -19.4484   11.7638  -18.0138 O   0  0  0  0  0  0  0  0  0  0  0  0
  -19.4132   10.6711  -17.1315 C   0  0  0  0  0  0  0  0  0  0  0  0
  -18.5043    9.6604  -17.1971 C   0  0  0  0  0  0  0  0  0  0  0  0
  -18.5202    8.5931  -16.2848 C   0  0  0  0  0  0  0  0  0  0  0  0
  -19.4484    8.5263  -15.2955 C   0  0  0  0  0  0  0  0  0  0  0  0
  -20.3808    9.5745  -15.2367 C   0  0  0  0  0  0  0  0  0  0  0  0
  -20.3753   10.6176  -16.1158 C   0  0  0  0  0  0  0  0  0  0  0  0
  -21.2717   11.6319  -16.0040 F   0  0  0  0  0  0  0  0  0  0  0  0
  -19.5231    7.4921  -14.3331 N   0  0  0  0  0  0  0  0  0  0  0  0
  -19.1809    7.7387  -12.9832 C   0  0  0  0  0  0  0  0  0  0  0  0
  -18.7719    8.8896  -12.6061 O   0  0  0  0  0  0  0  0  0  0  0  0
  -19.3039    6.6802  -12.0201 N   0  0  0  0  0  0  0  0  0  0  0  0
  -19.8338    6.5263  -14.6016 H   0  0  0  0  0  0  0  0  0  0  0  0
  -19.6402    5.7505  -12.3386 H   0  0  0  0  0  0  0  0  0  0  0  0
  -18.9637    6.9346  -10.6620 C   0  0  0  0  0  0  0  0  0  0  0  0
  -17.7335    6.5836  -10.1634 C   0  0  0  0  0  0  0  0  0  0  0  0
  -16.7459    5.9215  -11.0582 C   0  0  0  0  0  0  0  0  0  0  0  0
  -17.3304    6.8092   -8.8516 C   0  0  0  0  0  0  0  0  0  0  0  0
  -18.2195    7.4268   -7.9897 C   0  0  0  0  0  0  0  0  0  0  0  0
  -19.4668    7.7882   -8.4802 C   0  0  0  0  0  0  0  0  0  0  0  0
  -19.8419    7.5517   -9.7867 C   0  0  0  0  0  0  0  0  0  0  0  0
  -21.4104    8.0190  -10.3516 Cl  0  0  0  0  0  0  0  0  0  0  0  0
  -18.8748   15.9290  -22.7565 O   0  0  0  0  0  0  0  0  0  0  0  0
  -18.4678   17.0106  -23.2790 C   0  0  0  0  0  0  0  0  0  0  0  0
  -16.9726   17.3157  -23.0001 C   0  0  0  0  0  0  0  0  0  0  0  0
  -16.1473   17.2652  -24.2491 C   0  0  0  0  0  0  0  0  0  0  0  0
  -16.1433   15.9008  -24.7490 N   0  0  0  0  0  0  0  0  0  0  0  0
  -16.3878   15.8286  -26.1573 C   0  0  0  0  0  0  0  0  0  0  0  0
  -15.1680   15.5250  -26.9793 C   0  0  0  0  0  0  0  0  0  0  0  0
  -13.9896   15.7785  -26.2685 O   0  0  0  0  0  0  0  0  0  0  0  0
  -13.9625   14.8212  -25.2522 C   0  0  0  0  0  0  0  0  0  0  0  0
  -15.0480   15.1095  -24.2865 C   0  0  0  0  0  0  0  0  0  0  0  0
 11 12  1  0  0  0
 12  1  1  0  0  0
  1  2  2  0  0  0
  2  3  1  0  0  0
  3  4  2  0  0  0
  4 13  1  0  0  0
 13 14  1  0  0  0
 14 15  2  0  0  0
 15 16  1  0  0  0
 16 17  2  0  0  0
 17 21  1  0  0  0
 21 22  1  0  0  0
 22 23  2  0  0  0
 22 24  1  0  0  0
 24 27  1  0  0  0
 27 28  2  0  0  0
 28 29  1  0  0  0
 28 30  1  0  0  0
 30 31  2  0  0  0
 31 32  1  0  0  0
 32 33  2  0  0  0
 33 34  1  0  0  0
 17 18  1  0  0  0
 18 19  2  0  0  0
 19 20  1  0  0  0
  4  5  1  0  0  0
  5  6  2  0  0  0
  6  7  1  0  0  0
  7  8  2  0  0  0
  8  9  1  0  0  0
  9 10  2  0  0  0
 10 35  1  0  0  0
 35 36  1  0  0  0
 36 37  1  0  0  0
 37 38  1  0  0  0
 38 39  1  0  0  0
 39 40  1  0  0  0
 40 41  1  0  0  0
 41 42  1  0  0  0
 42 43  1  0  0  0
 43 44  1  0  0  0
 10  1  1  0  0  0
 44 39  1  0  0  0
  8  3  1  0  0  0
 19 14  1  0  0  0
 33 27  1  0  0  0
 21 25  1  0  0  0
 24 26  1  0  0  0
M  END
> <minimizedAffinity>
-8.81558

> <CNNscore>
0.1122896299

> <CNNaffinity>
6.5628843307

> <CNN_VS>
0.7369438410

> <CNNaffinity_variance>
0.1930392832

$$$$
[H]c1nc2c([H])c(OC([H])([H])C([H])([H])C([H])([H])N3C([H])([H])C([H])([H])OC([H])([H])C3([H])[H])c(OC([H])([H])[H])c([H])c2c(Oc2c([H])c([H])c(N([H])C(=O)N([H])c3c(Cl)c([H])c([H])c([H])c3C([H])([H])[H])c([H])c2F)c1[H]


 44 48  0  0  0  0  0  0  0  0999 V2000
  -18.4107   16.4542  -20.3771 C   0  0  0  0  0  0  0  0  0  0  0  0
  -17.9432   15.2154  -20.0078 C   0  0  0  0  0  0  0  0  0  0  0  0
  -17.7123   14.1618  -20.8985 C   0  0  0  0  0  0  0  0  0  0  0  0
  -17.2909   12.9154  -20.5075 C   0  0  0  0  0  0  0  0  0  0  0  0
  -17.1083   11.8711  -21.4063 C   0  0  0  0  0  0  0  0  0  0  0  0
  -17.3772   12.1422  -22.7574 C   0  0  0  0  0  0  0  0  0  0  0  0
  -17.7872   13.3583  -23.1208 N   0  0  0  0  0  0  0  0  0  0  0  0
  -17.9625   14.3636  -22.2460 C   0  0  0  0  0  0  0  0  0  0  0  0
  -18.4291   15.5901  -22.6368 C   0  0  0  0  0  0  0  0  0  0  0  0
  -18.6634   16.6411  -21.7390 C   0  0  0  0  0  0  0  0  0  0  0  0
  -19.0203   17.4089  -18.1905 C   0  0  0  0  0  0  0  0  0  0  0  0
  -18.6445   17.5084  -19.5240 O   0  0  0  0  0  0  0  0  0  0  0  0
  -17.0509   12.7013  -19.1339 O   0  0  0  0  0  0  0  0  0  0  0  0
  -17.9938   11.9863  -18.3764 C   0  0  0  0  0  0  0  0  0  0  0  0
  -19.0111   12.5598  -17.6777 C   0  0  0  0  0  0  0  0  0  0  0  0
  -19.9237   11.7909  -16.9379 C   0  0  0  0  0  0  0  0  0  0  0  0
  -19.8267   10.4370  -16.8893 C   0  0  0  0  0  0  0  0  0  0  0  0
  -18.7739    9.8558  -17.6142 C   0  0  0  0  0  0  0  0  0  0  0  0
  -17.8817   10.5913  -18.3380 C   0  0  0  0  0  0  0  0  0  0  0  0
  -16.8982    9.9898  -19.0560 F   0  0  0  0  0  0  0  0  0  0  0  0
  -20.7117    9.5936  -16.1773 N   0  0  0  0  0  0  0  0  0  0  0  0
  -20.3053    8.3008  -15.7728 C   0  0  0  0  0  0  0  0  0  0  0  0
  -19.1431    7.8540  -16.0623 O   0  0  0  0  0  0  0  0  0  0  0  0
  -21.2109    7.4813  -15.0169 N   0  0  0  0  0  0  0  0  0  0  0  0
  -21.6826    9.9108  -15.9357 H   0  0  0  0  0  0  0  0  0  0  0  0
  -22.1513    7.8570  -14.7855 H   0  0  0  0  0  0  0  0  0  0  0  0
  -20.7955    6.1834  -14.6074 C   0  0  0  0  0  0  0  0  0  0  0  0
  -20.1335    5.9948  -13.4194 C   0  0  0  0  0  0  0  0  0  0  0  0
  -19.8423    7.1687  -12.5525 C   0  0  0  0  0  0  0  0  0  0  0  0
  -19.7067    4.7561  -12.9526 C   0  0  0  0  0  0  0  0  0  0  0  0
  -19.9629    3.6395  -13.7286 C   0  0  0  0  0  0  0  0  0  0  0  0
  -20.6322    3.8149  -14.9320 C   0  0  0  0  0  0  0  0  0  0  0  0
  -21.0442    5.0559  -15.3722 C   0  0  0  0  0  0  0  0  0  0  0  0
  -21.8741    5.2244  -16.8824 Cl  0  0  0  0  0  0  0  0  0  0  0  0
  -19.1458   17.8314  -22.2101 O   0  0  0  0  0  0  0  0  0  0  0  0
  -20.0861   18.6046  -22.5659 C   0  0  0  0  0  0  0  0  0  0  0  0
  -21.4945   18.1137  -22.1392 C   0  0  0  0  0  0  0  0  0  0  0  0
  -22.4140   19.2532  -21.8239 C   0  0  0  0  0  0  0  0  0  0  0  0
  -23.5874   19.1532  -22.6752 N   0  0  0  0  0  0  0  0  0  0  0  0
  -23.8480   20.3600  -23.3992 C   0  0  0  0  0  0  0  0  0  0  0  0
  -23.4923   20.2926  -24.8568 C   0  0  0  0  0  0  0  0  0  0  0  0
  -22.6135   19.2373  -25.1260 O   0  0  0  0  0  0  0  0  0  0  0  0
  -23.3569   18.0764  -24.9027 C   0  0  0  0  0  0  0  0  0  0  0  0
  -23.6468   17.9582  -23.4550 C   0  0  0  0  0  0  0  0  0  0  0  0
 11 12  1  0  0  0
 12  1  1  0  0  0
  1  2  2  0  0  0
  2  3  1  0  0  0
  3  4  2  0  0  0
  4 13  1  0  0  0
 13 14  1  0  0  0
 14 15  2  0  0  0
 15 16  1  0  0  0
 16 17  2  0  0  0
 17 21  1  0  0  0
 21 22  1  0  0  0
 22 23  2  0  0  0
 22 24  1  0  0  0
 24 27  1  0  0  0
 27 28  2  0  0  0
 28 29  1  0  0  0
 28 30  1  0  0  0
 30 31  2  0  0  0
 31 32  1  0  0  0
 32 33  2  0  0  0
 33 34  1  0  0  0
 17 18  1  0  0  0
 18 19  2  0  0  0
 19 20  1  0  0  0
  4  5  1  0  0  0
  5  6  2  0  0  0
  6  7  1  0  0  0
  7  8  2  0  0  0
  8  9  1  0  0  0
  9 10  2  0  0  0
 10 35  1  0  0  0
 35 36  1  0  0  0
 36 37  1  0  0  0
 37 38  1  0  0  0
 38 39  1  0  0  0
 39 40  1  0  0  0
 40 41  1  0  0  0
 41 42  1  0  0  0
 42 43  1  0  0  0
 43 44  1  0  0  0
 10  1  1  0  0  0
 44 39  1  0  0  0
  8  3  1  0  0  0
 19 14  1  0  0  0
 33 27  1  0  0  0
 21 25  1  0  0  0
 24 26  1  0  0  0
M  END
> <minimizedAffinity>
-7.85025

> <CNNscore>
0.0933269784

> <CNNaffinity>
6.2786865234

> <CNN_VS>
0.5859708190

> <CNNaffinity_variance>
0.4188897014

$$$$
[H]c1nc2c([H])c(OC([H])([H])C([H])([H])C([H])([H])N3C([H])([H])C([H])([H])C([H])([H])C3([H])[H])c(OC([H])([H])[H])c([H])c2c(Oc2c([H])c([H])c(N([H])C(=O)N([H])c3c(F)c([H])c([H])c([H])c3F)c([H])c2F)c1[H]


 43 47  0  0  0  0  0  0  0  0999 V2000
  -18.8119   13.5788  -17.2747 O   0  0  0  0  0  0  0  0  0  0  0  0
  -19.8174    9.9988  -15.7508 C   0  0  0  0  0  0  0  0  0  0  0  0
  -19.4756   11.2019  -16.2447 C   0  0  0  0  0  0  0  0  0  0  0  0
  -18.6904   11.1977  -17.4049 C   0  0  0  0  0  0  0  0  0  0  0  0
  -18.3595   12.4078  -17.9481 C   0  0  0  0  0  0  0  0  0  0  0  0
  -17.6328   12.4524  -19.0957 C   0  0  0  0  0  0  0  0  0  0  0  0
  -17.2541   11.2591  -19.6684 C   0  0  0  0  0  0  0  0  0  0  0  0
  -17.5770   10.0322  -19.1309 N   0  0  0  0  0  0  0  0  0  0  0  0
  -18.2885   10.0241  -18.0104 C   0  0  0  0  0  0  0  0  0  0  0  0
  -18.6940    8.8153  -17.4290 C   0  0  0  0  0  0  0  0  0  0  0  0
  -19.4676    8.7208  -16.2885 C   0  0  0  0  0  0  0  0  0  0  0  0
  -20.8715   10.9273  -13.6854 C   0  0  0  0  0  0  0  0  0  0  0  0
  -20.6084    9.9055  -14.5957 O   0  0  0  0  0  0  0  0  0  0  0  0
  -19.8915    7.6647  -15.7203 O   0  0  0  0  0  0  0  0  0  0  0  0
  -20.3809    6.6903  -15.0561 C   0  0  0  0  0  0  0  0  0  0  0  0
  -21.9308    6.5434  -15.2460 C   0  0  0  0  0  0  0  0  0  0  0  0
  -22.5912    7.2946  -14.0702 C   0  0  0  0  0  0  0  0  0  0  0  0
  -23.5899    8.1244  -14.4662 N   0  0  0  0  0  0  0  0  0  0  0  0
  -24.0832    8.6847  -15.5849 C   0  0  0  0  0  0  0  0  0  0  0  0
  -24.1510   10.2156  -15.0694 C   0  0  0  0  0  0  0  0  0  0  0  0
  -25.0355    9.8949  -13.8707 C   0  0  0  0  0  0  0  0  0  0  0  0
  -24.5144    8.6032  -13.3765 C   0  0  0  0  0  0  0  0  0  0  0  0
  -19.5055   14.4354  -18.1532 C   0  0  0  0  0  0  0  0  0  0  0  0
  -20.5858   14.0712  -18.8498 C   0  0  0  0  0  0  0  0  0  0  0  0
  -21.1975   15.0261  -19.6873 C   0  0  0  0  0  0  0  0  0  0  0  0
  -20.6631   16.3226  -19.7709 C   0  0  0  0  0  0  0  0  0  0  0  0
  -19.5581   16.6863  -19.0639 C   0  0  0  0  0  0  0  0  0  0  0  0
  -18.9990   15.7029  -18.2559 C   0  0  0  0  0  0  0  0  0  0  0  0
  -17.9015   16.0958  -17.5788 F   0  0  0  0  0  0  0  0  0  0  0  0
  -21.4663   17.1655  -20.5686 N   0  0  0  0  0  0  0  0  0  0  0  0
  -20.9922   17.4090  -21.9134 C   0  0  0  0  0  0  0  0  0  0  0  0
  -19.8464   16.9829  -22.1934 O   0  0  0  0  0  0  0  0  0  0  0  0
  -21.8138   18.0403  -22.7803 N   0  0  0  0  0  0  0  0  0  0  0  0
  -22.3289   17.5645  -20.2066 H   0  0  0  0  0  0  0  0  0  0  0  0
  -20.8512   17.9235  -23.7084 H   0  0  0  0  0  0  0  0  0  0  0  0
  -22.6412   18.6828  -23.6767 C   0  0  0  0  0  0  0  0  0  0  0  0
  -23.1048   18.2434  -24.8836 C   0  0  0  0  0  0  0  0  0  0  0  0
  -22.7464   17.0093  -25.3688 F   0  0  0  0  0  0  0  0  0  0  0  0
  -23.9496   18.9758  -25.6846 C   0  0  0  0  0  0  0  0  0  0  0  0
  -24.3669   20.2200  -25.3024 C   0  0  0  0  0  0  0  0  0  0  0  0
  -23.9188   20.7056  -24.0750 C   0  0  0  0  0  0  0  0  0  0  0  0
  -23.0976   19.9653  -23.3014 C   0  0  0  0  0  0  0  0  0  0  0  0
  -22.5927   20.4935  -22.0813 F   0  0  0  0  0  0  0  0  0  0  0  0
 12 13  1  0  0  0
 13  2  1  0  0  0
  2  3  2  0  0  0
  3  4  1  0  0  0
  4  5  2  0  0  0
  5  1  1  0  0  0
  1 23  1  0  0  0
 23 24  2  0  0  0
 24 25  1  0  0  0
 25 26  2  0  0  0
 26 30  1  0  0  0
 30 31  1  0  0  0
 31 32  2  0  0  0
 31 33  1  0  0  0
 33 36  1  0  0  0
 36 37  2  0  0  0
 37 38  1  0  0  0
 37 39  1  0  0  0
 39 40  2  0  0  0
 40 41  1  0  0  0
 41 42  2  0  0  0
 42 43  1  0  0  0
 26 27  1  0  0  0
 27 28  2  0  0  0
 28 29  1  0  0  0
  5  6  1  0  0  0
  6  7  2  0  0  0
  7  8  1  0  0  0
  8  9  2  0  0  0
  9 10  1  0  0  0
 10 11  2  0  0  0
 11 14  1  0  0  0
 14 15  1  0  0  0
 15 16  1  0  0  0
 16 17  1  0  0  0
 17 18  1  0  0  0
 18 19  1  0  0  0
 19 20  1  0  0  0
 20 21  1  0  0  0
 21 22  1  0  0  0
 11  2  1  0  0  0
 22 18  1  0  0  0
  9  4  1  0  0  0
 28 23  1  0  0  0
 42 36  1  0  0  0
 30 34  1  0  0  0
 33 35  1  0  0  0
M  END
> <minimizedAffinity>
-7.50509

> <CNNscore>
0.2172361016

> <CNNaffinity>
6.8064146042

> <CNN_VS>
1.4785989523

> <CNNaffinity_variance>
0.0980997607

$$$$
[H]c1nc2c([H])c(OC([H])([H])C([H])([H])C([H])([H])N3C([H])([H])C([H])([H])C([H])([H])C3([H])[H])c(OC([H])([H])[H])c([H])c2c(Oc2c([H])c([H])c(N([H])C(=O)N([H])c3c(F)c([H])c([H])c([H])c3F)c([H])c2F)c1[H]


 43 47  0  0  0  0  0  0  0  0999 V2000
  -18.5378   12.0615  -18.1069 O   0  0  0  0  0  0  0  0  0  0  0  0
  -18.7486   14.5484  -21.2566 C   0  0  0  0  0  0  0  0  0  0  0  0
  -18.6957   13.7164  -20.2014 C   0  0  0  0  0  0  0  0  0  0  0  0
  -17.8967   12.5751  -20.3489 C   0  0  0  0  0  0  0  0  0  0  0  0
  -17.7968   11.7313  -19.2779 C   0  0  0  0  0  0  0  0  0  0  0  0
  -17.0013   10.6325  -19.3608 C   0  0  0  0  0  0  0  0  0  0  0  0
  -16.3225   10.4126  -20.5382 C   0  0  0  0  0  0  0  0  0  0  0  0
  -16.4160   11.2519  -21.6269 N   0  0  0  0  0  0  0  0  0  0  0  0
  -17.2003   12.3166  -21.5123 C   0  0  0  0  0  0  0  0  0  0  0  0
  -17.3106   13.2403  -22.5603 C   0  0  0  0  0  0  0  0  0  0  0  0
  -18.0721   14.3915  -22.5065 C   0  0  0  0  0  0  0  0  0  0  0  0
  -19.2361   16.8610  -20.4480 C   0  0  0  0  0  0  0  0  0  0  0  0
  -19.5180   15.7203  -21.1973 O   0  0  0  0  0  0  0  0  0  0  0  0
  -18.2003   15.2831  -23.4045 O   0  0  0  0  0  0  0  0  0  0  0  0
  -18.2613   16.2661  -24.2170 C   0  0  0  0  0  0  0  0  0  0  0  0
  -16.8638   16.9306  -24.4724 C   0  0  0  0  0  0  0  0  0  0  0  0
  -15.8398   15.7791  -24.5662 C   0  0  0  0  0  0  0  0  0  0  0  0
  -15.6672   15.3261  -25.8341 N   0  0  0  0  0  0  0  0  0  0  0  0
  -14.9344   15.5853  -26.9316 C   0  0  0  0  0  0  0  0  0  0  0  0
  -16.1384   15.6400  -28.0093 C   0  0  0  0  0  0  0  0  0  0  0  0
  -16.6434   14.2383  -27.6896 C   0  0  0  0  0  0  0  0  0  0  0  0
  -16.5013   14.1324  -26.2223 C   0  0  0  0  0  0  0  0  0  0  0  0
  -19.0000   10.9015  -17.4531 C   0  0  0  0  0  0  0  0  0  0  0  0
  -18.3770    9.7207  -17.5027 C   0  0  0  0  0  0  0  0  0  0  0  0
  -18.9352    8.6372  -16.7942 C   0  0  0  0  0  0  0  0  0  0  0  0
  -20.1202    8.8206  -16.0623 C   0  0  0  0  0  0  0  0  0  0  0  0
  -20.7544   10.0244  -16.0207 C   0  0  0  0  0  0  0  0  0  0  0  0
  -20.1574   11.0546  -16.7383 C   0  0  0  0  0  0  0  0  0  0  0  0
  -20.8179   12.2284  -16.6820 F   0  0  0  0  0  0  0  0  0  0  0  0
  -20.4668    7.6617  -15.3352 N   0  0  0  0  0  0  0  0  0  0  0  0
  -19.9330    7.5694  -13.9939 C   0  0  0  0  0  0  0  0  0  0  0  0
  -19.0941    8.4395  -13.6595 O   0  0  0  0  0  0  0  0  0  0  0  0
  -20.3898    6.5874  -13.1865 N   0  0  0  0  0  0  0  0  0  0  0  0
  -21.0638    6.9461  -15.7423 H   0  0  0  0  0  0  0  0  0  0  0  0
  -19.5778    7.0593  -12.2276 H   0  0  0  0  0  0  0  0  0  0  0  0
  -20.8468    5.5909  -12.3503 C   0  0  0  0  0  0  0  0  0  0  0  0
  -21.9513    4.7990  -12.4827 C   0  0  0  0  0  0  0  0  0  0  0  0
  -22.7968    4.9433  -13.5556 F   0  0  0  0  0  0  0  0  0  0  0  0
  -22.2930    3.8162  -11.5832 C   0  0  0  0  0  0  0  0  0  0  0  0
  -21.5251    3.5886  -10.4756 C   0  0  0  0  0  0  0  0  0  0  0  0
  -20.3862    4.3737  -10.3037 C   0  0  0  0  0  0  0  0  0  0  0  0
  -20.0655    5.3260  -11.2043 C   0  0  0  0  0  0  0  0  0  0  0  0
  -18.9386    6.1663  -10.9887 F   0  0  0  0  0  0  0  0  0  0  0  0
 12 13  1  0  0  0
 13  2  1  0  0  0
  2  3  2  0  0  0
  3  4  1  0  0  0
  4  5  2  0  0  0
  5  1  1  0  0  0
  1 23  1  0  0  0
 23 24  2  0  0  0
 24 25  1  0  0  0
 25 26  2  0  0  0
 26 30  1  0  0  0
 30 31  1  0  0  0
 31 32  2  0  0  0
 31 33  1  0  0  0
 33 36  1  0  0  0
 36 37  2  0  0  0
 37 38  1  0  0  0
 37 39  1  0  0  0
 39 40  2  0  0  0
 40 41  1  0  0  0
 41 42  2  0  0  0
 42 43  1  0  0  0
 26 27  1  0  0  0
 27 28  2  0  0  0
 28 29  1  0  0  0
  5  6  1  0  0  0
  6  7  2  0  0  0
  7  8  1  0  0  0
  8  9  2  0  0  0
  9 10  1  0  0  0
 10 11  2  0  0  0
 11 14  1  0  0  0
 14 15  1  0  0  0
 15 16  1  0  0  0
 16 17  1  0  0  0
 17 18  1  0  0  0
 18 19  1  0  0  0
 19 20  1  0  0  0
 20 21  1  0  0  0
 21 22  1  0  0  0
 11  2  1  0  0  0
 22 18  1  0  0  0
  9  4  1  0  0  0
 28 23  1  0  0  0
 42 36  1  0  0  0
 30 34  1  0  0  0
 33 35  1  0  0  0
M  END
> <minimizedAffinity>
-8.66568

> <CNNscore>
0.2042001486

> <CNNaffinity>
7.0444250107

> <CNN_VS>
1.4384726286

> <CNNaffinity_variance>
0.0812295303

$$$$
[H]c1nc2c([H])c(OC([H])([H])C([H])([H])C([H])([H])N3C([H])([H])C([H])([H])C([H])([H])C3([H])[H])c(OC([H])([H])[H])c([H])c2c(Oc2c([H])c([H])c(N([H])C(=O)N([H])c3c(F)c([H])c([H])c([H])c3F)c([H])c2F)c1[H]


 43 47  0  0  0  0  0  0  0  0999 V2000
  -19.4170   11.5684  -17.9474 O   0  0  0  0  0  0  0  0  0  0  0  0
  -19.2960   14.4025  -20.7939 C   0  0  0  0  0  0  0  0  0  0  0  0
  -19.3539   13.4526  -19.8438 C   0  0  0  0  0  0  0  0  0  0  0  0
  -18.4202   12.4132  -19.9459 C   0  0  0  0  0  0  0  0  0  0  0  0
  -18.4340   11.4538  -18.9720 C   0  0  0  0  0  0  0  0  0  0  0  0
  -17.5208   10.4479  -19.0075 C   0  0  0  0  0  0  0  0  0  0  0  0
  -16.6095   10.4377  -20.0394 C   0  0  0  0  0  0  0  0  0  0  0  0
  -16.5855   11.3953  -21.0297 N   0  0  0  0  0  0  0  0  0  0  0  0
  -17.4902   12.3645  -20.9647 C   0  0  0  0  0  0  0  0  0  0  0  0
  -17.4997   13.3991  -21.9098 C   0  0  0  0  0  0  0  0  0  0  0  0
  -18.3800   14.4634  -21.8902 C   0  0  0  0  0  0  0  0  0  0  0  0
  -21.3132   15.6151  -19.9573 C   0  0  0  0  0  0  0  0  0  0  0  0
  -20.1873   15.4858  -20.7684 O   0  0  0  0  0  0  0  0  0  0  0  0
  -18.4321   15.4459  -22.6963 O   0  0  0  0  0  0  0  0  0  0  0  0
  -18.4508   16.3394  -23.6081 C   0  0  0  0  0  0  0  0  0  0  0  0
  -17.2248   17.3144  -23.5283 C   0  0  0  0  0  0  0  0  0  0  0  0
  -16.5892   17.3377  -24.9349 C   0  0  0  0  0  0  0  0  0  0  0  0
  -15.9870   16.1663  -25.2632 N   0  0  0  0  0  0  0  0  0  0  0  0
  -15.9662   15.2598  -26.2565 C   0  0  0  0  0  0  0  0  0  0  0  0
  -16.1841   13.9295  -25.3637 C   0  0  0  0  0  0  0  0  0  0  0  0
  -14.9700   14.1839  -24.4788 C   0  0  0  0  0  0  0  0  0  0  0  0
  -14.9791   15.6471  -24.2703 C   0  0  0  0  0  0  0  0  0  0  0  0
  -19.4055   10.4403  -17.1024 C   0  0  0  0  0  0  0  0  0  0  0  0
  -18.5048    9.4571  -17.1856 C   0  0  0  0  0  0  0  0  0  0  0  0
  -18.5939    8.3865  -16.2727 C   0  0  0  0  0  0  0  0  0  0  0  0
  -19.6160    8.3768  -15.3090 C   0  0  0  0  0  0  0  0  0  0  0  0
  -20.5351    9.3780  -15.2332 C   0  0  0  0  0  0  0  0  0  0  0  0
  -20.3966   10.4058  -16.1589 C   0  0  0  0  0  0  0  0  0  0  0  0
  -21.3294   11.3741  -16.0600 F   0  0  0  0  0  0  0  0  0  0  0  0
  -19.4816    7.2892  -14.4196 N   0  0  0  0  0  0  0  0  0  0  0  0
  -20.1514    6.0663  -14.8049 C   0  0  0  0  0  0  0  0  0  0  0  0
  -20.9105    6.1287  -15.8012 O   0  0  0  0  0  0  0  0  0  0  0  0
  -19.8951    4.9432  -14.0993 N   0  0  0  0  0  0  0  0  0  0  0  0
  -18.9361    7.3744  -13.5655 H   0  0  0  0  0  0  0  0  0  0  0  0
  -20.7359    4.2909  -14.9174 H   0  0  0  0  0  0  0  0  0  0  0  0
  -19.6432    3.7885  -13.3891 C   0  0  0  0  0  0  0  0  0  0  0  0
  -20.3953    3.2001  -12.4131 C   0  0  0  0  0  0  0  0  0  0  0  0
  -21.5781    3.7631  -11.9998 F   0  0  0  0  0  0  0  0  0  0  0  0
  -20.0441    2.0262  -11.7882 C   0  0  0  0  0  0  0  0  0  0  0  0
  -18.8846    1.3819  -12.1178 C   0  0  0  0  0  0  0  0  0  0  0  0
  -18.0883    1.9479  -13.1120 C   0  0  0  0  0  0  0  0  0  0  0  0
  -18.4577    3.0955  -13.7181 C   0  0  0  0  0  0  0  0  0  0  0  0
  -17.6086    3.7012  -14.6850 F   0  0  0  0  0  0  0  0  0  0  0  0
 12 13  1  0  0  0
 13  2  1  0  0  0
  2  3  2  0  0  0
  3  4  1  0  0  0
  4  5  2  0  0  0
  5  1  1  0  0  0
  1 23  1  0  0  0
 23 24  2  0  0  0
 24 25  1  0  0  0
 25 26  2  0  0  0
 26 30  1  0  0  0
 30 31  1  0  0  0
 31 32  2  0  0  0
 31 33  1  0  0  0
 33 36  1  0  0  0
 36 37  2  0  0  0
 37 38  1  0  0  0
 37 39  1  0  0  0
 39 40  2  0  0  0
 40 41  1  0  0  0
 41 42  2  0  0  0
 42 43  1  0  0  0
 26 27  1  0  0  0
 27 28  2  0  0  0
 28 29  1  0  0  0
  5  6  1  0  0  0
  6  7  2  0  0  0
  7  8  1  0  0  0
  8  9  2  0  0  0
  9 10  1  0  0  0
 10 11  2  0  0  0
 11 14  1  0  0  0
 14 15  1  0  0  0
 15 16  1  0  0  0
 16 17  1  0  0  0
 17 18  1  0  0  0
 18 19  1  0  0  0
 19 20  1  0  0  0
 20 21  1  0  0  0
 21 22  1  0  0  0
 11  2  1  0  0  0
 22 18  1  0  0  0
  9  4  1  0  0  0
 28 23  1  0  0  0
 42 36  1  0  0  0
 30 34  1  0  0  0
 33 35  1  0  0  0
M  END
> <minimizedAffinity>
-8.64354

> <CNNscore>
0.2011424005

> <CNNaffinity>
7.0605406761

> <CNN_VS>
1.4201741219

> <CNNaffinity_variance>
0.0513871722

$$$$
[H]c1nc2c([H])c(OC([H])([H])C([H])([H])C([H])([H])N3C([H])([H])C([H])([H])C([H])([H])C3([H])[H])c(OC([H])([H])[H])c([H])c2c(Oc2c([H])c([H])c(N([H])C(=O)N([H])c3c(F)c([H])c([H])c([H])c3F)c([H])c2F)c1[H]


 43 47  0  0  0  0  0  0  0  0999 V2000
  -20.3613   12.0615  -17.0898 O   0  0  0  0  0  0  0  0  0  0  0  0
  -20.6890   11.2465  -13.1683 C   0  0  0  0  0  0  0  0  0  0  0  0
  -20.5739   11.5356  -14.4765 C   0  0  0  0  0  0  0  0  0  0  0  0
  -19.8775   10.6060  -15.2599 C   0  0  0  0  0  0  0  0  0  0  0  0
  -19.7775   10.8580  -16.5998 C   0  0  0  0  0  0  0  0  0  0  0  0
  -19.1456    9.9645  -17.4057 C   0  0  0  0  0  0  0  0  0  0  0  0
  -18.6240    8.8287  -16.8284 C   0  0  0  0  0  0  0  0  0  0  0  0
  -18.7139    8.5627  -15.4795 N   0  0  0  0  0  0  0  0  0  0  0  0
  -19.3384    9.4552  -14.7209 C   0  0  0  0  0  0  0  0  0  0  0  0
  -19.5096    9.2327  -13.3480 C   0  0  0  0  0  0  0  0  0  0  0  0
  -20.1804   10.0904  -12.4980 C   0  0  0  0  0  0  0  0  0  0  0  0
  -22.6638   12.6173  -12.4898 C   0  0  0  0  0  0  0  0  0  0  0  0
  -21.3762   12.1163  -12.3081 O   0  0  0  0  0  0  0  0  0  0  0  0
  -20.3945    9.9432  -11.2529 O   0  0  0  0  0  0  0  0  0  0  0  0
  -20.5065    9.8913   -9.9821 C   0  0  0  0  0  0  0  0  0  0  0  0
  -19.5385   10.8820   -9.2462 C   0  0  0  0  0  0  0  0  0  0  0  0
  -18.1040   10.4686   -9.6393 C   0  0  0  0  0  0  0  0  0  0  0  0
  -17.8075    9.1903   -9.2920 N   0  0  0  0  0  0  0  0  0  0  0  0
  -17.7895    8.3930   -8.2091 C   0  0  0  0  0  0  0  0  0  0  0  0
  -16.2908    7.8089   -8.3735 C   0  0  0  0  0  0  0  0  0  0  0  0
  -16.5335    7.2606   -9.7743 C   0  0  0  0  0  0  0  0  0  0  0  0
  -17.3770    8.2882  -10.4200 C   0  0  0  0  0  0  0  0  0  0  0  0
  -19.5436   12.6624  -18.0681 C   0  0  0  0  0  0  0  0  0  0  0  0
  -18.2369   12.4171  -18.1992 C   0  0  0  0  0  0  0  0  0  0  0  0
  -17.5307   13.0740  -19.2275 C   0  0  0  0  0  0  0  0  0  0  0  0
  -18.2081   13.9620  -20.0796 C   0  0  0  0  0  0  0  0  0  0  0  0
  -19.5384   14.2132  -19.9372 C   0  0  0  0  0  0  0  0  0  0  0  0
  -20.1809   13.5368  -18.9066 C   0  0  0  0  0  0  0  0  0  0  0  0
  -21.4943   13.8175  -18.7897 F   0  0  0  0  0  0  0  0  0  0  0  0
  -17.3677   14.4378  -21.1088 N   0  0  0  0  0  0  0  0  0  0  0  0
  -17.1909   13.5578  -22.2431 C   0  0  0  0  0  0  0  0  0  0  0  0
  -17.6670   12.4022  -22.1402 O   0  0  0  0  0  0  0  0  0  0  0  0
  -16.5637   14.0391  -23.3386 N   0  0  0  0  0  0  0  0  0  0  0  0
  -16.9256   15.3514  -21.0446 H   0  0  0  0  0  0  0  0  0  0  0  0
  -16.7485   12.8414  -23.9157 H   0  0  0  0  0  0  0  0  0  0  0  0
  -15.9261   14.5162  -24.4642 C   0  0  0  0  0  0  0  0  0  0  0  0
  -14.6027   14.7992  -24.6457 C   0  0  0  0  0  0  0  0  0  0  0  0
  -13.7000   14.6313  -23.6240 F   0  0  0  0  0  0  0  0  0  0  0  0
  -14.0798   15.2547  -25.8335 C   0  0  0  0  0  0  0  0  0  0  0  0
  -14.8881   15.4623  -26.9159 C   0  0  0  0  0  0  0  0  0  0  0  0
  -16.2463   15.1830  -26.7740 C   0  0  0  0  0  0  0  0  0  0  0  0
  -16.7356   14.7279  -25.6017 C   0  0  0  0  0  0  0  0  0  0  0  0
  -18.1318   14.5073  -25.4447 F   0  0  0  0  0  0  0  0  0  0  0  0
 12 13  1  0  0  0
 13  2  1  0  0  0
  2  3  2  0  0  0
  3  4  1  0  0  0
  4  5  2  0  0  0
  5  1  1  0  0  0
  1 23  1  0  0  0
 23 24  2  0  0  0
 24 25  1  0  0  0
 25 26  2  0  0  0
 26 30  1  0  0  0
 30 31  1  0  0  0
 31 32  2  0  0  0
 31 33  1  0  0  0
 33 36  1  0  0  0
 36 37  2  0  0  0
 37 38  1  0  0  0
 37 39  1  0  0  0
 39 40  2  0  0  0
 40 41  1  0  0  0
 41 42  2  0  0  0
 42 43  1  0  0  0
 26 27  1  0  0  0
 27 28  2  0  0  0
 28 29  1  0  0  0
  5  6  1  0  0  0
  6  7  2  0  0  0
  7  8  1  0  0  0
  8  9  2  0  0  0
  9 10  1  0  0  0
 10 11  2  0  0  0
 11 14  1  0  0  0
 14 15  1  0  0  0
 15 16  1  0  0  0
 16 17  1  0  0  0
 17 18  1  0  0  0
 18 19  1  0  0  0
 19 20  1  0  0  0
 20 21  1  0  0  0
 21 22  1  0  0  0
 11  2  1  0  0  0
 22 18  1  0  0  0
  9  4  1  0  0  0
 28 23  1  0  0  0
 42 36  1  0  0  0
 30 34  1  0  0  0
 33 35  1  0  0  0
M  END
> <minimizedAffinity>
-9.51402

> <CNNscore>
0.1997244209

> <CNNaffinity>
6.6290941238

> <CNN_VS>
1.3239920139

> <CNNaffinity_variance>
0.2502554059

$$$$
[H]c1nc2c([H])c(OC([H])([H])C([H])([H])C([H])([H])N3C([H])([H])C([H])([H])C([H])([H])C3([H])[H])c(OC([H])([H])[H])c([H])c2c(Oc2c([H])c([H])c(N([H])C(=O)N([H])c3c(F)c([H])c([H])c([H])c3F)c([H])c2F)c1[H]


 43 47  0  0  0  0  0  0  0  0999 V2000
  -19.3312   13.6037  -17.1122 O   0  0  0  0  0  0  0  0  0  0  0  0
  -20.4270    9.9584  -15.8236 C   0  0  0  0  0  0  0  0  0  0  0  0
  -20.0584   11.1834  -16.2380 C   0  0  0  0  0  0  0  0  0  0  0  0
  -19.0707   11.2332  -17.2303 C   0  0  0  0  0  0  0  0  0  0  0  0
  -18.7038   12.4653  -17.6952 C   0  0  0  0  0  0  0  0  0  0  0  0
  -17.7784   12.5610  -18.6859 C   0  0  0  0  0  0  0  0  0  0  0  0
  -17.2410   11.3953  -19.1839 C   0  0  0  0  0  0  0  0  0  0  0  0
  -17.5981   10.1469  -18.7232 N   0  0  0  0  0  0  0  0  0  0  0  0
  -18.5055   10.0888  -17.7561 C   0  0  0  0  0  0  0  0  0  0  0  0
  -18.9527    8.8539  -17.2677 C   0  0  0  0  0  0  0  0  0  0  0  0
  -19.9205    8.7064  -16.2931 C   0  0  0  0  0  0  0  0  0  0  0  0
  -21.8160   10.7747  -13.9148 C   0  0  0  0  0  0  0  0  0  0  0  0
  -21.4146    9.8110  -14.8379 O   0  0  0  0  0  0  0  0  0  0  0  0
  -20.3908    7.6232  -15.8203 O   0  0  0  0  0  0  0  0  0  0  0  0
  -20.7464    6.5302  -15.2644 C   0  0  0  0  0  0  0  0  0  0  0  0
  -22.1272    6.0031  -15.7891 C   0  0  0  0  0  0  0  0  0  0  0  0
  -21.8255    4.7504  -16.6392 C   0  0  0  0  0  0  0  0  0  0  0  0
  -21.7522    3.6141  -15.9002 N   0  0  0  0  0  0  0  0  0  0  0  0
  -22.3877    2.9998  -14.8865 C   0  0  0  0  0  0  0  0  0  0  0  0
  -21.1010    2.6888  -13.9581 C   0  0  0  0  0  0  0  0  0  0  0  0
  -20.3644    1.9076  -15.0392 C   0  0  0  0  0  0  0  0  0  0  0  0
  -20.6541    2.6546  -16.2812 C   0  0  0  0  0  0  0  0  0  0  0  0
  -19.8699   14.4507  -18.1017 C   0  0  0  0  0  0  0  0  0  0  0  0
  -20.8475   14.0906  -18.9380 C   0  0  0  0  0  0  0  0  0  0  0  0
  -21.3086   15.0353  -19.8775 C   0  0  0  0  0  0  0  0  0  0  0  0
  -20.7359   16.3175  -19.9138 C   0  0  0  0  0  0  0  0  0  0  0  0
  -19.7353   16.6768  -19.0636 C   0  0  0  0  0  0  0  0  0  0  0  0
  -19.3227   15.7040  -18.1602 C   0  0  0  0  0  0  0  0  0  0  0  0
  -18.3245   16.0919  -17.3413 F   0  0  0  0  0  0  0  0  0  0  0  0
  -21.3949   17.1552  -20.8389 N   0  0  0  0  0  0  0  0  0  0  0  0
  -20.7344   17.3394  -22.1126 C   0  0  0  0  0  0  0  0  0  0  0  0
  -19.5758   16.8716  -22.2201 O   0  0  0  0  0  0  0  0  0  0  0  0
  -21.4093   17.9638  -23.1024 N   0  0  0  0  0  0  0  0  0  0  0  0
  -22.2852   17.5906  -20.6106 H   0  0  0  0  0  0  0  0  0  0  0  0
  -20.3336   17.7883  -23.8858 H   0  0  0  0  0  0  0  0  0  0  0  0
  -22.0854   18.5988  -24.1225 C   0  0  0  0  0  0  0  0  0  0  0  0
  -23.1226   18.1379  -24.8817 C   0  0  0  0  0  0  0  0  0  0  0  0
  -23.6286   16.8753  -24.6905 F   0  0  0  0  0  0  0  0  0  0  0  0
  -23.7323   18.8812  -25.8653 C   0  0  0  0  0  0  0  0  0  0  0  0
  -23.3067   20.1498  -26.1441 C   0  0  0  0  0  0  0  0  0  0  0  0
  -22.2513   20.6600  -25.3899 C   0  0  0  0  0  0  0  0  0  0  0  0
  -21.6744   19.9158  -24.4234 C   0  0  0  0  0  0  0  0  0  0  0  0
  -20.5563   20.4186  -23.7025 F   0  0  0  0  0  0  0  0  0  0  0  0
 12 13  1  0  0  0
 13  2  1  0  0  0
  2  3  2  0  0  0
  3  4  1  0  0  0
  4  5  2  0  0  0
  5  1  1  0  0  0
  1 23  1  0  0  0
 23 24  2  0  0  0
 24 25  1  0  0  0
 25 26  2  0  0  0
 26 30  1  0  0  0
 30 31  1  0  0  0
 31 32  2  0  0  0
 31 33  1  0  0  0
 33 36  1  0  0  0
 36 37  2  0  0  0
 37 38  1  0  0  0
 37 39  1  0  0  0
 39 40  2  0  0  0
 40 41  1  0  0  0
 41 42  2  0  0  0
 42 43  1  0  0  0
 26 27  1  0  0  0
 27 28  2  0  0  0
 28 29  1  0  0  0
  5  6  1  0  0  0
  6  7  2  0  0  0
  7  8  1  0  0  0
  8  9  2  0  0  0
  9 10  1  0  0  0
 10 11  2  0  0  0
 11 14  1  0  0  0
 14 15  1  0  0  0
 15 16  1  0  0  0
 16 17  1  0  0  0
 17 18  1  0  0  0
 18 19  1  0  0  0
 19 20  1  0  0  0
 20 21  1  0  0  0
 21 22  1  0  0  0
 11  2  1  0  0  0
 22 18  1  0  0  0
  9  4  1  0  0  0
 28 23  1  0  0  0
 42 36  1  0  0  0
 30 34  1  0  0  0
 33 35  1  0  0  0
M  END
> <minimizedAffinity>
-7.62911

> <CNNscore>
0.1895101964

> <CNNaffinity>
6.7694292068

> <CNN_VS>
1.2828758955

> <CNNaffinity_variance>
0.0643641502

$$$$
[H]c1nc2c([H])c(OC([H])([H])C([H])([H])C([H])([H])N3C([H])([H])C([H])([H])C([H])([H])C3([H])[H])c(OC([H])([H])[H])c([H])c2c(Oc2c([H])c([H])c(N([H])C(=O)N([H])c3c(F)c([H])c([H])c([H])c3F)c([H])c2F)c1[H]


 43 47  0  0  0  0  0  0  0  0999 V2000
  -20.3849   11.9312  -17.1326 O   0  0  0  0  0  0  0  0  0  0  0  0
  -20.7211   11.3082  -13.1768 C   0  0  0  0  0  0  0  0  0  0  0  0
  -20.6038   11.5334  -14.4974 C   0  0  0  0  0  0  0  0  0  0  0  0
  -19.8672   10.5903  -15.2260 C   0  0  0  0  0  0  0  0  0  0  0  0
  -19.7634   10.7763  -16.5764 C   0  0  0  0  0  0  0  0  0  0  0  0
  -19.0924    9.8658  -17.3299 C   0  0  0  0  0  0  0  0  0  0  0  0
  -18.5364    8.7808  -16.6905 C   0  0  0  0  0  0  0  0  0  0  0  0
  -18.6297    8.5817  -15.3303 N   0  0  0  0  0  0  0  0  0  0  0  0
  -19.2928    9.4890  -14.6239 C   0  0  0  0  0  0  0  0  0  0  0  0
  -19.4691    9.3316  -13.2427 C   0  0  0  0  0  0  0  0  0  0  0  0
  -20.1782   10.2073  -12.4436 C   0  0  0  0  0  0  0  0  0  0  0  0
  -22.5255   12.9852  -12.7631 C   0  0  0  0  0  0  0  0  0  0  0  0
  -21.4470   12.1959  -12.3683 O   0  0  0  0  0  0  0  0  0  0  0  0
  -20.3989   10.1169  -11.1941 O   0  0  0  0  0  0  0  0  0  0  0  0
  -20.6469    9.8883   -9.9628 C   0  0  0  0  0  0  0  0  0  0  0  0
  -21.7235   10.8622   -9.3691 C   0  0  0  0  0  0  0  0  0  0  0  0
  -20.9526   12.0605   -8.7751 C   0  0  0  0  0  0  0  0  0  0  0  0
  -21.7405   13.1461   -8.5668 N   0  0  0  0  0  0  0  0  0  0  0  0
  -23.0418   13.4816   -8.5136 C   0  0  0  0  0  0  0  0  0  0  0  0
  -22.9973   14.7505   -9.5147 C   0  0  0  0  0  0  0  0  0  0  0  0
  -21.9392   15.4954   -8.7101 C   0  0  0  0  0  0  0  0  0  0  0  0
  -21.0164   14.4320   -8.2608 C   0  0  0  0  0  0  0  0  0  0  0  0
  -19.5592   12.5370  -18.1011 C   0  0  0  0  0  0  0  0  0  0  0  0
  -18.2647   12.2483  -18.2614 C   0  0  0  0  0  0  0  0  0  0  0  0
  -17.5489   12.9161  -19.2759 C   0  0  0  0  0  0  0  0  0  0  0  0
  -18.2043   13.8597  -20.0844 C   0  0  0  0  0  0  0  0  0  0  0  0
  -19.5220   14.1548  -19.9122 C   0  0  0  0  0  0  0  0  0  0  0  0
  -20.1748   13.4650  -18.8970 C   0  0  0  0  0  0  0  0  0  0  0  0
  -21.4749   13.7899  -18.7495 F   0  0  0  0  0  0  0  0  0  0  0  0
  -17.3612   14.3417  -21.1085 N   0  0  0  0  0  0  0  0  0  0  0  0
  -17.2215   13.4910  -22.2701 C   0  0  0  0  0  0  0  0  0  0  0  0
  -17.7295   12.3468  -22.1957 O   0  0  0  0  0  0  0  0  0  0  0  0
  -16.5921   13.9866  -23.3579 N   0  0  0  0  0  0  0  0  0  0  0  0
  -16.8924   15.2401  -21.0226 H   0  0  0  0  0  0  0  0  0  0  0  0
  -16.8171   12.8122  -23.9678 H   0  0  0  0  0  0  0  0  0  0  0  0
  -15.9528   14.4785  -24.4761 C   0  0  0  0  0  0  0  0  0  0  0  0
  -14.6367   14.8042  -24.6383 C   0  0  0  0  0  0  0  0  0  0  0  0
  -13.7454   14.6717  -23.6016 F   0  0  0  0  0  0  0  0  0  0  0  0
  -14.1102   15.2703  -25.8204 C   0  0  0  0  0  0  0  0  0  0  0  0
  -14.9076   15.4452  -26.9167 C   0  0  0  0  0  0  0  0  0  0  0  0
  -16.2579   15.1218  -26.7946 C   0  0  0  0  0  0  0  0  0  0  0  0
  -16.7506   14.6571  -25.6274 C   0  0  0  0  0  0  0  0  0  0  0  0
  -18.1410   14.3912  -25.4912 F   0  0  0  0  0  0  0  0  0  0  0  0
 12 13  1  0  0  0
 13  2  1  0  0  0
  2  3  2  0  0  0
  3  4  1  0  0  0
  4  5  2  0  0  0
  5  1  1  0  0  0
  1 23  1  0  0  0
 23 24  2  0  0  0
 24 25  1  0  0  0
 25 26  2  0  0  0
 26 30  1  0  0  0
 30 31  1  0  0  0
 31 32  2  0  0  0
 31 33  1  0  0  0
 33 36  1  0  0  0
 36 37  2  0  0  0
 37 38  1  0  0  0
 37 39  1  0  0  0
 39 40  2  0  0  0
 40 41  1  0  0  0
 41 42  2  0  0  0
 42 43  1  0  0  0
 26 27  1  0  0  0
 27 28  2  0  0  0
 28 29  1  0  0  0
  5  6  1  0  0  0
  6  7  2  0  0  0
  7  8  1  0  0  0
  8  9  2  0  0  0
  9 10  1  0  0  0
 10 11  2  0  0  0
 11 14  1  0  0  0
 14 15  1  0  0  0
 15 16  1  0  0  0
 16 17  1  0  0  0
 17 18  1  0  0  0
 18 19  1  0  0  0
 19 20  1  0  0  0
 20 21  1  0  0  0
 21 22  1  0  0  0
 11  2  1  0  0  0
 22 18  1  0  0  0
  9  4  1  0  0  0
 28 23  1  0  0  0
 42 36  1  0  0  0
 30 34  1  0  0  0
 33 35  1  0  0  0
M  END
> <minimizedAffinity>
-8.68304

> <CNNscore>
0.1816194803

> <CNNaffinity>
6.5452270508

> <CNN_VS>
1.1887407303

> <CNNaffinity_variance>
0.2376003712

$$$$
[H]c1nc2c([H])c(OC([H])([H])C([H])([H])C([H])([H])N3C([H])([H])C([H])([H])C([H])([H])C3([H])[H])c(OC([H])([H])[H])c([H])c2c(Oc2c([H])c([H])c(N([H])C(=O)N([H])c3c(F)c([H])c([H])c([H])c3F)c([H])c2F)c1[H]


 43 47  0  0  0  0  0  0  0  0999 V2000
  -18.7816   13.7667  -17.6896 O   0  0  0  0  0  0  0  0  0  0  0  0
  -19.8343   10.2438  -16.0678 C   0  0  0  0  0  0  0  0  0  0  0  0
  -19.4780   11.4287  -16.5944 C   0  0  0  0  0  0  0  0  0  0  0  0
  -18.6130   11.3850  -17.6956 C   0  0  0  0  0  0  0  0  0  0  0  0
  -18.2642   12.5743  -18.2725 C   0  0  0  0  0  0  0  0  0  0  0  0
  -17.4594   12.5788  -19.3676 C   0  0  0  0  0  0  0  0  0  0  0  0
  -17.0222   11.3674  -19.8542 C   0  0  0  0  0  0  0  0  0  0  0  0
  -17.3624   10.1612  -19.2816 N   0  0  0  0  0  0  0  0  0  0  0  0
  -18.1508   10.1921  -18.2142 C   0  0  0  0  0  0  0  0  0  0  0  0
  -18.5767    9.0045  -17.6045 C   0  0  0  0  0  0  0  0  0  0  0  0
  -19.4271    8.9489  -16.5173 C   0  0  0  0  0  0  0  0  0  0  0  0
  -20.4682   10.7153  -13.6982 C   0  0  0  0  0  0  0  0  0  0  0  0
  -20.7030   10.1897  -14.9673 O   0  0  0  0  0  0  0  0  0  0  0  0
  -19.8729    7.9128  -15.9295 O   0  0  0  0  0  0  0  0  0  0  0  0
  -20.3709    6.9607  -15.2398 C   0  0  0  0  0  0  0  0  0  0  0  0
  -21.9082    6.7715  -15.4866 C   0  0  0  0  0  0  0  0  0  0  0  0
  -22.6180    7.1894  -14.1810 C   0  0  0  0  0  0  0  0  0  0  0  0
  -23.5656    8.1417  -14.3750 N   0  0  0  0  0  0  0  0  0  0  0  0
  -24.2313    8.7462  -15.3751 C   0  0  0  0  0  0  0  0  0  0  0  0
  -23.9771   10.2802  -14.9316 C   0  0  0  0  0  0  0  0  0  0  0  0
  -24.5888   10.1032  -13.5474 C   0  0  0  0  0  0  0  0  0  0  0  0
  -24.1380    8.7604  -13.1256 C   0  0  0  0  0  0  0  0  0  0  0  0
  -19.1699   14.6908  -18.6806 C   0  0  0  0  0  0  0  0  0  0  0  0
  -18.3661   15.6387  -19.1705 C   0  0  0  0  0  0  0  0  0  0  0  0
  -18.8705   16.4957  -20.1699 C   0  0  0  0  0  0  0  0  0  0  0  0
  -20.1912   16.3366  -20.6215 C   0  0  0  0  0  0  0  0  0  0  0  0
  -21.0081   15.3732  -20.1139 C   0  0  0  0  0  0  0  0  0  0  0  0
  -20.4556   14.5591  -19.1317 C   0  0  0  0  0  0  0  0  0  0  0  0
  -21.2959   13.6235  -18.6460 F   0  0  0  0  0  0  0  0  0  0  0  0
  -20.4827   17.2076  -21.6931 N   0  0  0  0  0  0  0  0  0  0  0  0
  -20.9668   18.5216  -21.3308 C   0  0  0  0  0  0  0  0  0  0  0  0
  -21.2298   18.7117  -20.1194 O   0  0  0  0  0  0  0  0  0  0  0  0
  -21.0712   19.4578  -22.2991 N   0  0  0  0  0  0  0  0  0  0  0  0
  -20.3478   16.9155  -22.6579 H   0  0  0  0  0  0  0  0  0  0  0  0
  -21.5076   20.3141  -21.3620 H   0  0  0  0  0  0  0  0  0  0  0  0
  -21.1826   20.4242  -23.2762 C   0  0  0  0  0  0  0  0  0  0  0  0
  -20.7939   21.7326  -23.2374 C   0  0  0  0  0  0  0  0  0  0  0  0
  -20.2124   22.2614  -22.1108 F   0  0  0  0  0  0  0  0  0  0  0  0
  -20.9415   22.6001  -24.2945 C   0  0  0  0  0  0  0  0  0  0  0  0
  -21.5123   22.1818  -25.4638 C   0  0  0  0  0  0  0  0  0  0  0  0
  -21.9210   20.8517  -25.5466 C   0  0  0  0  0  0  0  0  0  0  0  0
  -21.7576   20.0161  -24.4997 C   0  0  0  0  0  0  0  0  0  0  0  0
  -22.2359   18.6786  -24.5684 F   0  0  0  0  0  0  0  0  0  0  0  0
 12 13  1  0  0  0
 13  2  1  0  0  0
  2  3  2  0  0  0
  3  4  1  0  0  0
  4  5  2  0  0  0
  5  1  1  0  0  0
  1 23  1  0  0  0
 23 24  2  0  0  0
 24 25  1  0  0  0
 25 26  2  0  0  0
 26 30  1  0  0  0
 30 31  1  0  0  0
 31 32  2  0  0  0
 31 33  1  0  0  0
 33 36  1  0  0  0
 36 37  2  0  0  0
 37 38  1  0  0  0
 37 39  1  0  0  0
 39 40  2  0  0  0
 40 41  1  0  0  0
 41 42  2  0  0  0
 42 43  1  0  0  0
 26 27  1  0  0  0
 27 28  2  0  0  0
 28 29  1  0  0  0
  5  6  1  0  0  0
  6  7  2  0  0  0
  7  8  1  0  0  0
  8  9  2  0  0  0
  9 10  1  0  0  0
 10 11  2  0  0  0
 11 14  1  0  0  0
 14 15  1  0  0  0
 15 16  1  0  0  0
 16 17  1  0  0  0
 17 18  1  0  0  0
 18 19  1  0  0  0
 19 20  1  0  0  0
 20 21  1  0  0  0
 21 22  1  0  0  0
 11  2  1  0  0  0
 22 18  1  0  0  0
  9  4  1  0  0  0
 28 23  1  0  0  0
 42 36  1  0  0  0
 30 34  1  0  0  0
 33 35  1  0  0  0
M  END
> <minimizedAffinity>
-7.15969

> <CNNscore>
0.1457528025

> <CNNaffinity>
6.7555913925

> <CNN_VS>
0.9846463799

> <CNNaffinity_variance>
0.0429245867

$$$$
[H]c1nc2c([H])c(OC([H])([H])C([H])([H])C([H])([H])N3C([H])([H])C([H])([H])C([H])([H])C3([H])[H])c(OC([H])([H])[H])c([H])c2c(Oc2c([H])c([H])c(N([H])C(=O)N([H])c3c(F)c([H])c([H])c([H])c3F)c([H])c2F)c1[H]


 43 47  0  0  0  0  0  0  0  0999 V2000
  -17.6578   11.9325  -17.6648 O   0  0  0  0  0  0  0  0  0  0  0  0
  -18.2300   14.8178  -20.4030 C   0  0  0  0  0  0  0  0  0  0  0  0
  -18.0536   13.8570  -19.4788 C   0  0  0  0  0  0  0  0  0  0  0  0
  -17.7457   12.5784  -19.9618 C   0  0  0  0  0  0  0  0  0  0  0  0
  -17.5256   11.5917  -19.0417 C   0  0  0  0  0  0  0  0  0  0  0  0
  -17.1847   10.3451  -19.4625 C   0  0  0  0  0  0  0  0  0  0  0  0
  -17.0765   10.1269  -20.8175 C   0  0  0  0  0  0  0  0  0  0  0  0
  -17.2986   11.1102  -21.7567 N   0  0  0  0  0  0  0  0  0  0  0  0
  -17.6286   12.3166  -21.3121 C   0  0  0  0  0  0  0  0  0  0  0  0
  -17.8254   13.3790  -22.2044 C   0  0  0  0  0  0  0  0  0  0  0  0
  -18.1310   14.6707  -21.8218 C   0  0  0  0  0  0  0  0  0  0  0  0
  -19.7099   16.5625  -19.4004 C   0  0  0  0  0  0  0  0  0  0  0  0
  -18.5344   16.1303  -20.0117 O   0  0  0  0  0  0  0  0  0  0  0  0
  -18.2992   15.6853  -22.5702 O   0  0  0  0  0  0  0  0  0  0  0  0
  -18.3621   16.7650  -23.2488 C   0  0  0  0  0  0  0  0  0  0  0  0
  -16.9700   17.4729  -23.3942 C   0  0  0  0  0  0  0  0  0  0  0  0
  -16.5859   17.3855  -24.8868 C   0  0  0  0  0  0  0  0  0  0  0  0
  -15.9786   16.2152  -25.2095 N   0  0  0  0  0  0  0  0  0  0  0  0
  -15.9134   15.3312  -26.2210 C   0  0  0  0  0  0  0  0  0  0  0  0
  -16.1923   13.9836  -25.3723 C   0  0  0  0  0  0  0  0  0  0  0  0
  -15.0250   14.2043  -24.4181 C   0  0  0  0  0  0  0  0  0  0  0  0
  -15.0308   15.6623  -24.1764 C   0  0  0  0  0  0  0  0  0  0  0  0
  -18.9307   11.5795  -17.1730 C   0  0  0  0  0  0  0  0  0  0  0  0
  -19.9525   12.4341  -17.0705 C   0  0  0  0  0  0  0  0  0  0  0  0
  -21.1813   11.9542  -16.5731 C   0  0  0  0  0  0  0  0  0  0  0  0
  -21.3019   10.6053  -16.1997 C   0  0  0  0  0  0  0  0  0  0  0  0
  -20.2554    9.7405  -16.3001 C   0  0  0  0  0  0  0  0  0  0  0  0
  -19.0702   10.2708  -16.7967 C   0  0  0  0  0  0  0  0  0  0  0  0
  -18.0539    9.3883  -16.8730 F   0  0  0  0  0  0  0  0  0  0  0  0
  -22.6258   10.2845  -15.8307 N   0  0  0  0  0  0  0  0  0  0  0  0
  -22.9618   10.4771  -14.4369 C   0  0  0  0  0  0  0  0  0  0  0  0
  -22.0162   10.7578  -13.6623 O   0  0  0  0  0  0  0  0  0  0  0  0
  -24.2576   10.3779  -14.0683 N   0  0  0  0  0  0  0  0  0  0  0  0
  -23.2945    9.9457  -16.5180 H   0  0  0  0  0  0  0  0  0  0  0  0
  -23.8748   10.6527  -12.8115 H   0  0  0  0  0  0  0  0  0  0  0  0
  -25.5761   10.2804  -13.6769 C   0  0  0  0  0  0  0  0  0  0  0  0
  -26.6019    9.6082  -14.2771 C   0  0  0  0  0  0  0  0  0  0  0  0
  -26.4002    8.9110  -15.4433 F   0  0  0  0  0  0  0  0  0  0  0  0
  -27.8813    9.5690  -13.7736 C   0  0  0  0  0  0  0  0  0  0  0  0
  -28.1961   10.2315  -12.6203 C   0  0  0  0  0  0  0  0  0  0  0  0
  -27.1767   10.9286  -11.9739 C   0  0  0  0  0  0  0  0  0  0  0  0
  -25.9265   10.9453  -12.4814 C   0  0  0  0  0  0  0  0  0  0  0  0
  -24.9073   11.7118  -11.8520 F   0  0  0  0  0  0  0  0  0  0  0  0
 12 13  1  0  0  0
 13  2  1  0  0  0
  2  3  2  0  0  0
  3  4  1  0  0  0
  4  5  2  0  0  0
  5  1  1  0  0  0
  1 23  1  0  0  0
 23 24  2  0  0  0
 24 25  1  0  0  0
 25 26  2  0  0  0
 26 30  1  0  0  0
 30 31  1  0  0  0
 31 32  2  0  0  0
 31 33  1  0  0  0
 33 36  1  0  0  0
 36 37  2  0  0  0
 37 38  1  0  0  0
 37 39  1  0  0  0
 39 40  2  0  0  0
 40 41  1  0  0  0
 41 42  2  0  0  0
 42 43  1  0  0  0
 26 27  1  0  0  0
 27 28  2  0  0  0
 28 29  1  0  0  0
  5  6  1  0  0  0
  6  7  2  0  0  0
  7  8  1  0  0  0
  8  9  2  0  0  0
  9 10  1  0  0  0
 10 11  2  0  0  0
 11 14  1  0  0  0
 14 15  1  0  0  0
 15 16  1  0  0  0
 16 17  1  0  0  0
 17 18  1  0  0  0
 18 19  1  0  0  0
 19 20  1  0  0  0
 20 21  1  0  0  0
 21 22  1  0  0  0
 11  2  1  0  0  0
 22 18  1  0  0  0
  9  4  1  0  0  0
 28 23  1  0  0  0
 42 36  1  0  0  0
 30 34  1  0  0  0
 33 35  1  0  0  0
M  END
> <minimizedAffinity>
-7.25675

> <CNNscore>
0.1455406547

> <CNNaffinity>
6.8253431320

> <CNN_VS>
0.9933649302

> <CNNaffinity_variance>
0.1166667119

$$$$
[H]c1nc2c([H])c(OC([H])([H])C([H])([H])C([H])([H])N3C([H])([H])C([H])([H])C([H])([H])C3([H])[H])c(OC([H])([H])[H])c([H])c2c(Oc2c([H])c([H])c(N([H])C(=O)N([H])c3c(F)c([H])c([H])c([H])c3F)c([H])c2F)c1[H]


 43 47  0  0  0  0  0  0  0  0999 V2000
  -19.9825   11.2839  -17.5398 O   0  0  0  0  0  0  0  0  0  0  0  0
  -19.9472   14.3143  -20.1790 C   0  0  0  0  0  0  0  0  0  0  0  0
  -19.9755   13.2962  -19.3009 C   0  0  0  0  0  0  0  0  0  0  0  0
  -18.8761   12.4280  -19.3197 C   0  0  0  0  0  0  0  0  0  0  0  0
  -18.8629   11.4057  -18.4122 C   0  0  0  0  0  0  0  0  0  0  0  0
  -17.7983   10.5621  -18.3665 C   0  0  0  0  0  0  0  0  0  0  0  0
  -16.7652   10.7759  -19.2510 C   0  0  0  0  0  0  0  0  0  0  0  0
  -16.7658   11.7994  -20.1734 N   0  0  0  0  0  0  0  0  0  0  0  0
  -17.8200   12.6059  -20.1906 C   0  0  0  0  0  0  0  0  0  0  0  0
  -17.8725   13.6963  -21.0692 C   0  0  0  0  0  0  0  0  0  0  0  0
  -18.9126   14.6037  -21.1225 C   0  0  0  0  0  0  0  0  0  0  0  0
  -21.3601   16.1415  -19.2281 C   0  0  0  0  0  0  0  0  0  0  0  0
  -21.0020   15.2382  -20.2271 O   0  0  0  0  0  0  0  0  0  0  0  0
  -19.0170   15.6254  -21.8730 O   0  0  0  0  0  0  0  0  0  0  0  0
  -19.0024   16.6982  -22.5651 C   0  0  0  0  0  0  0  0  0  0  0  0
  -17.7993   16.7567  -23.5696 C   0  0  0  0  0  0  0  0  0  0  0  0
  -17.9022   15.4950  -24.4530 C   0  0  0  0  0  0  0  0  0  0  0  0
  -16.7021   14.8965  -24.6632 N   0  0  0  0  0  0  0  0  0  0  0  0
  -16.1884   13.6871  -24.9500 C   0  0  0  0  0  0  0  0  0  0  0  0
  -15.0702   13.6253  -23.7838 C   0  0  0  0  0  0  0  0  0  0  0  0
  -14.3833   14.9156  -24.2138 C   0  0  0  0  0  0  0  0  0  0  0  0
  -15.4991   15.8025  -24.6045 C   0  0  0  0  0  0  0  0  0  0  0  0
  -19.7014   10.4106  -16.4697 C   0  0  0  0  0  0  0  0  0  0  0  0
  -19.3304    9.1367  -16.6262 C   0  0  0  0  0  0  0  0  0  0  0  0
  -19.0656    8.3685  -15.4741 C   0  0  0  0  0  0  0  0  0  0  0  0
  -19.1977    8.9520  -14.2031 C   0  0  0  0  0  0  0  0  0  0  0  0
  -19.5825   10.2486  -14.0493 C   0  0  0  0  0  0  0  0  0  0  0  0
  -19.8296   10.9555  -15.2206 C   0  0  0  0  0  0  0  0  0  0  0  0
  -20.2175   12.2324  -15.0293 F   0  0  0  0  0  0  0  0  0  0  0  0
  -18.7887    8.0691  -13.1807 N   0  0  0  0  0  0  0  0  0  0  0  0
  -19.8081    7.1858  -12.6581 C   0  0  0  0  0  0  0  0  0  0  0  0
  -20.9836    7.3900  -13.0445 O   0  0  0  0  0  0  0  0  0  0  0  0
  -19.4313    6.1905  -11.8261 N   0  0  0  0  0  0  0  0  0  0  0  0
  -17.8279    8.0618  -12.8473 H   0  0  0  0  0  0  0  0  0  0  0  0
  -20.7190    5.8173  -11.7615 H   0  0  0  0  0  0  0  0  0  0  0  0
  -19.0621    5.1694  -10.9763 C   0  0  0  0  0  0  0  0  0  0  0  0
  -19.4133    3.8505  -11.0163 C   0  0  0  0  0  0  0  0  0  0  0  0
  -20.2565    3.3754  -11.9910 F   0  0  0  0  0  0  0  0  0  0  0  0
  -18.9586    2.9162  -10.1151 C   0  0  0  0  0  0  0  0  0  0  0  0
  -18.1180    3.2792   -9.1003 C   0  0  0  0  0  0  0  0  0  0  0  0
  -17.7324    4.6165   -9.0247 C   0  0  0  0  0  0  0  0  0  0  0  0
  -18.1837    5.5139   -9.9257 C   0  0  0  0  0  0  0  0  0  0  0  0
  -17.8382    6.8881   -9.8039 F   0  0  0  0  0  0  0  0  0  0  0  0
 12 13  1  0  0  0
 13  2  1  0  0  0
  2  3  2  0  0  0
  3  4  1  0  0  0
  4  5  2  0  0  0
  5  1  1  0  0  0
  1 23  1  0  0  0
 23 24  2  0  0  0
 24 25  1  0  0  0
 25 26  2  0  0  0
 26 30  1  0  0  0
 30 31  1  0  0  0
 31 32  2  0  0  0
 31 33  1  0  0  0
 33 36  1  0  0  0
 36 37  2  0  0  0
 37 38  1  0  0  0
 37 39  1  0  0  0
 39 40  2  0  0  0
 40 41  1  0  0  0
 41 42  2  0  0  0
 42 43  1  0  0  0
 26 27  1  0  0  0
 27 28  2  0  0  0
 28 29  1  0  0  0
  5  6  1  0  0  0
  6  7  2  0  0  0
  7  8  1  0  0  0
  8  9  2  0  0  0
  9 10  1  0  0  0
 10 11  2  0  0  0
 11 14  1  0  0  0
 14 15  1  0  0  0
 15 16  1  0  0  0
 16 17  1  0  0  0
 17 18  1  0  0  0
 18 19  1  0  0  0
 19 20  1  0  0  0
 20 21  1  0  0  0
 21 22  1  0  0  0
 11  2  1  0  0  0
 22 18  1  0  0  0
  9  4  1  0  0  0
 28 23  1  0  0  0
 42 36  1  0  0  0
 30 34  1  0  0  0
 33 35  1  0  0  0
M  END
> <minimizedAffinity>
-7.99401

> <CNNscore>
0.1346104592

> <CNNaffinity>
6.7314538956

> <CNN_VS>
0.9061241150

> <CNNaffinity_variance>
0.1033860892

$$$$
[H]c1nc2c([H])c(OC([H])([H])C([H])([H])C([H])([H])N3C([H])([H])C([H])([H])OC([H])([H])C3([H])[H])c(OC([H])([H])[H])c([H])c2c(Oc2c([H])c([H])c(N([H])C(=O)N([H])c3c(Cl)c([H])c([H])c([H])c3Cl)c([H])c2[H])c1[H]


 43 47  0  0  0  0  0  0  0  0999 V2000
  -23.0843   11.8535  -11.4619 C   0  0  0  0  0  0  0  0  0  0  0  0
  -22.4862   10.7451  -12.0066 C   0  0  0  0  0  0  0  0  0  0  0  0
  -21.1497   10.4394  -11.4820 C   0  0  0  0  0  0  0  0  0  0  0  0
  -20.4201    9.4199  -11.9804 C   0  0  0  0  0  0  0  0  0  0  0  0
  -19.1701    9.1614  -11.5304 C   0  0  0  0  0  0  0  0  0  0  0  0
  -18.6489   10.0280  -10.5127 C   0  0  0  0  0  0  0  0  0  0  0  0
  -19.4128   11.0021  -10.0719 N   0  0  0  0  0  0  0  0  0  0  0  0
  -20.6747   11.2447  -10.5275 C   0  0  0  0  0  0  0  0  0  0  0  0
  -21.3279   12.3355  -10.0075 C   0  0  0  0  0  0  0  0  0  0  0  0
  -22.5497   12.6497  -10.4848 C   0  0  0  0  0  0  0  0  0  0  0  0
  -25.3845   11.3318  -11.9823 C   0  0  0  0  0  0  0  0  0  0  0  0
  -24.3658   12.2277  -11.9866 O   0  0  0  0  0  0  0  0  0  0  0  0
  -21.0162    8.5978  -13.0403 O   0  0  0  0  0  0  0  0  0  0  0  0
  -20.4875    8.9813  -14.2905 C   0  0  0  0  0  0  0  0  0  0  0  0
  -21.0071    9.9371  -15.0785 C   0  0  0  0  0  0  0  0  0  0  0  0
  -20.4936   10.3169  -16.3316 C   0  0  0  0  0  0  0  0  0  0  0  0
  -19.3655    9.6840  -16.7876 C   0  0  0  0  0  0  0  0  0  0  0  0
  -18.7821    8.6945  -15.9899 C   0  0  0  0  0  0  0  0  0  0  0  0
  -19.3471    8.3613  -14.7820 C   0  0  0  0  0  0  0  0  0  0  0  0
  -18.6681   10.0771  -17.9677 N   0  0  0  0  0  0  0  0  0  0  0  0
  -18.4888   11.4138  -18.3208 C   0  0  0  0  0  0  0  0  0  0  0  0
  -18.8477   12.4175  -17.4487 O   0  0  0  0  0  0  0  0  0  0  0  0
  -18.0421   11.9199  -19.4377 N   0  0  0  0  0  0  0  0  0  0  0  0
  -18.2427    9.2936  -18.5558 H   0  0  0  0  0  0  0  0  0  0  0  0
  -17.8481   13.1679  -18.8938 H   0  0  0  0  0  0  0  0  0  0  0  0
  -17.5551   12.4775  -20.6540 C   0  0  0  0  0  0  0  0  0  0  0  0
  -17.7931   13.7254  -21.1680 C   0  0  0  0  0  0  0  0  0  0  0  0
  -18.8433   14.7937  -20.3024 Cl  0  0  0  0  0  0  0  0  0  0  0  0
  -17.2131   14.1431  -22.3699 C   0  0  0  0  0  0  0  0  0  0  0  0
  -16.3755   13.2708  -23.0589 C   0  0  0  0  0  0  0  0  0  0  0  0
  -16.1412   12.0263  -22.5529 C   0  0  0  0  0  0  0  0  0  0  0  0
  -16.7104   11.6440  -21.3878 C   0  0  0  0  0  0  0  0  0  0  0  0
  -16.3799   10.0329  -20.7541 Cl  0  0  0  0  0  0  0  0  0  0  0  0
  -23.3689   13.7368  -10.1009 O   0  0  0  0  0  0  0  0  0  0  0  0
  -22.6075   14.8097   -9.4201 C   0  0  0  0  0  0  0  0  0  0  0  0
  -23.4462   16.0245   -9.3575 C   0  0  0  0  0  0  0  0  0  0  0  0
  -24.1830   16.4319  -10.5376 C   0  0  0  0  0  0  0  0  0  0  0  0
  -23.8361   17.5996  -11.3119 N   0  0  0  0  0  0  0  0  0  0  0  0
  -23.1938   17.0802  -12.5481 C   0  0  0  0  0  0  0  0  0  0  0  0
  -22.3806   18.0757  -13.2843 C   0  0  0  0  0  0  0  0  0  0  0  0
  -21.3496   18.5031  -12.4640 O   0  0  0  0  0  0  0  0  0  0  0  0
  -21.8417   19.1222  -11.3310 C   0  0  0  0  0  0  0  0  0  0  0  0
  -22.7960   18.2851  -10.5377 C   0  0  0  0  0  0  0  0  0  0  0  0
 11 12  1  0  0  0
 12  1  1  0  0  0
  1  2  2  0  0  0
  2  3  1  0  0  0
  3  4  2  0  0  0
  4 13  1  0  0  0
 13 14  1  0  0  0
 14 15  2  0  0  0
 15 16  1  0  0  0
 16 17  2  0  0  0
 17 20  1  0  0  0
 20 21  1  0  0  0
 21 22  2  0  0  0
 21 23  1  0  0  0
 23 26  1  0  0  0
 26 27  2  0  0  0
 27 28  1  0  0  0
 27 29  1  0  0  0
 29 30  2  0  0  0
 30 31  1  0  0  0
 31 32  2  0  0  0
 32 33  1  0  0  0
 17 18  1  0  0  0
 18 19  2  0  0  0
  4  5  1  0  0  0
  5  6  2  0  0  0
  6  7  1  0  0  0
  7  8  2  0  0  0
  8  9  1  0  0  0
  9 10  2  0  0  0
 10 34  1  0  0  0
 34 35  1  0  0  0
 35 36  1  0  0  0
 36 37  1  0  0  0
 37 38  1  0  0  0
 38 39  1  0  0  0
 39 40  1  0  0  0
 40 41  1  0  0  0
 41 42  1  0  0  0
 42 43  1  0  0  0
 10  1  1  0  0  0
 43 38  1  0  0  0
  8  3  1  0  0  0
 19 14  1  0  0  0
 32 26  1  0  0  0
 20 24  1  0  0  0
 23 25  1  0  0  0
M  END
> <minimizedAffinity>
-6.73236

> <CNNscore>
0.1496616006

> <CNNaffinity>
6.6227211952

> <CNN_VS>
0.9911670685

> <CNNaffinity_variance>
0.1175127476

$$$$
[H]c1nc2c([H])c(OC([H])([H])C([H])([H])C([H])([H])N3C([H])([H])C([H])([H])OC([H])([H])C3([H])[H])c(OC([H])([H])[H])c([H])c2c(Oc2c([H])c([H])c(N([H])C(=O)N([H])c3c(Cl)c([H])c([H])c([H])c3Cl)c([H])c2[H])c1[H]


 43 47  0  0  0  0  0  0  0  0999 V2000
  -21.4733   10.1776  -13.5393 C   0  0  0  0  0  0  0  0  0  0  0  0
  -21.0005   11.0420  -14.4944 C   0  0  0  0  0  0  0  0  0  0  0  0
  -20.2277   10.4140  -15.5729 C   0  0  0  0  0  0  0  0  0  0  0  0
  -19.6450   11.1553  -16.5379 C   0  0  0  0  0  0  0  0  0  0  0  0
  -18.8951   10.5846  -17.5093 C   0  0  0  0  0  0  0  0  0  0  0  0
  -18.7334    9.1601  -17.4590 C   0  0  0  0  0  0  0  0  0  0  0  0
  -19.3282    8.4987  -16.4918 N   0  0  0  0  0  0  0  0  0  0  0  0
  -20.0895    9.0860  -15.5251 C   0  0  0  0  0  0  0  0  0  0  0  0
  -20.6005    8.2664  -14.5483 C   0  0  0  0  0  0  0  0  0  0  0  0
  -21.2989    8.8196  -13.5357 C   0  0  0  0  0  0  0  0  0  0  0  0
  -22.7868   11.9587  -12.5718 C   0  0  0  0  0  0  0  0  0  0  0  0
  -22.1822   10.7521  -12.4327 O   0  0  0  0  0  0  0  0  0  0  0  0
  -19.8366   12.6101  -16.5010 O   0  0  0  0  0  0  0  0  0  0  0  0
  -19.5147   13.1619  -17.7587 C   0  0  0  0  0  0  0  0  0  0  0  0
  -18.3351   13.7266  -18.0653 C   0  0  0  0  0  0  0  0  0  0  0  0
  -18.0104   14.2900  -19.3124 C   0  0  0  0  0  0  0  0  0  0  0  0
  -18.9546   14.2497  -20.3064 C   0  0  0  0  0  0  0  0  0  0  0  0
  -20.1905   13.6546  -20.0344 C   0  0  0  0  0  0  0  0  0  0  0  0
  -20.4469   13.1381  -18.7867 C   0  0  0  0  0  0  0  0  0  0  0  0
  -18.6973   14.6534  -21.6497 N   0  0  0  0  0  0  0  0  0  0  0  0
  -17.9364   13.8849  -22.5294 C   0  0  0  0  0  0  0  0  0  0  0  0
  -17.5327   12.6170  -22.1744 O   0  0  0  0  0  0  0  0  0  0  0  0
  -17.4695   14.1978  -23.7071 N   0  0  0  0  0  0  0  0  0  0  0  0
  -19.1571   15.5617  -21.9730 H   0  0  0  0  0  0  0  0  0  0  0  0
  -17.1742   12.8942  -24.0304 H   0  0  0  0  0  0  0  0  0  0  0  0
  -16.9579   14.5337  -24.9928 C   0  0  0  0  0  0  0  0  0  0  0  0
  -17.0476   13.8121  -26.1544 C   0  0  0  0  0  0  0  0  0  0  0  0
  -17.8308   12.2698  -26.1156 Cl  0  0  0  0  0  0  0  0  0  0  0  0
  -16.5174   14.2928  -27.3558 C   0  0  0  0  0  0  0  0  0  0  0  0
  -15.8843   15.5323  -27.3708 C   0  0  0  0  0  0  0  0  0  0  0  0
  -15.7885   16.2502  -26.2154 C   0  0  0  0  0  0  0  0  0  0  0  0
  -16.3104   15.7675  -25.0655 C   0  0  0  0  0  0  0  0  0  0  0  0
  -16.1799   16.7236  -23.5906 Cl  0  0  0  0  0  0  0  0  0  0  0  0
  -21.8821    8.1566  -12.4310 O   0  0  0  0  0  0  0  0  0  0  0  0
  -21.1635    6.9123  -12.0707 C   0  0  0  0  0  0  0  0  0  0  0  0
  -20.3307    7.1702  -10.8778 C   0  0  0  0  0  0  0  0  0  0  0  0
  -18.8872    7.1461  -11.0093 C   0  0  0  0  0  0  0  0  0  0  0  0
  -18.0828    8.3445  -11.0209 N   0  0  0  0  0  0  0  0  0  0  0  0
  -17.0522    8.1413   -9.9687 C   0  0  0  0  0  0  0  0  0  0  0  0
  -16.3923    9.3840   -9.5051 C   0  0  0  0  0  0  0  0  0  0  0  0
  -17.3502   10.2173   -8.9515 O   0  0  0  0  0  0  0  0  0  0  0  0
  -18.2992   10.5740   -9.8902 C   0  0  0  0  0  0  0  0  0  0  0  0
  -18.9719    9.4146  -10.5566 C   0  0  0  0  0  0  0  0  0  0  0  0
 11 12  1  0  0  0
 12  1  1  0  0  0
  1  2  2  0  0  0
  2  3  1  0  0  0
  3  4  2  0  0  0
  4 13  1  0  0  0
 13 14  1  0  0  0
 14 15  2  0  0  0
 15 16  1  0  0  0
 16 17  2  0  0  0
 17 20  1  0  0  0
 20 21  1  0  0  0
 21 22  2  0  0  0
 21 23  1  0  0  0
 23 26  1  0  0  0
 26 27  2  0  0  0
 27 28  1  0  0  0
 27 29  1  0  0  0
 29 30  2  0  0  0
 30 31  1  0  0  0
 31 32  2  0  0  0
 32 33  1  0  0  0
 17 18  1  0  0  0
 18 19  2  0  0  0
  4  5  1  0  0  0
  5  6  2  0  0  0
  6  7  1  0  0  0
  7  8  2  0  0  0
  8  9  1  0  0  0
  9 10  2  0  0  0
 10 34  1  0  0  0
 34 35  1  0  0  0
 35 36  1  0  0  0
 36 37  1  0  0  0
 37 38  1  0  0  0
 38 39  1  0  0  0
 39 40  1  0  0  0
 40 41  1  0  0  0
 41 42  1  0  0  0
 42 43  1  0  0  0
 10  1  1  0  0  0
 43 38  1  0  0  0
  8  3  1  0  0  0
 19 14  1  0  0  0
 32 26  1  0  0  0
 20 24  1  0  0  0
 23 25  1  0  0  0
M  END
> <minimizedAffinity>
-8.62834

> <CNNscore>
0.0689249635

> <CNNaffinity>
6.5320549011

> <CNN_VS>
0.4502216578

> <CNNaffinity_variance>
0.1058677584

$$$$
[H]c1nc2c([H])c(OC([H])([H])C([H])([H])C([H])([H])N3C([H])([H])C([H])([H])OC([H])([H])C3([H])[H])c(OC([H])([H])[H])c([H])c2c(Oc2c([H])c([H])c(N([H])C(=O)N([H])c3c(Cl)c([H])c([H])c([H])c3Cl)c([H])c2[H])c1[H]


 43 47  0  0  0  0  0  0  0  0999 V2000
  -23.6153   11.3328  -13.1659 C   0  0  0  0  0  0  0  0  0  0  0  0
  -22.7102   10.4843  -13.7521 C   0  0  0  0  0  0  0  0  0  0  0  0
  -21.4195   10.3787  -13.0607 C   0  0  0  0  0  0  0  0  0  0  0  0
  -20.4143    9.6353  -13.5676 C   0  0  0  0  0  0  0  0  0  0  0  0
  -19.2083    9.5700  -12.9568 C   0  0  0  0  0  0  0  0  0  0  0  0
  -19.0403   10.3380  -11.7568 C   0  0  0  0  0  0  0  0  0  0  0  0
  -20.0604   11.0405  -11.3180 N   0  0  0  0  0  0  0  0  0  0  0  0
  -21.2736   11.0890  -11.9385 C   0  0  0  0  0  0  0  0  0  0  0  0
  -22.2245   11.9134  -11.3880 C   0  0  0  0  0  0  0  0  0  0  0  0
  -23.4127   12.0429  -12.0130 C   0  0  0  0  0  0  0  0  0  0  0  0
  -25.7256   10.4715  -13.9652 C   0  0  0  0  0  0  0  0  0  0  0  0
  -24.8688   11.5158  -13.8389 O   0  0  0  0  0  0  0  0  0  0  0  0
  -20.6594    8.9018  -14.8152 O   0  0  0  0  0  0  0  0  0  0  0  0
  -20.1216    9.6229  -15.9017 C   0  0  0  0  0  0  0  0  0  0  0  0
  -20.5808   10.8095  -16.3325 C   0  0  0  0  0  0  0  0  0  0  0  0
  -20.0586   11.5290  -17.4224 C   0  0  0  0  0  0  0  0  0  0  0  0
  -18.9864   10.9992  -18.0938 C   0  0  0  0  0  0  0  0  0  0  0  0
  -18.4660    9.7734  -17.6665 C   0  0  0  0  0  0  0  0  0  0  0  0
  -19.0368    9.1155  -16.6032 C   0  0  0  0  0  0  0  0  0  0  0  0
  -18.2788   11.6964  -19.1168 N   0  0  0  0  0  0  0  0  0  0  0  0
  -18.0661   13.0736  -19.0742 C   0  0  0  0  0  0  0  0  0  0  0  0
  -18.4003   13.7942  -17.9493 O   0  0  0  0  0  0  0  0  0  0  0  0
  -17.6063   13.8670  -20.0027 N   0  0  0  0  0  0  0  0  0  0  0  0
  -17.8728   11.1038  -19.9072 H   0  0  0  0  0  0  0  0  0  0  0  0
  -17.3815   14.9023  -19.1260 H   0  0  0  0  0  0  0  0  0  0  0  0
  -17.1049   14.7373  -21.0120 C   0  0  0  0  0  0  0  0  0  0  0  0
  -16.9205   16.0936  -20.9450 C   0  0  0  0  0  0  0  0  0  0  0  0
  -17.3733   16.9226  -19.4954 Cl  0  0  0  0  0  0  0  0  0  0  0  0
  -16.3843   16.8118  -22.0184 C   0  0  0  0  0  0  0  0  0  0  0  0
  -16.0306   16.1327  -23.1807 C   0  0  0  0  0  0  0  0  0  0  0  0
  -16.2180   14.7839  -23.2526 C   0  0  0  0  0  0  0  0  0  0  0  0
  -16.7357   14.1089  -22.2018 C   0  0  0  0  0  0  0  0  0  0  0  0
  -16.9563   12.3643  -22.3213 Cl  0  0  0  0  0  0  0  0  0  0  0  0
  -24.5050   12.8523  -11.6234 O   0  0  0  0  0  0  0  0  0  0  0  0
  -24.0992   13.9647  -10.7332 C   0  0  0  0  0  0  0  0  0  0  0  0
  -24.1484   15.2291  -11.4961 C   0  0  0  0  0  0  0  0  0  0  0  0
  -23.5129   16.4090  -10.9434 C   0  0  0  0  0  0  0  0  0  0  0  0
  -24.1267   17.7151  -10.9744 N   0  0  0  0  0  0  0  0  0  0  0  0
  -22.9999   18.6845  -10.9404 C   0  0  0  0  0  0  0  0  0  0  0  0
  -23.3809   20.0576  -10.5355 C   0  0  0  0  0  0  0  0  0  0  0  0
  -23.8939   20.0167   -9.2496 O   0  0  0  0  0  0  0  0  0  0  0  0
  -25.0315   19.2345   -9.1942 C   0  0  0  0  0  0  0  0  0  0  0  0
  -24.8437   17.8385   -9.7008 C   0  0  0  0  0  0  0  0  0  0  0  0
 11 12  1  0  0  0
 12  1  1  0  0  0
  1  2  2  0  0  0
  2  3  1  0  0  0
  3  4  2  0  0  0
  4 13  1  0  0  0
 13 14  1  0  0  0
 14 15  2  0  0  0
 15 16  1  0  0  0
 16 17  2  0  0  0
 17 20  1  0  0  0
 20 21  1  0  0  0
 21 22  2  0  0  0
 21 23  1  0  0  0
 23 26  1  0  0  0
 26 27  2  0  0  0
 27 28  1  0  0  0
 27 29  1  0  0  0
 29 30  2  0  0  0
 30 31  1  0  0  0
 31 32  2  0  0  0
 32 33  1  0  0  0
 17 18  1  0  0  0
 18 19  2  0  0  0
  4  5  1  0  0  0
  5  6  2  0  0  0
  6  7  1  0  0  0
  7  8  2  0  0  0
  8  9  1  0  0  0
  9 10  2  0  0  0
 10 34  1  0  0  0
 34 35  1  0  0  0
 35 36  1  0  0  0
 36 37  1  0  0  0
 37 38  1  0  0  0
 38 39  1  0  0  0
 39 40  1  0  0  0
 40 41  1  0  0  0
 41 42  1  0  0  0
 42 43  1  0  0  0
 10  1  1  0  0  0
 43 38  1  0  0  0
  8  3  1  0  0  0
 19 14  1  0  0  0
 32 26  1  0  0  0
 20 24  1  0  0  0
 23 25  1  0  0  0
M  END
> <minimizedAffinity>
-6.43019

> <CNNscore>
0.0682055876

> <CNNaffinity>
6.4827222824

> <CNN_VS>
0.4421578944

> <CNNaffinity_variance>
0.1713471711

$$$$
[H]c1nc2c([H])c(OC([H])([H])C([H])([H])C([H])([H])N3C([H])([H])C([H])([H])OC([H])([H])C3([H])[H])c(OC([H])([H])[H])c([H])c2c(Oc2c([H])c([H])c(N([H])C(=O)N([H])c3c(Cl)c([H])c([H])c([H])c3Cl)c([H])c2[H])c1[H]


 43 47  0  0  0  0  0  0  0  0999 V2000
  -17.9009   12.8251  -21.8384 C   0  0  0  0  0  0  0  0  0  0  0  0
  -17.9381   14.0599  -22.4358 C   0  0  0  0  0  0  0  0  0  0  0  0
  -16.7168   14.4380  -23.1573 C   0  0  0  0  0  0  0  0  0  0  0  0
  -16.5917   15.6532  -23.7299 C   0  0  0  0  0  0  0  0  0  0  0  0
  -15.4513   16.0225  -24.3582 C   0  0  0  0  0  0  0  0  0  0  0  0
  -14.3764   15.0726  -24.3747 C   0  0  0  0  0  0  0  0  0  0  0  0
  -14.5651   13.9072  -23.7978 N   0  0  0  0  0  0  0  0  0  0  0  0
  -15.7236   13.5447  -23.1769 C   0  0  0  0  0  0  0  0  0  0  0  0
  -15.7487   12.3119  -22.5713 C   0  0  0  0  0  0  0  0  0  0  0  0
  -16.8516   11.9469  -21.8862 C   0  0  0  0  0  0  0  0  0  0  0  0
  -19.5076   13.2499  -20.0857 C   0  0  0  0  0  0  0  0  0  0  0  0
  -19.0484   12.4371  -21.0702 O   0  0  0  0  0  0  0  0  0  0  0  0
  -17.7289   16.5773  -23.6438 O   0  0  0  0  0  0  0  0  0  0  0  0
  -17.9900   16.8816  -22.2914 C   0  0  0  0  0  0  0  0  0  0  0  0
  -17.0570   17.2489  -21.3975 C   0  0  0  0  0  0  0  0  0  0  0  0
  -17.3069   17.5418  -20.0448 C   0  0  0  0  0  0  0  0  0  0  0  0
  -18.6005   17.4691  -19.5950 C   0  0  0  0  0  0  0  0  0  0  0  0
  -19.6056   17.1073  -20.4977 C   0  0  0  0  0  0  0  0  0  0  0  0
  -19.2877   16.8178  -21.8032 C   0  0  0  0  0  0  0  0  0  0  0  0
  -19.0018   17.8808  -18.2901 N   0  0  0  0  0  0  0  0  0  0  0  0
  -19.5570   16.9983  -17.3646 C   0  0  0  0  0  0  0  0  0  0  0  0
  -19.5925   15.6469  -17.6272 O   0  0  0  0  0  0  0  0  0  0  0  0
  -20.1301   17.2546  -16.2205 N   0  0  0  0  0  0  0  0  0  0  0  0
  -18.8145   18.8999  -18.0309 H   0  0  0  0  0  0  0  0  0  0  0  0
  -20.0746   15.9457  -15.8027 H   0  0  0  0  0  0  0  0  0  0  0  0
  -20.7562   17.5284  -14.9712 C   0  0  0  0  0  0  0  0  0  0  0  0
  -20.2704   18.2691  -13.9255 C   0  0  0  0  0  0  0  0  0  0  0  0
  -18.6854   18.9504  -14.0560 Cl  0  0  0  0  0  0  0  0  0  0  0  0
  -21.0231   18.4760  -12.7653 C   0  0  0  0  0  0  0  0  0  0  0  0
  -22.2940   17.9164  -12.6715 C   0  0  0  0  0  0  0  0  0  0  0  0
  -22.7780   17.1742  -13.7081 C   0  0  0  0  0  0  0  0  0  0  0  0
  -22.0342   16.9889  -14.8217 C   0  0  0  0  0  0  0  0  0  0  0  0
  -22.6914   16.0333  -16.1489 Cl  0  0  0  0  0  0  0  0  0  0  0  0
  -17.0645   10.7404  -21.1797 O   0  0  0  0  0  0  0  0  0  0  0  0
  -16.0646   10.5253  -20.1080 C   0  0  0  0  0  0  0  0  0  0  0  0
  -16.6788   10.8626  -18.8072 C   0  0  0  0  0  0  0  0  0  0  0  0
  -17.9132   10.2074  -18.4214 C   0  0  0  0  0  0  0  0  0  0  0  0
  -18.4194   10.2264  -17.0698 N   0  0  0  0  0  0  0  0  0  0  0  0
  -18.6897    8.8052  -16.7268 C   0  0  0  0  0  0  0  0  0  0  0  0
  -19.6009    8.6124  -15.5748 C   0  0  0  0  0  0  0  0  0  0  0  0
  -20.8289    9.1764  -15.8788 O   0  0  0  0  0  0  0  0  0  0  0  0
  -20.7103   10.5361  -16.0940 C   0  0  0  0  0  0  0  0  0  0  0  0
  -19.7159   10.9077  -17.1494 C   0  0  0  0  0  0  0  0  0  0  0  0
 11 12  1  0  0  0
 12  1  1  0  0  0
  1  2  2  0  0  0
  2  3  1  0  0  0
  3  4  2  0  0  0
  4 13  1  0  0  0
 13 14  1  0  0  0
 14 15  2  0  0  0
 15 16  1  0  0  0
 16 17  2  0  0  0
 17 20  1  0  0  0
 20 21  1  0  0  0
 21 22  2  0  0  0
 21 23  1  0  0  0
 23 26  1  0  0  0
 26 27  2  0  0  0
 27 28  1  0  0  0
 27 29  1  0  0  0
 29 30  2  0  0  0
 30 31  1  0  0  0
 31 32  2  0  0  0
 32 33  1  0  0  0
 17 18  1  0  0  0
 18 19  2  0  0  0
  4  5  1  0  0  0
  5  6  2  0  0  0
  6  7  1  0  0  0
  7  8  2  0  0  0
  8  9  1  0  0  0
  9 10  2  0  0  0
 10 34  1  0  0  0
 34 35  1  0  0  0
 35 36  1  0  0  0
 36 37  1  0  0  0
 37 38  1  0  0  0
 38 39  1  0  0  0
 39 40  1  0  0  0
 40 41  1  0  0  0
 41 42  1  0  0  0
 42 43  1  0  0  0
 10  1  1  0  0  0
 43 38  1  0  0  0
  8  3  1  0  0  0
 19 14  1  0  0  0
 32 26  1  0  0  0
 20 24  1  0  0  0
 23 25  1  0  0  0
M  END
> <minimizedAffinity>
-7.74351

> <CNNscore>
0.0672384053

> <CNNaffinity>
6.8696212769

> <CNN_VS>
0.4619023800

> <CNNaffinity_variance>
0.4517747462

$$$$
[H]c1nc2c([H])c(OC([H])([H])C([H])([H])C([H])([H])N3C([H])([H])C([H])([H])OC([H])([H])C3([H])[H])c(OC([H])([H])[H])c([H])c2c(Oc2c([H])c([H])c(N([H])C(=O)N([H])c3c(Cl)c([H])c([H])c([H])c3Cl)c([H])c2[H])c1[H]


 43 47  0  0  0  0  0  0  0  0999 V2000
  -23.9801   12.7316  -11.7380 C   0  0  0  0  0  0  0  0  0  0  0  0
  -23.3695   11.5191  -11.9377 C   0  0  0  0  0  0  0  0  0  0  0  0
  -22.1446   11.3044  -11.1577 C   0  0  0  0  0  0  0  0  0  0  0  0
  -21.4061   10.1857  -11.3107 C   0  0  0  0  0  0  0  0  0  0  0  0
  -20.2530   10.0030  -10.6262 C   0  0  0  0  0  0  0  0  0  0  0  0
  -19.8419   11.0568   -9.7438 C   0  0  0  0  0  0  0  0  0  0  0  0
  -20.6081   12.1195   -9.6422 N   0  0  0  0  0  0  0  0  0  0  0  0
  -21.7731   12.2858  -10.3307 C   0  0  0  0  0  0  0  0  0  0  0  0
  -22.4354   13.4771  -10.1598 C   0  0  0  0  0  0  0  0  0  0  0  0
  -23.5536   13.7078  -10.8779 C   0  0  0  0  0  0  0  0  0  0  0  0
  -25.1825   12.6513  -13.8312 C   0  0  0  0  0  0  0  0  0  0  0  0
  -25.1468   13.0119  -12.5238 O   0  0  0  0  0  0  0  0  0  0  0  0
  -21.8824    9.1679  -12.2550 O   0  0  0  0  0  0  0  0  0  0  0  0
  -21.2906    9.3799  -13.5177 C   0  0  0  0  0  0  0  0  0  0  0  0
  -21.9258    9.9003  -14.5809 C   0  0  0  0  0  0  0  0  0  0  0  0
  -21.3468   10.1034  -15.8465 C   0  0  0  0  0  0  0  0  0  0  0  0
  -20.0284    9.7662  -16.0169 C   0  0  0  0  0  0  0  0  0  0  0  0
  -19.3250    9.2373  -14.9300 C   0  0  0  0  0  0  0  0  0  0  0  0
  -19.9585    9.0496  -13.7247 C   0  0  0  0  0  0  0  0  0  0  0  0
  -19.2909   10.0572  -17.2022 N   0  0  0  0  0  0  0  0  0  0  0  0
  -19.0985   11.3587  -17.6633 C   0  0  0  0  0  0  0  0  0  0  0  0
  -19.4859   12.4332  -16.8939 O   0  0  0  0  0  0  0  0  0  0  0  0
  -18.6136   11.7672  -18.8039 N   0  0  0  0  0  0  0  0  0  0  0  0
  -18.8465    9.2266  -17.7056 H   0  0  0  0  0  0  0  0  0  0  0  0
  -18.4371   13.0579  -18.3637 H   0  0  0  0  0  0  0  0  0  0  0  0
  -18.0850   12.2186  -20.0466 C   0  0  0  0  0  0  0  0  0  0  0  0
  -17.1665   11.5968  -20.8515 C   0  0  0  0  0  0  0  0  0  0  0  0
  -16.4911   10.0911  -20.3316 Cl  0  0  0  0  0  0  0  0  0  0  0  0
  -16.7656   12.1554  -22.0692 C   0  0  0  0  0  0  0  0  0  0  0  0
  -17.3125   13.3703  -22.4717 C   0  0  0  0  0  0  0  0  0  0  0  0
  -18.2225   13.9943  -21.6704 C   0  0  0  0  0  0  0  0  0  0  0  0
  -18.5978   13.4351  -20.4982 C   0  0  0  0  0  0  0  0  0  0  0  0
  -19.7840   14.2606  -19.4892 Cl  0  0  0  0  0  0  0  0  0  0  0  0
  -24.3598   14.8696  -10.8636 O   0  0  0  0  0  0  0  0  0  0  0  0
  -23.6338   16.0711  -11.3366 C   0  0  0  0  0  0  0  0  0  0  0  0
  -23.9227   16.2693  -12.7721 C   0  0  0  0  0  0  0  0  0  0  0  0
  -22.9011   16.8495  -13.6214 C   0  0  0  0  0  0  0  0  0  0  0  0
  -22.0759   16.0594  -14.5036 N   0  0  0  0  0  0  0  0  0  0  0  0
  -21.1321   17.0211  -15.1320 C   0  0  0  0  0  0  0  0  0  0  0  0
  -20.4862   16.5293  -16.3711 C   0  0  0  0  0  0  0  0  0  0  0  0
  -21.4676   16.2785  -17.3158 O   0  0  0  0  0  0  0  0  0  0  0  0
  -22.3359   15.2961  -16.8797 C   0  0  0  0  0  0  0  0  0  0  0  0
  -22.9776   15.5843  -15.5583 C   0  0  0  0  0  0  0  0  0  0  0  0
 11 12  1  0  0  0
 12  1  1  0  0  0
  1  2  2  0  0  0
  2  3  1  0  0  0
  3  4  2  0  0  0
  4 13  1  0  0  0
 13 14  1  0  0  0
 14 15  2  0  0  0
 15 16  1  0  0  0
 16 17  2  0  0  0
 17 20  1  0  0  0
 20 21  1  0  0  0
 21 22  2  0  0  0
 21 23  1  0  0  0
 23 26  1  0  0  0
 26 27  2  0  0  0
 27 28  1  0  0  0
 27 29  1  0  0  0
 29 30  2  0  0  0
 30 31  1  0  0  0
 31 32  2  0  0  0
 32 33  1  0  0  0
 17 18  1  0  0  0
 18 19  2  0  0  0
  4  5  1  0  0  0
  5  6  2  0  0  0
  6  7  1  0  0  0
  7  8  2  0  0  0
  8  9  1  0  0  0
  9 10  2  0  0  0
 10 34  1  0  0  0
 34 35  1  0  0  0
 35 36  1  0  0  0
 36 37  1  0  0  0
 37 38  1  0  0  0
 38 39  1  0  0  0
 39 40  1  0  0  0
 40 41  1  0  0  0
 41 42  1  0  0  0
 42 43  1  0  0  0
 10  1  1  0  0  0
 43 38  1  0  0  0
  8  3  1  0  0  0
 19 14  1  0  0  0
 32 26  1  0  0  0
 20 24  1  0  0  0
 23 25  1  0  0  0
M  END
> <minimizedAffinity>
-6.58834

> <CNNscore>
0.0588411689

> <CNNaffinity>
6.4449968338

> <CNN_VS>
0.3792311549

> <CNNaffinity_variance>
0.1727953553

$$$$
[H]c1nc2c([H])c(OC([H])([H])C([H])([H])C([H])([H])N3C([H])([H])C([H])([H])OC([H])([H])C3([H])[H])c(OC([H])([H])[H])c([H])c2c(Oc2c([H])c([H])c(N([H])C(=O)N([H])c3c(Cl)c([H])c([H])c([H])c3Cl)c([H])c2[H])c1[H]


 43 47  0  0  0  0  0  0  0  0999 V2000
  -23.7950   11.7057  -12.7945 C   0  0  0  0  0  0  0  0  0  0  0  0
  -22.9661   10.9290  -13.5643 C   0  0  0  0  0  0  0  0  0  0  0  0
  -21.6304   10.6982  -13.0008 C   0  0  0  0  0  0  0  0  0  0  0  0
  -20.6922   10.0121  -13.6858 C   0  0  0  0  0  0  0  0  0  0  0  0
  -19.4458    9.8345  -13.1894 C   0  0  0  0  0  0  0  0  0  0  0  0
  -19.1607   10.4210  -11.9116 C   0  0  0  0  0  0  0  0  0  0  0  0
  -20.1203   11.0766  -11.2983 N   0  0  0  0  0  0  0  0  0  0  0  0
  -21.3752   11.2391  -11.8061 C   0  0  0  0  0  0  0  0  0  0  0  0
  -22.2532   11.9980  -11.0711 C   0  0  0  0  0  0  0  0  0  0  0  0
  -23.4809   12.2409  -11.5740 C   0  0  0  0  0  0  0  0  0  0  0  0
  -25.1965   12.8078  -14.4239 C   0  0  0  0  0  0  0  0  0  0  0  0
  -25.0896   12.0097  -13.3320 O   0  0  0  0  0  0  0  0  0  0  0  0
  -21.0566    9.4681  -14.9995 O   0  0  0  0  0  0  0  0  0  0  0  0
  -20.3413   10.1472  -16.0079 C   0  0  0  0  0  0  0  0  0  0  0  0
  -20.4928   11.4480  -16.3073 C   0  0  0  0  0  0  0  0  0  0  0  0
  -19.7929   12.1296  -17.3191 C   0  0  0  0  0  0  0  0  0  0  0  0
  -18.8684   11.4293  -18.0512 C   0  0  0  0  0  0  0  0  0  0  0  0
  -18.6669   10.0764  -17.7599 C   0  0  0  0  0  0  0  0  0  0  0  0
  -19.3985    9.4687  -16.7677 C   0  0  0  0  0  0  0  0  0  0  0  0
  -17.9952   12.0377  -19.0003 N   0  0  0  0  0  0  0  0  0  0  0  0
  -18.4645   12.6735  -20.1488 C   0  0  0  0  0  0  0  0  0  0  0  0
  -19.8148   12.8758  -20.3291 O   0  0  0  0  0  0  0  0  0  0  0  0
  -17.7974   13.1088  -21.1825 N   0  0  0  0  0  0  0  0  0  0  0  0
  -16.9527   12.0256  -18.7683 H   0  0  0  0  0  0  0  0  0  0  0  0
  -18.8496   13.8588  -21.6530 H   0  0  0  0  0  0  0  0  0  0  0  0
  -17.0745   13.5858  -22.3128 C   0  0  0  0  0  0  0  0  0  0  0  0
  -16.0531   12.9684  -22.9863 C   0  0  0  0  0  0  0  0  0  0  0  0
  -15.4930   11.4329  -22.4191 Cl  0  0  0  0  0  0  0  0  0  0  0  0
  -15.4584   13.5547  -24.1080 C   0  0  0  0  0  0  0  0  0  0  0  0
  -15.9148   14.7933  -24.5492 C   0  0  0  0  0  0  0  0  0  0  0  0
  -16.9272   15.4128  -23.8777 C   0  0  0  0  0  0  0  0  0  0  0  0
  -17.4896   14.8268  -22.7970 C   0  0  0  0  0  0  0  0  0  0  0  0
  -18.8035   15.6476  -21.9565 Cl  0  0  0  0  0  0  0  0  0  0  0  0
  -24.5127   13.0109  -10.9886 O   0  0  0  0  0  0  0  0  0  0  0  0
  -24.0895   14.4003  -10.6973 C   0  0  0  0  0  0  0  0  0  0  0  0
  -24.4841   15.2665  -11.8274 C   0  0  0  0  0  0  0  0  0  0  0  0
  -23.5775   16.3103  -12.2634 C   0  0  0  0  0  0  0  0  0  0  0  0
  -23.5809   16.8386  -13.6066 N   0  0  0  0  0  0  0  0  0  0  0  0
  -24.9337   16.5413  -14.1470 C   0  0  0  0  0  0  0  0  0  0  0  0
  -25.0331   16.5988  -15.6239 C   0  0  0  0  0  0  0  0  0  0  0  0
  -24.1838   15.6479  -16.1650 O   0  0  0  0  0  0  0  0  0  0  0  0
  -22.8697   15.9059  -15.8249 C   0  0  0  0  0  0  0  0  0  0  0  0
  -22.6249   16.0128  -14.3520 C   0  0  0  0  0  0  0  0  0  0  0  0
 11 12  1  0  0  0
 12  1  1  0  0  0
  1  2  2  0  0  0
  2  3  1  0  0  0
  3  4  2  0  0  0
  4 13  1  0  0  0
 13 14  1  0  0  0
 14 15  2  0  0  0
 15 16  1  0  0  0
 16 17  2  0  0  0
 17 20  1  0  0  0
 20 21  1  0  0  0
 21 22  2  0  0  0
 21 23  1  0  0  0
 23 26  1  0  0  0
 26 27  2  0  0  0
 27 28  1  0  0  0
 27 29  1  0  0  0
 29 30  2  0  0  0
 30 31  1  0  0  0
 31 32  2  0  0  0
 32 33  1  0  0  0
 17 18  1  0  0  0
 18 19  2  0  0  0
  4  5  1  0  0  0
  5  6  2  0  0  0
  6  7  1  0  0  0
  7  8  2  0  0  0
  8  9  1  0  0  0
  9 10  2  0  0  0
 10 34  1  0  0  0
 34 35  1  0  0  0
 35 36  1  0  0  0
 36 37  1  0  0  0
 37 38  1  0  0  0
 38 39  1  0  0  0
 39 40  1  0  0  0
 40 41  1  0  0  0
 41 42  1  0  0  0
 42 43  1  0  0  0
 10  1  1  0  0  0
 43 38  1  0  0  0
  8  3  1  0  0  0
 19 14  1  0  0  0
 32 26  1  0  0  0
 20 24  1  0  0  0
 23 25  1  0  0  0
M  END
> <minimizedAffinity>
-6.46611

> <CNNscore>
0.0485202856

> <CNNaffinity>
6.3751530647

> <CNN_VS>
0.3093242347

> <CNNaffinity_variance>
0.1361386627

$$$$
[H]c1nc2c([H])c(OC([H])([H])C([H])([H])C([H])([H])N3C([H])([H])C([H])([H])OC([H])([H])C3([H])[H])c(OC([H])([H])[H])c([H])c2c(Oc2c([H])c([H])c(N([H])C(=O)N([H])c3c(Cl)c([H])c([H])c([H])c3Cl)c([H])c2[H])c1[H]


 43 47  0  0  0  0  0  0  0  0999 V2000
  -20.8754   20.4034  -19.2681 C   0  0  0  0  0  0  0  0  0  0  0  0
  -20.6244   20.7046  -20.5831 C   0  0  0  0  0  0  0  0  0  0  0  0
  -21.8172   20.9471  -21.4036 C   0  0  0  0  0  0  0  0  0  0  0  0
  -21.7178   21.1830  -22.7282 C   0  0  0  0  0  0  0  0  0  0  0  0
  -22.8171   21.3636  -23.4967 C   0  0  0  0  0  0  0  0  0  0  0  0
  -24.0922   21.2771  -22.8451 C   0  0  0  0  0  0  0  0  0  0  0  0
  -24.1173   21.0446  -21.5520 N   0  0  0  0  0  0  0  0  0  0  0  0
  -23.0008   20.8747  -20.7881 C   0  0  0  0  0  0  0  0  0  0  0  0
  -23.1914   20.5832  -19.4593 C   0  0  0  0  0  0  0  0  0  0  0  0
  -22.1133   20.3379  -18.6867 C   0  0  0  0  0  0  0  0  0  0  0  0
  -18.8785   19.1225  -18.8148 C   0  0  0  0  0  0  0  0  0  0  0  0
  -19.7439   20.0982  -18.4411 O   0  0  0  0  0  0  0  0  0  0  0  0
  -20.3764   21.2277  -23.3226 O   0  0  0  0  0  0  0  0  0  0  0  0
  -19.7586   19.9664  -23.1922 C   0  0  0  0  0  0  0  0  0  0  0  0
  -18.5414   19.7637  -22.6612 C   0  0  0  0  0  0  0  0  0  0  0  0
  -17.9131   18.5113  -22.5389 C   0  0  0  0  0  0  0  0  0  0  0  0
  -18.5916   17.4015  -22.9736 C   0  0  0  0  0  0  0  0  0  0  0  0
  -19.8697   17.5663  -23.5170 C   0  0  0  0  0  0  0  0  0  0  0  0
  -20.4171   18.8227  -23.6220 C   0  0  0  0  0  0  0  0  0  0  0  0
  -18.1265   16.0687  -22.7722 N   0  0  0  0  0  0  0  0  0  0  0  0
  -18.5190   15.2960  -21.6802 C   0  0  0  0  0  0  0  0  0  0  0  0
  -19.5059   15.7438  -20.8305 O   0  0  0  0  0  0  0  0  0  0  0  0
  -18.0492   14.1504  -21.2680 N   0  0  0  0  0  0  0  0  0  0  0  0
  -17.4902   15.6643  -23.5288 H   0  0  0  0  0  0  0  0  0  0  0  0
  -19.1174   13.9155  -20.4346 H   0  0  0  0  0  0  0  0  0  0  0  0
  -17.5405   12.9003  -20.8139 C   0  0  0  0  0  0  0  0  0  0  0  0
  -16.8713   11.9465  -21.5353 C   0  0  0  0  0  0  0  0  0  0  0  0
  -16.6158   12.2113  -23.2259 Cl  0  0  0  0  0  0  0  0  0  0  0  0
  -16.4022   10.7732  -20.9363 C   0  0  0  0  0  0  0  0  0  0  0  0
  -16.6207   10.5706  -19.5768 C   0  0  0  0  0  0  0  0  0  0  0  0
  -17.2912   11.5153  -18.8573 C   0  0  0  0  0  0  0  0  0  0  0  0
  -17.7339   12.6436  -19.4562 C   0  0  0  0  0  0  0  0  0  0  0  0
  -18.5881   13.8509  -18.4974 Cl  0  0  0  0  0  0  0  0  0  0  0  0
  -22.0989   20.0002  -17.3135 O   0  0  0  0  0  0  0  0  0  0  0  0
  -22.8388   18.7491  -17.0280 C   0  0  0  0  0  0  0  0  0  0  0  0
  -21.8754   17.6315  -16.9507 C   0  0  0  0  0  0  0  0  0  0  0  0
  -21.8929   16.7671  -15.7871 C   0  0  0  0  0  0  0  0  0  0  0  0
  -22.4546   15.4377  -15.8086 N   0  0  0  0  0  0  0  0  0  0  0  0
  -22.7958   15.1276  -14.3951 C   0  0  0  0  0  0  0  0  0  0  0  0
  -22.9818   13.6862  -14.1086 C   0  0  0  0  0  0  0  0  0  0  0  0
  -21.7954   13.0224  -14.3739 O   0  0  0  0  0  0  0  0  0  0  0  0
  -21.4478   13.1417  -15.7058 C   0  0  0  0  0  0  0  0  0  0  0  0
  -21.3486   14.5540  -16.1919 C   0  0  0  0  0  0  0  0  0  0  0  0
 11 12  1  0  0  0
 12  1  1  0  0  0
  1  2  2  0  0  0
  2  3  1  0  0  0
  3  4  2  0  0  0
  4 13  1  0  0  0
 13 14  1  0  0  0
 14 15  2  0  0  0
 15 16  1  0  0  0
 16 17  2  0  0  0
 17 20  1  0  0  0
 20 21  1  0  0  0
 21 22  2  0  0  0
 21 23  1  0  0  0
 23 26  1  0  0  0
 26 27  2  0  0  0
 27 28  1  0  0  0
 27 29  1  0  0  0
 29 30  2  0  0  0
 30 31  1  0  0  0
 31 32  2  0  0  0
 32 33  1  0  0  0
 17 18  1  0  0  0
 18 19  2  0  0  0
  4  5  1  0  0  0
  5  6  2  0  0  0
  6  7  1  0  0  0
  7  8  2  0  0  0
  8  9  1  0  0  0
  9 10  2  0  0  0
 10 34  1  0  0  0
 34 35  1  0  0  0
 35 36  1  0  0  0
 36 37  1  0  0  0
 37 38  1  0  0  0
 38 39  1  0  0  0
 39 40  1  0  0  0
 40 41  1  0  0  0
 41 42  1  0  0  0
 42 43  1  0  0  0
 10  1  1  0  0  0
 43 38  1  0  0  0
  8  3  1  0  0  0
 19 14  1  0  0  0
 32 26  1  0  0  0
 20 24  1  0  0  0
 23 25  1  0  0  0
M  END
> <minimizedAffinity>
-6.41090

> <CNNscore>
0.0456815772

> <CNNaffinity>
6.5051054955

> <CNN_VS>
0.2971634865

> <CNNaffinity_variance>
0.2078478038

$$$$
[H]c1nc2c([H])c(OC([H])([H])C([H])([H])C([H])([H])N3C([H])([H])C([H])([H])OC([H])([H])C3([H])[H])c(OC([H])([H])[H])c([H])c2c(Oc2c([H])c([H])c(N([H])C(=O)N([H])c3c(Cl)c([H])c([H])c([H])c3Cl)c([H])c2[H])c1[H]


 43 47  0  0  0  0  0  0  0  0999 V2000
  -18.1256   16.2444  -20.9635 C   0  0  0  0  0  0  0  0  0  0  0  0
  -17.9663   15.3012  -19.9796 C   0  0  0  0  0  0  0  0  0  0  0  0
  -17.7571   13.9304  -20.4611 C   0  0  0  0  0  0  0  0  0  0  0  0
  -17.6575   12.8955  -19.6013 C   0  0  0  0  0  0  0  0  0  0  0  0
  -17.5086   11.6246  -20.0419 C   0  0  0  0  0  0  0  0  0  0  0  0
  -17.4777   11.4238  -21.4620 C   0  0  0  0  0  0  0  0  0  0  0  0
  -17.5801   12.4757  -22.2429 N   0  0  0  0  0  0  0  0  0  0  0  0
  -17.7196   13.7523  -21.7847 C   0  0  0  0  0  0  0  0  0  0  0  0
  -17.8704   14.7411  -22.7263 C   0  0  0  0  0  0  0  0  0  0  0  0
  -18.0823   16.0068  -22.3111 C   0  0  0  0  0  0  0  0  0  0  0  0
  -17.3734   18.3844  -20.1338 C   0  0  0  0  0  0  0  0  0  0  0  0
  -18.3939   17.5888  -20.5414 O   0  0  0  0  0  0  0  0  0  0  0  0
  -17.7268   13.1834  -18.1636 O   0  0  0  0  0  0  0  0  0  0  0  0
  -18.8155   12.4905  -17.5942 C   0  0  0  0  0  0  0  0  0  0  0  0
  -18.8535   11.1633  -17.3907 C   0  0  0  0  0  0  0  0  0  0  0  0
  -19.9396   10.4631  -16.8352 C   0  0  0  0  0  0  0  0  0  0  0  0
  -21.0433   11.1804  -16.4501 C   0  0  0  0  0  0  0  0  0  0  0  0
  -21.0380   12.5675  -16.6282 C   0  0  0  0  0  0  0  0  0  0  0  0
  -19.9482   13.1855  -17.1936 C   0  0  0  0  0  0  0  0  0  0  0  0
  -22.1432   10.6094  -15.7447 N   0  0  0  0  0  0  0  0  0  0  0  0
  -22.1631   10.4948  -14.3555 C   0  0  0  0  0  0  0  0  0  0  0  0
  -21.1752   11.0803  -13.5954 O   0  0  0  0  0  0  0  0  0  0  0  0
  -22.9985    9.8443  -13.5927 N   0  0  0  0  0  0  0  0  0  0  0  0
  -22.9842   10.3097  -16.3310 H   0  0  0  0  0  0  0  0  0  0  0  0
  -22.5781   10.4777  -12.4468 H   0  0  0  0  0  0  0  0  0  0  0  0
  -23.9073    9.1365  -12.7555 C   0  0  0  0  0  0  0  0  0  0  0  0
  -23.9462    7.7915  -12.4954 C   0  0  0  0  0  0  0  0  0  0  0  0
  -22.8028    6.7597  -13.2837 Cl  0  0  0  0  0  0  0  0  0  0  0  0
  -24.8877    7.2442  -11.6182 C   0  0  0  0  0  0  0  0  0  0  0  0
  -25.8056    8.0854  -10.9960 C   0  0  0  0  0  0  0  0  0  0  0  0
  -25.7731    9.4235  -11.2572 C   0  0  0  0  0  0  0  0  0  0  0  0
  -24.8525    9.9317  -12.1068 C   0  0  0  0  0  0  0  0  0  0  0  0
  -24.8290   11.6667  -12.4160 Cl  0  0  0  0  0  0  0  0  0  0  0  0
  -18.2830   17.1528  -23.1152 O   0  0  0  0  0  0  0  0  0  0  0  0
  -19.5966   17.1437  -23.8000 C   0  0  0  0  0  0  0  0  0  0  0  0
  -20.3684   18.3274  -23.3682 C   0  0  0  0  0  0  0  0  0  0  0  0
  -21.7915   18.1898  -23.1284 C   0  0  0  0  0  0  0  0  0  0  0  0
  -22.7875   18.8715  -23.9199 N   0  0  0  0  0  0  0  0  0  0  0  0
  -23.1657   17.9142  -24.9928 C   0  0  0  0  0  0  0  0  0  0  0  0
  -23.8392   18.5312  -26.1591 C   0  0  0  0  0  0  0  0  0  0  0  0
  -22.9746   19.4427  -26.7422 O   0  0  0  0  0  0  0  0  0  0  0  0
  -22.6549   20.4571  -25.8602 C   0  0  0  0  0  0  0  0  0  0  0  0
  -22.0800   19.9847  -24.5613 C   0  0  0  0  0  0  0  0  0  0  0  0
 11 12  1  0  0  0
 12  1  1  0  0  0
  1  2  2  0  0  0
  2  3  1  0  0  0
  3  4  2  0  0  0
  4 13  1  0  0  0
 13 14  1  0  0  0
 14 15  2  0  0  0
 15 16  1  0  0  0
 16 17  2  0  0  0
 17 20  1  0  0  0
 20 21  1  0  0  0
 21 22  2  0  0  0
 21 23  1  0  0  0
 23 26  1  0  0  0
 26 27  2  0  0  0
 27 28  1  0  0  0
 27 29  1  0  0  0
 29 30  2  0  0  0
 30 31  1  0  0  0
 31 32  2  0  0  0
 32 33  1  0  0  0
 17 18  1  0  0  0
 18 19  2  0  0  0
  4  5  1  0  0  0
  5  6  2  0  0  0
  6  7  1  0  0  0
  7  8  2  0  0  0
  8  9  1  0  0  0
  9 10  2  0  0  0
 10 34  1  0  0  0
 34 35  1  0  0  0
 35 36  1  0  0  0
 36 37  1  0  0  0
 37 38  1  0  0  0
 38 39  1  0  0  0
 39 40  1  0  0  0
 40 41  1  0  0  0
 41 42  1  0  0  0
 42 43  1  0  0  0
 10  1  1  0  0  0
 43 38  1  0  0  0
  8  3  1  0  0  0
 19 14  1  0  0  0
 32 26  1  0  0  0
 20 24  1  0  0  0
 23 25  1  0  0  0
M  END
> <minimizedAffinity>
-7.09229

> <CNNscore>
0.0377165973

> <CNNaffinity>
6.0601243973

> <CNN_VS>
0.2285672724

> <CNNaffinity_variance>
0.1090273410

$$$$
[H]c1nc2c([H])c(OC([H])([H])C([H])([H])C([H])([H])N3C([H])([H])C([H])([H])OC([H])([H])C3([H])[H])c(OC([H])([H])[H])c([H])c2c(Oc2c([H])c([H])c(N([H])C(=O)N([H])c3c(Cl)c([H])c([H])c([H])c3Cl)c([H])c2[H])c1[H]


 43 47  0  0  0  0  0  0  0  0999 V2000
  -22.6542   15.5853  -14.7698 C   0  0  0  0  0  0  0  0  0  0  0  0
  -21.3904   15.7095  -15.2900 C   0  0  0  0  0  0  0  0  0  0  0  0
  -20.9931   17.0795  -15.6367 C   0  0  0  0  0  0  0  0  0  0  0  0
  -19.8051   17.3351  -16.2227 C   0  0  0  0  0  0  0  0  0  0  0  0
  -19.4529   18.5909  -16.5840 C   0  0  0  0  0  0  0  0  0  0  0  0
  -20.4037   19.6351  -16.3320 C   0  0  0  0  0  0  0  0  0  0  0  0
  -21.5422   19.3168  -15.7583 N   0  0  0  0  0  0  0  0  0  0  0  0
  -21.8797   18.0481  -15.3902 C   0  0  0  0  0  0  0  0  0  0  0  0
  -23.1299   17.8656  -14.8511 C   0  0  0  0  0  0  0  0  0  0  0  0
  -23.5273   16.6147  -14.5405 C   0  0  0  0  0  0  0  0  0  0  0  0
  -22.3319   13.1916  -14.7852 C   0  0  0  0  0  0  0  0  0  0  0  0
  -23.1100   14.2582  -14.4727 O   0  0  0  0  0  0  0  0  0  0  0  0
  -18.9008   16.2059  -16.4713 O   0  0  0  0  0  0  0  0  0  0  0  0
  -18.8800   15.9110  -17.8505 C   0  0  0  0  0  0  0  0  0  0  0  0
  -19.0619   16.8151  -18.8273 C   0  0  0  0  0  0  0  0  0  0  0  0
  -19.0551   16.5275  -20.2041 C   0  0  0  0  0  0  0  0  0  0  0  0
  -18.8277   15.2323  -20.5937 C   0  0  0  0  0  0  0  0  0  0  0  0
  -18.6158   14.2625  -19.6086 C   0  0  0  0  0  0  0  0  0  0  0  0
  -18.6528   14.6108  -18.2794 C   0  0  0  0  0  0  0  0  0  0  0  0
  -18.6525   14.8413  -21.9538 N   0  0  0  0  0  0  0  0  0  0  0  0
  -17.4463   15.0112  -22.6318 C   0  0  0  0  0  0  0  0  0  0  0  0
  -16.3203   15.4240  -21.9548 O   0  0  0  0  0  0  0  0  0  0  0  0
  -17.1879   14.8750  -23.9037 N   0  0  0  0  0  0  0  0  0  0  0  0
  -19.4833   14.3637  -22.4254 H   0  0  0  0  0  0  0  0  0  0  0  0
  -15.8262   14.8621  -23.7129 H   0  0  0  0  0  0  0  0  0  0  0  0
  -16.9003   14.7276  -25.2905 C   0  0  0  0  0  0  0  0  0  0  0  0
  -17.2570   13.7000  -26.1242 C   0  0  0  0  0  0  0  0  0  0  0  0
  -18.1309   12.3605  -25.4645 Cl  0  0  0  0  0  0  0  0  0  0  0  0
  -16.9248   13.7127  -27.4825 C   0  0  0  0  0  0  0  0  0  0  0  0
  -16.2158   14.7938  -27.9981 C   0  0  0  0  0  0  0  0  0  0  0  0
  -15.8546   15.8151  -27.1699 C   0  0  0  0  0  0  0  0  0  0  0  0
  -16.1883   15.7836  -25.8603 C   0  0  0  0  0  0  0  0  0  0  0  0
  -15.7163   17.1236  -24.8172 Cl  0  0  0  0  0  0  0  0  0  0  0  0
  -24.7734   16.2175  -14.0023 O   0  0  0  0  0  0  0  0  0  0  0  0
  -25.5343   17.3534  -13.4319 C   0  0  0  0  0  0  0  0  0  0  0  0
  -25.6338   17.1746  -11.9686 C   0  0  0  0  0  0  0  0  0  0  0  0
  -24.6184   17.7631  -11.1176 C   0  0  0  0  0  0  0  0  0  0  0  0
  -23.9320   18.9882  -11.4514 N   0  0  0  0  0  0  0  0  0  0  0  0
  -22.4898   18.7115  -11.2188 C   0  0  0  0  0  0  0  0  0  0  0  0
  -21.6455   19.9208  -11.0799 C   0  0  0  0  0  0  0  0  0  0  0  0
  -22.0815   20.6450   -9.9827 O   0  0  0  0  0  0  0  0  0  0  0  0
  -23.3869   21.0648  -10.1527 C   0  0  0  0  0  0  0  0  0  0  0  0
  -24.3562   19.9605  -10.4385 C   0  0  0  0  0  0  0  0  0  0  0  0
 11 12  1  0  0  0
 12  1  1  0  0  0
  1  2  2  0  0  0
  2  3  1  0  0  0
  3  4  2  0  0  0
  4 13  1  0  0  0
 13 14  1  0  0  0
 14 15  2  0  0  0
 15 16  1  0  0  0
 16 17  2  0  0  0
 17 20  1  0  0  0
 20 21  1  0  0  0
 21 22  2  0  0  0
 21 23  1  0  0  0
 23 26  1  0  0  0
 26 27  2  0  0  0
 27 28  1  0  0  0
 27 29  1  0  0  0
 29 30  2  0  0  0
 30 31  1  0  0  0
 31 32  2  0  0  0
 32 33  1  0  0  0
 17 18  1  0  0  0
 18 19  2  0  0  0
  4  5  1  0  0  0
  5  6  2  0  0  0
  6  7  1  0  0  0
  7  8  2  0  0  0
  8  9  1  0  0  0
  9 10  2  0  0  0
 10 34  1  0  0  0
 34 35  1  0  0  0
 35 36  1  0  0  0
 36 37  1  0  0  0
 37 38  1  0  0  0
 38 39  1  0  0  0
 39 40  1  0  0  0
 40 41  1  0  0  0
 41 42  1  0  0  0
 42 43  1  0  0  0
 10  1  1  0  0  0
 43 38  1  0  0  0
  8  3  1  0  0  0
 19 14  1  0  0  0
 32 26  1  0  0  0
 20 24  1  0  0  0
 23 25  1  0  0  0
M  END
> <minimizedAffinity>
-6.41922

> <CNNscore>
0.0370794088

> <CNNaffinity>
5.9296178818

> <CNN_VS>
0.2198667228

> <CNNaffinity_variance>
0.0728855878

$$$$
[H]c1nc2c([H])c(OC([H])([H])C([H])([H])C([H])([H])N3C([H])([H])C([H])([H])C([H])([H])C3([H])[H])c(OC([H])([H])[H])c([H])c2c(Oc2c([H])c([H])c(N([H])C(=O)N([H])c3c(Cl)c([H])c([H])c([H])c3Cl)c([H])c2F)c1[H]


 43 47  0  0  0  0  0  0  0  0999 V2000
  -17.7643   13.5142  -22.3743 O   0  0  0  0  0  0  0  0  0  0  0  0
  -18.9073   11.7673  -18.8186 C   0  0  0  0  0  0  0  0  0  0  0  0
  -18.5126   12.3474  -20.0129 C   0  0  0  0  0  0  0  0  0  0  0  0
  -17.4030   11.8714  -20.6925 C   0  0  0  0  0  0  0  0  0  0  0  0
  -17.0051   12.4574  -21.9074 C   0  0  0  0  0  0  0  0  0  0  0  0
  -15.8996   11.9369  -22.5366 C   0  0  0  0  0  0  0  0  0  0  0  0
  -15.2086   10.8737  -21.9876 C   0  0  0  0  0  0  0  0  0  0  0  0
  -15.6285   10.3363  -20.8087 N   0  0  0  0  0  0  0  0  0  0  0  0
  -16.6950   10.8167  -20.1726 C   0  0  0  0  0  0  0  0  0  0  0  0
  -17.0704   10.2091  -18.9655 C   0  0  0  0  0  0  0  0  0  0  0  0
  -18.1779   10.7095  -18.3184 C   0  0  0  0  0  0  0  0  0  0  0  0
  -20.3294   13.5791  -17.9503 C   0  0  0  0  0  0  0  0  0  0  0  0
  -20.0031   12.2158  -18.1211 O   0  0  0  0  0  0  0  0  0  0  0  0
  -18.5781   10.1397  -17.1329 O   0  0  0  0  0  0  0  0  0  0  0  0
  -18.6702    8.7726  -16.8672 C   0  0  0  0  0  0  0  0  0  0  0  0
  -19.8479    8.6128  -15.8899 C   0  0  0  0  0  0  0  0  0  0  0  0
  -19.8995    9.9088  -15.1152 C   0  0  0  0  0  0  0  0  0  0  0  0
  -19.9899    9.7033  -13.6902 N   0  0  0  0  0  0  0  0  0  0  0  0
  -19.0510    8.7266  -13.2049 C   0  0  0  0  0  0  0  0  0  0  0  0
  -19.1010    8.9621  -11.7017 C   0  0  0  0  0  0  0  0  0  0  0  0
  -19.3001   10.4722  -11.6345 C   0  0  0  0  0  0  0  0  0  0  0  0
  -19.4336   10.9197  -13.0697 C   0  0  0  0  0  0  0  0  0  0  0  0
  -17.7267   14.7323  -21.7222 C   0  0  0  0  0  0  0  0  0  0  0  0
  -18.8064   15.2004  -20.9881 C   0  0  0  0  0  0  0  0  0  0  0  0
  -18.7516   16.4120  -20.3504 C   0  0  0  0  0  0  0  0  0  0  0  0
  -17.6348   17.2569  -20.3850 C   0  0  0  0  0  0  0  0  0  0  0  0
  -16.5711   16.7909  -21.1115 C   0  0  0  0  0  0  0  0  0  0  0  0
  -16.6248   15.5523  -21.7643 C   0  0  0  0  0  0  0  0  0  0  0  0
  -15.5477   15.1752  -22.4800 F   0  0  0  0  0  0  0  0  0  0  0  0
  -17.6149   18.4662  -19.6845 N   0  0  0  0  0  0  0  0  0  0  0  0
  -18.6958   19.3409  -19.6213 C   0  0  0  0  0  0  0  0  0  0  0  0
  -19.7797   19.0929  -20.1878 O   0  0  0  0  0  0  0  0  0  0  0  0
  -18.5766   20.5596  -18.8925 N   0  0  0  0  0  0  0  0  0  0  0  0
  -16.7008   18.6952  -19.1888 H   0  0  0  0  0  0  0  0  0  0  0  0
  -17.6989   20.8321  -18.3930 H   0  0  0  0  0  0  0  0  0  0  0  0
  -19.6920   21.4322  -18.8448 C   0  0  0  0  0  0  0  0  0  0  0  0
  -20.5562   21.3510  -17.7850 C   0  0  0  0  0  0  0  0  0  0  0  0
  -20.3020   20.2245  -16.4990 Cl  0  0  0  0  0  0  0  0  0  0  0  0
  -21.6702   22.1923  -17.7195 C   0  0  0  0  0  0  0  0  0  0  0  0
  -21.8812   23.0935  -18.7268 C   0  0  0  0  0  0  0  0  0  0  0  0
  -21.0317   23.1953  -19.7989 C   0  0  0  0  0  0  0  0  0  0  0  0
  -19.9430   22.3577  -19.8416 C   0  0  0  0  0  0  0  0  0  0  0  0
  -18.8204   22.4343  -21.1813 Cl  0  0  0  0  0  0  0  0  0  0  0  0
 12 13  1  0  0  0
 13  2  1  0  0  0
  2  3  2  0  0  0
  3  4  1  0  0  0
  4  5  2  0  0  0
  5  1  1  0  0  0
  1 23  1  0  0  0
 23 24  2  0  0  0
 24 25  1  0  0  0
 25 26  2  0  0  0
 26 30  1  0  0  0
 30 31  1  0  0  0
 31 32  2  0  0  0
 31 33  1  0  0  0
 33 36  1  0  0  0
 36 37  2  0  0  0
 37 38  1  0  0  0
 37 39  1  0  0  0
 39 40  2  0  0  0
 40 41  1  0  0  0
 41 42  2  0  0  0
 42 43  1  0  0  0
 26 27  1  0  0  0
 27 28  2  0  0  0
 28 29  1  0  0  0
  5  6  1  0  0  0
  6  7  2  0  0  0
  7  8  1  0  0  0
  8  9  2  0  0  0
  9 10  1  0  0  0
 10 11  2  0  0  0
 11 14  1  0  0  0
 14 15  1  0  0  0
 15 16  1  0  0  0
 16 17  1  0  0  0
 17 18  1  0  0  0
 18 19  1  0  0  0
 19 20  1  0  0  0
 20 21  1  0  0  0
 21 22  1  0  0  0
 11  2  1  0  0  0
 22 18  1  0  0  0
  9  4  1  0  0  0
 28 23  1  0  0  0
 42 36  1  0  0  0
 30 34  1  0  0  0
 33 35  1  0  0  0
M  END
> <minimizedAffinity>
-8.35684

> <CNNscore>
0.7895475030

> <CNNaffinity>
7.7601137161

> <CNN_VS>
6.1269783974

> <CNNaffinity_variance>
0.0315922573

$$$$
[H]c1nc2c([H])c(OC([H])([H])C([H])([H])C([H])([H])N3C([H])([H])C([H])([H])C([H])([H])C3([H])[H])c(OC([H])([H])[H])c([H])c2c(Oc2c([H])c([H])c(N([H])C(=O)N([H])c3c(Cl)c([H])c([H])c([H])c3Cl)c([H])c2F)c1[H]


 43 47  0  0  0  0  0  0  0  0999 V2000
  -17.4532   13.0415  -22.9838 O   0  0  0  0  0  0  0  0  0  0  0  0
  -19.2604   12.4547  -19.3244 C   0  0  0  0  0  0  0  0  0  0  0  0
  -18.6432   12.6451  -20.5498 C   0  0  0  0  0  0  0  0  0  0  0  0
  -17.4837   11.9564  -20.8674 C   0  0  0  0  0  0  0  0  0  0  0  0
  -16.8599   12.1463  -22.1134 C   0  0  0  0  0  0  0  0  0  0  0  0
  -15.7155   11.4301  -22.3713 C   0  0  0  0  0  0  0  0  0  0  0  0
  -15.2024   10.5551  -21.4331 C   0  0  0  0  0  0  0  0  0  0  0  0
  -15.8386   10.4016  -20.2386 N   0  0  0  0  0  0  0  0  0  0  0  0
  -16.9487   11.0804  -19.9561 C   0  0  0  0  0  0  0  0  0  0  0  0
  -17.5508   10.8669  -18.7076 C   0  0  0  0  0  0  0  0  0  0  0  0
  -18.7015   11.5692  -18.4273 C   0  0  0  0  0  0  0  0  0  0  0  0
  -20.8221   14.3428  -19.5584 C   0  0  0  0  0  0  0  0  0  0  0  0
  -20.4112   13.1219  -18.9799 O   0  0  0  0  0  0  0  0  0  0  0  0
  -19.3218   11.3862  -17.2141 O   0  0  0  0  0  0  0  0  0  0  0  0
  -19.7325   10.1656  -16.6761 C   0  0  0  0  0  0  0  0  0  0  0  0
  -20.4588   10.5078  -15.3636 C   0  0  0  0  0  0  0  0  0  0  0  0
  -21.2961   11.7252  -15.6789 C   0  0  0  0  0  0  0  0  0  0  0  0
  -22.3909   11.9031  -14.7565 N   0  0  0  0  0  0  0  0  0  0  0  0
  -23.0332   10.6644  -14.4047 C   0  0  0  0  0  0  0  0  0  0  0  0
  -23.8671   11.0740  -13.1986 C   0  0  0  0  0  0  0  0  0  0  0  0
  -22.9624   12.1079  -12.5375 C   0  0  0  0  0  0  0  0  0  0  0  0
  -21.7767   12.2471  -13.4609 C   0  0  0  0  0  0  0  0  0  0  0  0
  -17.4207   14.3958  -22.7096 C   0  0  0  0  0  0  0  0  0  0  0  0
  -16.6917   14.9076  -21.6464 C   0  0  0  0  0  0  0  0  0  0  0  0
  -16.6735   16.2532  -21.3885 C   0  0  0  0  0  0  0  0  0  0  0  0
  -17.3694   17.1988  -22.1525 C   0  0  0  0  0  0  0  0  0  0  0  0
  -18.0883   16.6890  -23.2011 C   0  0  0  0  0  0  0  0  0  0  0  0
  -18.1083   15.3135  -23.4668 C   0  0  0  0  0  0  0  0  0  0  0  0
  -18.8594   14.8869  -24.5005 F   0  0  0  0  0  0  0  0  0  0  0  0
  -17.2865   18.5655  -21.8712 N   0  0  0  0  0  0  0  0  0  0  0  0
  -18.3917   19.3675  -21.6010 C   0  0  0  0  0  0  0  0  0  0  0  0
  -19.5517   18.9079  -21.5806 O   0  0  0  0  0  0  0  0  0  0  0  0
  -18.2094   20.7561  -21.3387 N   0  0  0  0  0  0  0  0  0  0  0  0
  -16.3047   18.9774  -21.8781 H   0  0  0  0  0  0  0  0  0  0  0  0
  -17.2665   21.2090  -21.3389 H   0  0  0  0  0  0  0  0  0  0  0  0
  -19.3514   21.5499  -21.0673 C   0  0  0  0  0  0  0  0  0  0  0  0
  -19.7918   21.6632  -19.7751 C   0  0  0  0  0  0  0  0  0  0  0  0
  -18.9725   20.8778  -18.4715 Cl  0  0  0  0  0  0  0  0  0  0  0  0
  -20.9224   22.4306  -19.4819 C   0  0  0  0  0  0  0  0  0  0  0  0
  -21.5778   23.0634  -20.5024 C   0  0  0  0  0  0  0  0  0  0  0  0
  -21.1578   22.9665  -21.8046 C   0  0  0  0  0  0  0  0  0  0  0  0
  -20.0438   22.2063  -22.0687 C   0  0  0  0  0  0  0  0  0  0  0  0
  -19.4554   22.0396  -23.7079 Cl  0  0  0  0  0  0  0  0  0  0  0  0
 12 13  1  0  0  0
 13  2  1  0  0  0
  2  3  2  0  0  0
  3  4  1  0  0  0
  4  5  2  0  0  0
  5  1  1  0  0  0
  1 23  1  0  0  0
 23 24  2  0  0  0
 24 25  1  0  0  0
 25 26  2  0  0  0
 26 30  1  0  0  0
 30 31  1  0  0  0
 31 32  2  0  0  0
 31 33  1  0  0  0
 33 36  1  0  0  0
 36 37  2  0  0  0
 37 38  1  0  0  0
 37 39  1  0  0  0
 39 40  2  0  0  0
 40 41  1  0  0  0
 41 42  2  0  0  0
 42 43  1  0  0  0
 26 27  1  0  0  0
 27 28  2  0  0  0
 28 29  1  0  0  0
  5  6  1  0  0  0
  6  7  2  0  0  0
  7  8  1  0  0  0
  8  9  2  0  0  0
  9 10  1  0  0  0
 10 11  2  0  0  0
 11 14  1  0  0  0
 14 15  1  0  0  0
 15 16  1  0  0  0
 16 17  1  0  0  0
 17 18  1  0  0  0
 18 19  1  0  0  0
 19 20  1  0  0  0
 20 21  1  0  0  0
 21 22  1  0  0  0
 11  2  1  0  0  0
 22 18  1  0  0  0
  9  4  1  0  0  0
 28 23  1  0  0  0
 42 36  1  0  0  0
 30 34  1  0  0  0
 33 35  1  0  0  0
M  END
> <minimizedAffinity>
-7.95321

> <CNNscore>
0.3861833513

> <CNNaffinity>
7.4561805725

> <CNN_VS>
2.8794527054

> <CNNaffinity_variance>
0.0383295231

$$$$
[H]c1nc2c([H])c(OC([H])([H])C([H])([H])C([H])([H])N3C([H])([H])C([H])([H])C([H])([H])C3([H])[H])c(OC([H])([H])[H])c([H])c2c(Oc2c([H])c([H])c(N([H])C(=O)N([H])c3c(Cl)c([H])c([H])c([H])c3Cl)c([H])c2F)c1[H]


 43 47  0  0  0  0  0  0  0  0999 V2000
  -19.6221   11.8969  -17.4426 O   0  0  0  0  0  0  0  0  0  0  0  0
  -21.5822   12.1878  -13.8267 C   0  0  0  0  0  0  0  0  0  0  0  0
  -20.9192   12.0787  -15.0380 C   0  0  0  0  0  0  0  0  0  0  0  0
  -20.3194   10.8852  -15.4060 C   0  0  0  0  0  0  0  0  0  0  0  0
  -19.6503   10.7732  -16.6378 C   0  0  0  0  0  0  0  0  0  0  0  0
  -19.0804    9.5616  -16.9481 C   0  0  0  0  0  0  0  0  0  0  0  0
  -19.1669    8.4949  -16.0740 C   0  0  0  0  0  0  0  0  0  0  0  0
  -19.8244    8.6471  -14.8910 N   0  0  0  0  0  0  0  0  0  0  0  0
  -20.3873    9.8072  -14.5590 C   0  0  0  0  0  0  0  0  0  0  0  0
  -21.0513    9.8875  -13.3262 C   0  0  0  0  0  0  0  0  0  0  0  0
  -21.6349   11.0897  -12.9946 C   0  0  0  0  0  0  0  0  0  0  0  0
  -23.4072   13.8340  -13.9619 C   0  0  0  0  0  0  0  0  0  0  0  0
  -22.1876   13.3571  -13.4334 O   0  0  0  0  0  0  0  0  0  0  0  0
  -22.2961   11.2074  -11.7949 O   0  0  0  0  0  0  0  0  0  0  0  0
  -21.7538   11.6831  -10.6001 C   0  0  0  0  0  0  0  0  0  0  0  0
  -21.2132   10.4460   -9.8619 C   0  0  0  0  0  0  0  0  0  0  0  0
  -19.8499   10.8517   -9.3528 C   0  0  0  0  0  0  0  0  0  0  0  0
  -18.9222    9.7482   -9.3032 N   0  0  0  0  0  0  0  0  0  0  0  0
  -18.9108    8.9717  -10.5147 C   0  0  0  0  0  0  0  0  0  0  0  0
  -17.6466    8.1408  -10.3439 C   0  0  0  0  0  0  0  0  0  0  0  0
  -16.7313    9.1211   -9.6188 C   0  0  0  0  0  0  0  0  0  0  0  0
  -17.5766   10.3471   -9.3734 C   0  0  0  0  0  0  0  0  0  0  0  0
  -18.8497   11.9058  -18.5889 C   0  0  0  0  0  0  0  0  0  0  0  0
  -17.6143   11.2774  -18.6411 C   0  0  0  0  0  0  0  0  0  0  0  0
  -16.8616   11.2990  -19.7858 C   0  0  0  0  0  0  0  0  0  0  0  0
  -17.2623   11.9392  -20.9656 C   0  0  0  0  0  0  0  0  0  0  0  0
  -18.4827   12.5588  -20.9094 C   0  0  0  0  0  0  0  0  0  0  0  0
  -19.2542   12.5379  -19.7400 C   0  0  0  0  0  0  0  0  0  0  0  0
  -20.4317   13.1920  -19.7557 F   0  0  0  0  0  0  0  0  0  0  0  0
  -16.4746   11.8987  -22.1195 N   0  0  0  0  0  0  0  0  0  0  0  0
  -16.5285   12.8584  -23.1263 C   0  0  0  0  0  0  0  0  0  0  0  0
  -17.2908   13.8441  -23.0587 O   0  0  0  0  0  0  0  0  0  0  0  0
  -15.6953   12.7250  -24.2746 N   0  0  0  0  0  0  0  0  0  0  0  0
  -15.8125   11.0683  -22.1951 H   0  0  0  0  0  0  0  0  0  0  0  0
  -15.0323   11.9255  -24.3980 H   0  0  0  0  0  0  0  0  0  0  0  0
  -15.7705   13.7157  -25.2848 C   0  0  0  0  0  0  0  0  0  0  0  0
  -14.9223   14.7900  -25.2286 C   0  0  0  0  0  0  0  0  0  0  0  0
  -13.7520   14.9492  -23.9667 Cl  0  0  0  0  0  0  0  0  0  0  0  0
  -14.9836   15.7868  -26.2062 C   0  0  0  0  0  0  0  0  0  0  0  0
  -15.9004   15.6714  -27.2149 C   0  0  0  0  0  0  0  0  0  0  0  0
  -16.7611   14.6064  -27.2946 C   0  0  0  0  0  0  0  0  0  0  0  0
  -16.6823   13.6385  -26.3221 C   0  0  0  0  0  0  0  0  0  0  0  0
  -17.7515   12.2544  -26.3633 Cl  0  0  0  0  0  0  0  0  0  0  0  0
 12 13  1  0  0  0
 13  2  1  0  0  0
  2  3  2  0  0  0
  3  4  1  0  0  0
  4  5  2  0  0  0
  5  1  1  0  0  0
  1 23  1  0  0  0
 23 24  2  0  0  0
 24 25  1  0  0  0
 25 26  2  0  0  0
 26 30  1  0  0  0
 30 31  1  0  0  0
 31 32  2  0  0  0
 31 33  1  0  0  0
 33 36  1  0  0  0
 36 37  2  0  0  0
 37 38  1  0  0  0
 37 39  1  0  0  0
 39 40  2  0  0  0
 40 41  1  0  0  0
 41 42  2  0  0  0
 42 43  1  0  0  0
 26 27  1  0  0  0
 27 28  2  0  0  0
 28 29  1  0  0  0
  5  6  1  0  0  0
  6  7  2  0  0  0
  7  8  1  0  0  0
  8  9  2  0  0  0
  9 10  1  0  0  0
 10 11  2  0  0  0
 11 14  1  0  0  0
 14 15  1  0  0  0
 15 16  1  0  0  0
 16 17  1  0  0  0
 17 18  1  0  0  0
 18 19  1  0  0  0
 19 20  1  0  0  0
 20 21  1  0  0  0
 21 22  1  0  0  0
 11  2  1  0  0  0
 22 18  1  0  0  0
  9  4  1  0  0  0
 28 23  1  0  0  0
 42 36  1  0  0  0
 30 34  1  0  0  0
 33 35  1  0  0  0
M  END
> <minimizedAffinity>
-9.48895

> <CNNscore>
0.3308955431

> <CNNaffinity>
7.2218413353

> <CNN_VS>
2.3896751404

> <CNNaffinity_variance>
0.0838506818

$$$$
[H]c1nc2c([H])c(OC([H])([H])C([H])([H])C([H])([H])N3C([H])([H])C([H])([H])C([H])([H])C3([H])[H])c(OC([H])([H])[H])c([H])c2c(Oc2c([H])c([H])c(N([H])C(=O)N([H])c3c(Cl)c([H])c([H])c([H])c3Cl)c([H])c2F)c1[H]


 43 47  0  0  0  0  0  0  0  0999 V2000
  -17.5752   12.9358  -22.7945 O   0  0  0  0  0  0  0  0  0  0  0  0
  -19.3621   12.5256  -19.1012 C   0  0  0  0  0  0  0  0  0  0  0  0
  -18.7519   12.6567  -20.3378 C   0  0  0  0  0  0  0  0  0  0  0  0
  -17.6082   11.9342  -20.6373 C   0  0  0  0  0  0  0  0  0  0  0  0
  -16.9914   12.0639  -21.8945 C   0  0  0  0  0  0  0  0  0  0  0  0
  -15.8629   11.3166  -22.1332 C   0  0  0  0  0  0  0  0  0  0  0  0
  -15.3583   10.4689  -21.1656 C   0  0  0  0  0  0  0  0  0  0  0  0
  -15.9872   10.3740  -19.9612 N   0  0  0  0  0  0  0  0  0  0  0  0
  -17.0820   11.0841  -19.6968 C   0  0  0  0  0  0  0  0  0  0  0  0
  -17.6775   10.9306  -18.4363 C   0  0  0  0  0  0  0  0  0  0  0  0
  -18.8123   11.6651  -18.1746 C   0  0  0  0  0  0  0  0  0  0  0  0
  -21.0372   14.2702  -19.5584 C   0  0  0  0  0  0  0  0  0  0  0  0
  -20.4973   13.2275  -18.7740 O   0  0  0  0  0  0  0  0  0  0  0  0
  -19.4257   11.5410  -16.9505 O   0  0  0  0  0  0  0  0  0  0  0  0
  -20.2774   10.5072  -16.5583 C   0  0  0  0  0  0  0  0  0  0  0  0
  -19.8774   10.1581  -15.1141 C   0  0  0  0  0  0  0  0  0  0  0  0
  -19.1591    8.8325  -15.2106 C   0  0  0  0  0  0  0  0  0  0  0  0
  -19.3906    7.9881  -14.0641 N   0  0  0  0  0  0  0  0  0  0  0  0
  -19.0568    8.6297  -12.8200 C   0  0  0  0  0  0  0  0  0  0  0  0
  -19.7111    7.7045  -11.8034 C   0  0  0  0  0  0  0  0  0  0  0  0
  -20.9660    7.2669  -12.5506 C   0  0  0  0  0  0  0  0  0  0  0  0
  -20.8550    7.8972  -13.9173 C   0  0  0  0  0  0  0  0  0  0  0  0
  -17.5202   14.2986  -22.5703 C   0  0  0  0  0  0  0  0  0  0  0  0
  -16.8564   14.8316  -21.4752 C   0  0  0  0  0  0  0  0  0  0  0  0
  -16.8147   16.1854  -21.2681 C   0  0  0  0  0  0  0  0  0  0  0  0
  -17.4215   17.1191  -22.1178 C   0  0  0  0  0  0  0  0  0  0  0  0
  -18.0763   16.5884  -23.1977 C   0  0  0  0  0  0  0  0  0  0  0  0
  -18.1201   15.2044  -23.4116 C   0  0  0  0  0  0  0  0  0  0  0  0
  -18.8055   14.7583  -24.4821 F   0  0  0  0  0  0  0  0  0  0  0  0
  -17.3165   18.4930  -21.8833 N   0  0  0  0  0  0  0  0  0  0  0  0
  -18.4055   19.3164  -21.6121 C   0  0  0  0  0  0  0  0  0  0  0  0
  -19.5697   18.8716  -21.5479 O   0  0  0  0  0  0  0  0  0  0  0  0
  -18.2013   20.7106  -21.3997 N   0  0  0  0  0  0  0  0  0  0  0  0
  -16.3306   18.8928  -21.9279 H   0  0  0  0  0  0  0  0  0  0  0  0
  -17.2538   21.1520  -21.4378 H   0  0  0  0  0  0  0  0  0  0  0  0
  -19.3272   21.5261  -21.1260 C   0  0  0  0  0  0  0  0  0  0  0  0
  -19.9729   22.1408  -22.1661 C   0  0  0  0  0  0  0  0  0  0  0  0
  -19.4566   21.9246  -23.8014 Cl  0  0  0  0  0  0  0  0  0  0  0  0
  -21.0790   22.9595  -21.9223 C   0  0  0  0  0  0  0  0  0  0  0  0
  -21.5033   23.1352  -20.6337 C   0  0  0  0  0  0  0  0  0  0  0  0
  -20.8750   22.5315  -19.5744 C   0  0  0  0  0  0  0  0  0  0  0  0
  -19.7895   21.7310  -19.8385 C   0  0  0  0  0  0  0  0  0  0  0  0
  -18.9414   20.9323  -18.5334 Cl  0  0  0  0  0  0  0  0  0  0  0  0
 12 13  1  0  0  0
 13  2  1  0  0  0
  2  3  2  0  0  0
  3  4  1  0  0  0
  4  5  2  0  0  0
  5  1  1  0  0  0
  1 23  1  0  0  0
 23 24  2  0  0  0
 24 25  1  0  0  0
 25 26  2  0  0  0
 26 30  1  0  0  0
 30 31  1  0  0  0
 31 32  2  0  0  0
 31 33  1  0  0  0
 33 36  1  0  0  0
 36 37  2  0  0  0
 37 38  1  0  0  0
 37 39  1  0  0  0
 39 40  2  0  0  0
 40 41  1  0  0  0
 41 42  2  0  0  0
 42 43  1  0  0  0
 26 27  1  0  0  0
 27 28  2  0  0  0
 28 29  1  0  0  0
  5  6  1  0  0  0
  6  7  2  0  0  0
  7  8  1  0  0  0
  8  9  2  0  0  0
  9 10  1  0  0  0
 10 11  2  0  0  0
 11 14  1  0  0  0
 14 15  1  0  0  0
 15 16  1  0  0  0
 16 17  1  0  0  0
 17 18  1  0  0  0
 18 19  1  0  0  0
 19 20  1  0  0  0
 20 21  1  0  0  0
 21 22  1  0  0  0
 11  2  1  0  0  0
 22 18  1  0  0  0
  9  4  1  0  0  0
 28 23  1  0  0  0
 42 36  1  0  0  0
 30 34  1  0  0  0
 33 35  1  0  0  0
M  END
> <minimizedAffinity>
-8.22264

> <CNNscore>
0.2749708891

> <CNNaffinity>
7.2371330261

> <CNN_VS>
1.9900008440

> <CNNaffinity_variance>
0.0582930520

$$$$
[H]c1nc2c([H])c(OC([H])([H])C([H])([H])C([H])([H])N3C([H])([H])C([H])([H])C([H])([H])C3([H])[H])c(OC([H])([H])[H])c([H])c2c(Oc2c([H])c([H])c(N([H])C(=O)N([H])c3c(Cl)c([H])c([H])c([H])c3Cl)c([H])c2F)c1[H]


 43 47  0  0  0  0  0  0  0  0999 V2000
  -18.8878   15.0369  -18.8388 O   0  0  0  0  0  0  0  0  0  0  0  0
  -19.6052   11.4741  -16.8914 C   0  0  0  0  0  0  0  0  0  0  0  0
  -19.3561   12.6650  -17.5534 C   0  0  0  0  0  0  0  0  0  0  0  0
  -18.6236   12.6756  -18.7294 C   0  0  0  0  0  0  0  0  0  0  0  0
  -18.3747   13.8843  -19.4038 C   0  0  0  0  0  0  0  0  0  0  0  0
  -17.6466   13.8286  -20.5682 C   0  0  0  0  0  0  0  0  0  0  0  0
  -17.1791   12.6221  -21.0529 C   0  0  0  0  0  0  0  0  0  0  0  0
  -17.4430   11.4750  -20.3676 N   0  0  0  0  0  0  0  0  0  0  0  0
  -18.1448   11.4933  -19.2362 C   0  0  0  0  0  0  0  0  0  0  0  0
  -18.3807   10.2719  -18.5884 C   0  0  0  0  0  0  0  0  0  0  0  0
  -19.1122   10.3008  -17.4222 C   0  0  0  0  0  0  0  0  0  0  0  0
  -21.7324   11.2858  -15.6672 C   0  0  0  0  0  0  0  0  0  0  0  0
  -20.3287   11.4301  -15.7240 O   0  0  0  0  0  0  0  0  0  0  0  0
  -19.3655    9.1238  -16.7585 O   0  0  0  0  0  0  0  0  0  0  0  0
  -18.7188    8.6734  -15.6066 C   0  0  0  0  0  0  0  0  0  0  0  0
  -19.6688    7.6468  -14.9654 C   0  0  0  0  0  0  0  0  0  0  0  0
  -19.3999    7.7300  -13.4810 C   0  0  0  0  0  0  0  0  0  0  0  0
  -19.5988    9.0572  -12.9519 N   0  0  0  0  0  0  0  0  0  0  0  0
  -20.9866    9.3732  -12.7403 C   0  0  0  0  0  0  0  0  0  0  0  0
  -20.8964   10.6229  -11.8756 C   0  0  0  0  0  0  0  0  0  0  0  0
  -19.6621   10.3235  -11.0322 C   0  0  0  0  0  0  0  0  0  0  0  0
  -19.1337    9.0094  -11.5535 C   0  0  0  0  0  0  0  0  0  0  0  0
  -19.7469   15.8390  -19.5663 C   0  0  0  0  0  0  0  0  0  0  0  0
  -19.3304   17.0410  -20.1191 C   0  0  0  0  0  0  0  0  0  0  0  0
  -20.1973   17.8241  -20.8351 C   0  0  0  0  0  0  0  0  0  0  0  0
  -21.5382   17.4889  -21.0625 C   0  0  0  0  0  0  0  0  0  0  0  0
  -21.9454   16.3013  -20.5144 C   0  0  0  0  0  0  0  0  0  0  0  0
  -21.0607   15.4989  -19.7820 C   0  0  0  0  0  0  0  0  0  0  0  0
  -21.5431   14.3578  -19.2529 F   0  0  0  0  0  0  0  0  0  0  0  0
  -22.3717   18.3040  -21.8336 N   0  0  0  0  0  0  0  0  0  0  0  0
  -21.9769   18.9065  -23.0246 C   0  0  0  0  0  0  0  0  0  0  0  0
  -20.8334   18.7465  -23.4981 O   0  0  0  0  0  0  0  0  0  0  0  0
  -22.8939   19.7336  -23.7357 N   0  0  0  0  0  0  0  0  0  0  0  0
  -23.3544   18.4496  -21.4505 H   0  0  0  0  0  0  0  0  0  0  0  0
  -23.8679   19.9116  -23.3986 H   0  0  0  0  0  0  0  0  0  0  0  0
  -22.4660   20.3353  -24.9451 C   0  0  0  0  0  0  0  0  0  0  0  0
  -22.8161   19.7574  -26.1367 C   0  0  0  0  0  0  0  0  0  0  0  0
  -23.7840   18.3265  -26.1945 Cl  0  0  0  0  0  0  0  0  0  0  0  0
  -22.3975   20.3243  -27.3435 C   0  0  0  0  0  0  0  0  0  0  0  0
  -21.6363   21.4605  -27.3140 C   0  0  0  0  0  0  0  0  0  0  0  0
  -21.2719   22.0592  -26.1350 C   0  0  0  0  0  0  0  0  0  0  0  0
  -21.6952   21.4837  -24.9609 C   0  0  0  0  0  0  0  0  0  0  0  0
  -21.2647   22.1953  -23.4218 Cl  0  0  0  0  0  0  0  0  0  0  0  0
 12 13  1  0  0  0
 13  2  1  0  0  0
  2  3  2  0  0  0
  3  4  1  0  0  0
  4  5  2  0  0  0
  5  1  1  0  0  0
  1 23  1  0  0  0
 23 24  2  0  0  0
 24 25  1  0  0  0
 25 26  2  0  0  0
 26 30  1  0  0  0
 30 31  1  0  0  0
 31 32  2  0  0  0
 31 33  1  0  0  0
 33 36  1  0  0  0
 36 37  2  0  0  0
 37 38  1  0  0  0
 37 39  1  0  0  0
 39 40  2  0  0  0
 40 41  1  0  0  0
 41 42  2  0  0  0
 42 43  1  0  0  0
 26 27  1  0  0  0
 27 28  2  0  0  0
 28 29  1  0  0  0
  5  6  1  0  0  0
  6  7  2  0  0  0
  7  8  1  0  0  0
  8  9  2  0  0  0
  9 10  1  0  0  0
 10 11  2  0  0  0
 11 14  1  0  0  0
 14 15  1  0  0  0
 15 16  1  0  0  0
 16 17  1  0  0  0
 17 18  1  0  0  0
 18 19  1  0  0  0
 19 20  1  0  0  0
 20 21  1  0  0  0
 21 22  1  0  0  0
 11  2  1  0  0  0
 22 18  1  0  0  0
  9  4  1  0  0  0
 28 23  1  0  0  0
 42 36  1  0  0  0
 30 34  1  0  0  0
 33 35  1  0  0  0
M  END
> <minimizedAffinity>
-7.76650

> <CNNscore>
0.2118418217

> <CNNaffinity>
6.9137392044

> <CNN_VS>
1.4646191597

> <CNNaffinity_variance>
0.0362333916

$$$$
[H]c1nc2c([H])c(OC([H])([H])C([H])([H])C([H])([H])N3C([H])([H])C([H])([H])C([H])([H])C3([H])[H])c(OC([H])([H])[H])c([H])c2c(Oc2c([H])c([H])c(N([H])C(=O)N([H])c3c(Cl)c([H])c([H])c([H])c3Cl)c([H])c2F)c1[H]


 43 47  0  0  0  0  0  0  0  0999 V2000
  -18.3682   11.9544  -17.9258 O   0  0  0  0  0  0  0  0  0  0  0  0
  -18.7881   14.2637  -21.3158 C   0  0  0  0  0  0  0  0  0  0  0  0
  -18.6408   13.4792  -20.1837 C   0  0  0  0  0  0  0  0  0  0  0  0
  -17.8190   12.3639  -20.2036 C   0  0  0  0  0  0  0  0  0  0  0  0
  -17.6659   11.5702  -19.0528 C   0  0  0  0  0  0  0  0  0  0  0  0
  -16.8325   10.4802  -19.1340 C   0  0  0  0  0  0  0  0  0  0  0  0
  -16.1712   10.1818  -20.3100 C   0  0  0  0  0  0  0  0  0  0  0  0
  -16.3484   10.9774  -21.4011 N   0  0  0  0  0  0  0  0  0  0  0  0
  -17.1488   12.0405  -21.3570 C   0  0  0  0  0  0  0  0  0  0  0  0
  -17.2782   12.8155  -22.5187 C   0  0  0  0  0  0  0  0  0  0  0  0
  -18.1038   13.9159  -22.4612 C   0  0  0  0  0  0  0  0  0  0  0  0
  -20.2761   15.8726  -20.1951 C   0  0  0  0  0  0  0  0  0  0  0  0
  -19.5949   15.3761  -21.3280 O   0  0  0  0  0  0  0  0  0  0  0  0
  -18.2556   14.7013  -23.5794 O   0  0  0  0  0  0  0  0  0  0  0  0
  -17.2339   15.1314  -24.4273 C   0  0  0  0  0  0  0  0  0  0  0  0
  -17.3138   16.6680  -24.4359 C   0  0  0  0  0  0  0  0  0  0  0  0
  -16.4484   17.1171  -23.2818 C   0  0  0  0  0  0  0  0  0  0  0  0
  -17.2098   17.3913  -22.0877 N   0  0  0  0  0  0  0  0  0  0  0  0
  -16.3952   17.8695  -21.0020 C   0  0  0  0  0  0  0  0  0  0  0  0
  -17.4422   18.4058  -20.0358 C   0  0  0  0  0  0  0  0  0  0  0  0
  -18.4891   18.9606  -20.9953 C   0  0  0  0  0  0  0  0  0  0  0  0
  -17.9892   18.6095  -22.3753 C   0  0  0  0  0  0  0  0  0  0  0  0
  -19.1747   11.0428  -17.2708 C   0  0  0  0  0  0  0  0  0  0  0  0
  -18.7733    9.7317  -17.0616 C   0  0  0  0  0  0  0  0  0  0  0  0
  -19.5877    8.8414  -16.4124 C   0  0  0  0  0  0  0  0  0  0  0  0
  -20.8577    9.1684  -15.9201 C   0  0  0  0  0  0  0  0  0  0  0  0
  -21.2503   10.4640  -16.1293 C   0  0  0  0  0  0  0  0  0  0  0  0
  -20.4191   11.3762  -16.7928 C   0  0  0  0  0  0  0  0  0  0  0  0
  -20.8869   12.6251  -16.9825 F   0  0  0  0  0  0  0  0  0  0  0  0
  -21.6339    8.2333  -15.2296 N   0  0  0  0  0  0  0  0  0  0  0  0
  -21.7776    8.2194  -13.8452 C   0  0  0  0  0  0  0  0  0  0  0  0
  -21.2209    9.0646  -13.1151 O   0  0  0  0  0  0  0  0  0  0  0  0
  -22.5802    7.2165  -13.2285 N   0  0  0  0  0  0  0  0  0  0  0  0
  -22.1224    7.5056  -15.8341 H   0  0  0  0  0  0  0  0  0  0  0  0
  -23.0763    6.4773  -13.7777 H   0  0  0  0  0  0  0  0  0  0  0  0
  -22.7092    7.2249  -11.8174 C   0  0  0  0  0  0  0  0  0  0  0  0
  -21.8190    6.5072  -11.0630 C   0  0  0  0  0  0  0  0  0  0  0  0
  -20.5336    5.6126  -11.7943 Cl  0  0  0  0  0  0  0  0  0  0  0  0
  -21.9309    6.4896   -9.6701 C   0  0  0  0  0  0  0  0  0  0  0  0
  -22.9394    7.1980   -9.0764 C   0  0  0  0  0  0  0  0  0  0  0  0
  -23.8437    7.9247   -9.8082 C   0  0  0  0  0  0  0  0  0  0  0  0
  -23.7138    7.9271  -11.1764 C   0  0  0  0  0  0  0  0  0  0  0  0
  -24.8344    8.8320  -12.1695 Cl  0  0  0  0  0  0  0  0  0  0  0  0
 12 13  1  0  0  0
 13  2  1  0  0  0
  2  3  2  0  0  0
  3  4  1  0  0  0
  4  5  2  0  0  0
  5  1  1  0  0  0
  1 23  1  0  0  0
 23 24  2  0  0  0
 24 25  1  0  0  0
 25 26  2  0  0  0
 26 30  1  0  0  0
 30 31  1  0  0  0
 31 32  2  0  0  0
 31 33  1  0  0  0
 33 36  1  0  0  0
 36 37  2  0  0  0
 37 38  1  0  0  0
 37 39  1  0  0  0
 39 40  2  0  0  0
 40 41  1  0  0  0
 41 42  2  0  0  0
 42 43  1  0  0  0
 26 27  1  0  0  0
 27 28  2  0  0  0
 28 29  1  0  0  0
  5  6  1  0  0  0
  6  7  2  0  0  0
  7  8  1  0  0  0
  8  9  2  0  0  0
  9 10  1  0  0  0
 10 11  2  0  0  0
 11 14  1  0  0  0
 14 15  1  0  0  0
 15 16  1  0  0  0
 16 17  1  0  0  0
 17 18  1  0  0  0
 18 19  1  0  0  0
 19 20  1  0  0  0
 20 21  1  0  0  0
 21 22  1  0  0  0
 11  2  1  0  0  0
 22 18  1  0  0  0
  9  4  1  0  0  0
 28 23  1  0  0  0
 42 36  1  0  0  0
 30 34  1  0  0  0
 33 35  1  0  0  0
M  END
> <minimizedAffinity>
-7.28398

> <CNNscore>
0.1551873088

> <CNNaffinity>
6.8929581642

> <CNN_VS>
1.0696996450

> <CNNaffinity_variance>
0.0780972466

$$$$
[H]c1nc2c([H])c(OC([H])([H])C([H])([H])C([H])([H])N3C([H])([H])C([H])([H])C([H])([H])C3([H])[H])c(OC([H])([H])[H])c([H])c2c(Oc2c([H])c([H])c(N([H])C(=O)N([H])c3c(Cl)c([H])c([H])c([H])c3Cl)c([H])c2F)c1[H]


 43 47  0  0  0  0  0  0  0  0999 V2000
  -18.9070   13.8177  -18.0623 O   0  0  0  0  0  0  0  0  0  0  0  0
  -20.4941   10.8173  -15.7214 C   0  0  0  0  0  0  0  0  0  0  0  0
  -19.9523   11.8171  -16.5122 C   0  0  0  0  0  0  0  0  0  0  0  0
  -18.9891   11.5176  -17.4620 C   0  0  0  0  0  0  0  0  0  0  0  0
  -18.4424   12.5320  -18.2680 C   0  0  0  0  0  0  0  0  0  0  0  0
  -17.4948   12.1708  -19.1958 C   0  0  0  0  0  0  0  0  0  0  0  0
  -17.0988   10.8534  -19.3258 C   0  0  0  0  0  0  0  0  0  0  0  0
  -17.6542    9.9025  -18.5244 N   0  0  0  0  0  0  0  0  0  0  0  0
  -18.5741   10.2182  -17.6151 C   0  0  0  0  0  0  0  0  0  0  0  0
  -19.1043    9.1846  -16.8290 C   0  0  0  0  0  0  0  0  0  0  0  0
  -20.0590    9.5205  -15.8955 C   0  0  0  0  0  0  0  0  0  0  0  0
  -21.2208   11.8473  -13.6072 C   0  0  0  0  0  0  0  0  0  0  0  0
  -21.4511   11.0818  -14.7714 O   0  0  0  0  0  0  0  0  0  0  0  0
  -20.6034    8.5349  -15.1066 O   0  0  0  0  0  0  0  0  0  0  0  0
  -19.9126    7.7366  -14.1937 C   0  0  0  0  0  0  0  0  0  0  0  0
  -19.3127    8.7045  -13.1588 C   0  0  0  0  0  0  0  0  0  0  0  0
  -20.0125    8.3804  -11.8597 C   0  0  0  0  0  0  0  0  0  0  0  0
  -19.2167    8.7060  -10.7014 N   0  0  0  0  0  0  0  0  0  0  0  0
  -17.8618    8.2317  -10.8019 C   0  0  0  0  0  0  0  0  0  0  0  0
  -17.1780    8.9918   -9.6739 C   0  0  0  0  0  0  0  0  0  0  0  0
  -17.9165   10.3251   -9.7111 C   0  0  0  0  0  0  0  0  0  0  0  0
  -18.9817   10.1602  -10.7675 C   0  0  0  0  0  0  0  0  0  0  0  0
  -19.0522   14.6790  -19.1336 C   0  0  0  0  0  0  0  0  0  0  0  0
  -19.8129   14.3414  -20.2432 C   0  0  0  0  0  0  0  0  0  0  0  0
  -19.9433   15.2074  -21.2970 C   0  0  0  0  0  0  0  0  0  0  0  0
  -19.3369   16.4693  -21.3434 C   0  0  0  0  0  0  0  0  0  0  0  0
  -18.5864   16.7984  -20.2458 C   0  0  0  0  0  0  0  0  0  0  0  0
  -18.4518   15.9145  -19.1670 C   0  0  0  0  0  0  0  0  0  0  0  0
  -17.6760   16.3001  -18.1354 F   0  0  0  0  0  0  0  0  0  0  0  0
  -19.5333   17.3320  -22.4255 N   0  0  0  0  0  0  0  0  0  0  0  0
  -20.7003   18.0626  -22.6297 C   0  0  0  0  0  0  0  0  0  0  0  0
  -21.6634   18.0033  -21.8383 O   0  0  0  0  0  0  0  0  0  0  0  0
  -20.8141   18.9073  -23.7717 N   0  0  0  0  0  0  0  0  0  0  0  0
  -18.7214   17.4018  -23.1108 H   0  0  0  0  0  0  0  0  0  0  0  0
  -20.0472   19.0063  -24.4760 H   0  0  0  0  0  0  0  0  0  0  0  0
  -22.0132   19.6395  -23.9559 C   0  0  0  0  0  0  0  0  0  0  0  0
  -23.0488   19.0601  -24.6403 C   0  0  0  0  0  0  0  0  0  0  0  0
  -22.9303   17.4519  -25.2622 Cl  0  0  0  0  0  0  0  0  0  0  0  0
  -24.2380   19.7649  -24.8456 C   0  0  0  0  0  0  0  0  0  0  0  0
  -24.3491   21.0365  -24.3537 C   0  0  0  0  0  0  0  0  0  0  0  0
  -23.3277   21.6398  -23.6652 C   0  0  0  0  0  0  0  0  0  0  0  0
  -22.1678   20.9273  -23.4756 C   0  0  0  0  0  0  0  0  0  0  0  0
  -20.8255   21.6379  -22.6072 Cl  0  0  0  0  0  0  0  0  0  0  0  0
 12 13  1  0  0  0
 13  2  1  0  0  0
  2  3  2  0  0  0
  3  4  1  0  0  0
  4  5  2  0  0  0
  5  1  1  0  0  0
  1 23  1  0  0  0
 23 24  2  0  0  0
 24 25  1  0  0  0
 25 26  2  0  0  0
 26 30  1  0  0  0
 30 31  1  0  0  0
 31 32  2  0  0  0
 31 33  1  0  0  0
 33 36  1  0  0  0
 36 37  2  0  0  0
 37 38  1  0  0  0
 37 39  1  0  0  0
 39 40  2  0  0  0
 40 41  1  0  0  0
 41 42  2  0  0  0
 42 43  1  0  0  0
 26 27  1  0  0  0
 27 28  2  0  0  0
 28 29  1  0  0  0
  5  6  1  0  0  0
  6  7  2  0  0  0
  7  8  1  0  0  0
  8  9  2  0  0  0
  9 10  1  0  0  0
 10 11  2  0  0  0
 11 14  1  0  0  0
 14 15  1  0  0  0
 15 16  1  0  0  0
 16 17  1  0  0  0
 17 18  1  0  0  0
 18 19  1  0  0  0
 19 20  1  0  0  0
 20 21  1  0  0  0
 21 22  1  0  0  0
 11  2  1  0  0  0
 22 18  1  0  0  0
  9  4  1  0  0  0
 28 23  1  0  0  0
 42 36  1  0  0  0
 30 34  1  0  0  0
 33 35  1  0  0  0
M  END
> <minimizedAffinity>
-8.03309

> <CNNscore>
0.1462865621

> <CNNaffinity>
6.8198289871

> <CNN_VS>
0.9976493120

> <CNNaffinity_variance>
0.0319367275

$$$$
[H]c1nc2c([H])c(OC([H])([H])C([H])([H])C([H])([H])N3C([H])([H])C([H])([H])C([H])([H])C3([H])[H])c(OC([H])([H])[H])c([H])c2c(Oc2c([H])c([H])c(N([H])C(=O)N([H])c3c(Cl)c([H])c([H])c([H])c3Cl)c([H])c2F)c1[H]


 43 47  0  0  0  0  0  0  0  0999 V2000
  -18.5217   11.8094  -18.2988 O   0  0  0  0  0  0  0  0  0  0  0  0
  -18.6667   14.2881  -21.5906 C   0  0  0  0  0  0  0  0  0  0  0  0
  -18.6111   13.4471  -20.4914 C   0  0  0  0  0  0  0  0  0  0  0  0
  -17.7877   12.3328  -20.4999 C   0  0  0  0  0  0  0  0  0  0  0  0
  -17.7279   11.4816  -19.3821 C   0  0  0  0  0  0  0  0  0  0  0  0
  -16.8881   10.3957  -19.4495 C   0  0  0  0  0  0  0  0  0  0  0  0
  -16.1314   10.1561  -20.5806 C   0  0  0  0  0  0  0  0  0  0  0  0
  -16.2201   11.0062  -21.6409 N   0  0  0  0  0  0  0  0  0  0  0  0
  -17.0241   12.0671  -21.6091 C   0  0  0  0  0  0  0  0  0  0  0  0
  -17.0593   12.9002  -22.7369 C   0  0  0  0  0  0  0  0  0  0  0  0
  -17.8896   13.9977  -22.6920 C   0  0  0  0  0  0  0  0  0  0  0  0
  -20.2784   15.8170  -20.5305 C   0  0  0  0  0  0  0  0  0  0  0  0
  -19.4725   15.4011  -21.6130 O   0  0  0  0  0  0  0  0  0  0  0  0
  -17.9507   14.8389  -23.7776 O   0  0  0  0  0  0  0  0  0  0  0  0
  -16.8774   15.2199  -24.5844 C   0  0  0  0  0  0  0  0  0  0  0  0
  -16.2001   16.3939  -23.8560 C   0  0  0  0  0  0  0  0  0  0  0  0
  -17.1713   17.5455  -23.9705 C   0  0  0  0  0  0  0  0  0  0  0  0
  -17.2436   18.3357  -22.7657 N   0  0  0  0  0  0  0  0  0  0  0  0
  -18.5945   18.5568  -22.3217 C   0  0  0  0  0  0  0  0  0  0  0  0
  -18.3796   19.0729  -20.9057 C   0  0  0  0  0  0  0  0  0  0  0  0
  -17.1613   18.2677  -20.4676 C   0  0  0  0  0  0  0  0  0  0  0  0
  -16.7595   17.4635  -21.6799 C   0  0  0  0  0  0  0  0  0  0  0  0
  -19.0615   10.8102  -17.5110 C   0  0  0  0  0  0  0  0  0  0  0  0
  -18.4852    9.5510  -17.4332 C   0  0  0  0  0  0  0  0  0  0  0  0
  -19.0362    8.5721  -16.6486 C   0  0  0  0  0  0  0  0  0  0  0  0
  -20.1945    8.7529  -15.8819 C   0  0  0  0  0  0  0  0  0  0  0  0
  -20.7605    9.9978  -15.9620 C   0  0  0  0  0  0  0  0  0  0  0  0
  -20.1987   11.0003  -16.7635 C   0  0  0  0  0  0  0  0  0  0  0  0
  -20.8283   12.1904  -16.8097 F   0  0  0  0  0  0  0  0  0  0  0  0
  -20.6946    7.7335  -15.0667 N   0  0  0  0  0  0  0  0  0  0  0  0
  -20.1692    7.4146  -13.8178 C   0  0  0  0  0  0  0  0  0  0  0  0
  -19.2049    8.0375  -13.3286 O   0  0  0  0  0  0  0  0  0  0  0  0
  -20.7380    6.3476  -13.0639 N   0  0  0  0  0  0  0  0  0  0  0  0
  -21.5216    7.1924  -15.4628 H   0  0  0  0  0  0  0  0  0  0  0  0
  -21.5473    5.7832  -13.4111 H   0  0  0  0  0  0  0  0  0  0  0  0
  -20.1836    6.0434  -11.7958 C   0  0  0  0  0  0  0  0  0  0  0  0
  -20.6213    6.7317  -10.6952 C   0  0  0  0  0  0  0  0  0  0  0  0
  -21.8471    7.9440  -10.8189 Cl  0  0  0  0  0  0  0  0  0  0  0  0
  -20.0827    6.4590   -9.4348 C   0  0  0  0  0  0  0  0  0  0  0  0
  -19.1162    5.4977   -9.3201 C   0  0  0  0  0  0  0  0  0  0  0  0
  -18.6604    4.7941  -10.4057 C   0  0  0  0  0  0  0  0  0  0  0  0
  -19.2047    5.0796  -11.6349 C   0  0  0  0  0  0  0  0  0  0  0  0
  -18.6676    4.2202  -13.0609 Cl  0  0  0  0  0  0  0  0  0  0  0  0
 12 13  1  0  0  0
 13  2  1  0  0  0
  2  3  2  0  0  0
  3  4  1  0  0  0
  4  5  2  0  0  0
  5  1  1  0  0  0
  1 23  1  0  0  0
 23 24  2  0  0  0
 24 25  1  0  0  0
 25 26  2  0  0  0
 26 30  1  0  0  0
 30 31  1  0  0  0
 31 32  2  0  0  0
 31 33  1  0  0  0
 33 36  1  0  0  0
 36 37  2  0  0  0
 37 38  1  0  0  0
 37 39  1  0  0  0
 39 40  2  0  0  0
 40 41  1  0  0  0
 41 42  2  0  0  0
 42 43  1  0  0  0
 26 27  1  0  0  0
 27 28  2  0  0  0
 28 29  1  0  0  0
  5  6  1  0  0  0
  6  7  2  0  0  0
  7  8  1  0  0  0
  8  9  2  0  0  0
  9 10  1  0  0  0
 10 11  2  0  0  0
 11 14  1  0  0  0
 14 15  1  0  0  0
 15 16  1  0  0  0
 16 17  1  0  0  0
 17 18  1  0  0  0
 18 19  1  0  0  0
 19 20  1  0  0  0
 20 21  1  0  0  0
 21 22  1  0  0  0
 11  2  1  0  0  0
 22 18  1  0  0  0
  9  4  1  0  0  0
 28 23  1  0  0  0
 42 36  1  0  0  0
 30 34  1  0  0  0
 33 35  1  0  0  0
M  END
> <minimizedAffinity>
-7.86605

> <CNNscore>
0.1410506368

> <CNNaffinity>
6.9242353439

> <CNN_VS>
0.9766678214

> <CNNaffinity_variance>
0.1112986803

$$$$
[H]c1nc2c([H])c(OC([H])([H])C([H])([H])C([H])([H])N3C([H])([H])C([H])([H])C([H])([H])C3([H])[H])c(OC([H])([H])[H])c([H])c2c(Oc2c([H])c([H])c(N([H])C(=O)N([H])c3c(Cl)c([H])c([H])c([H])c3Cl)c([H])c2F)c1[H]


 43 47  0  0  0  0  0  0  0  0999 V2000
  -20.1262   11.1978  -17.5953 O   0  0  0  0  0  0  0  0  0  0  0  0
  -19.2602   14.2164  -20.2672 C   0  0  0  0  0  0  0  0  0  0  0  0
  -19.5417   13.1954  -19.3745 C   0  0  0  0  0  0  0  0  0  0  0  0
  -18.6828   12.1156  -19.2481 C   0  0  0  0  0  0  0  0  0  0  0  0
  -18.9663   11.0814  -18.3383 C   0  0  0  0  0  0  0  0  0  0  0  0
  -18.0729   10.0402  -18.2551 C   0  0  0  0  0  0  0  0  0  0  0  0
  -16.9372   10.0183  -19.0419 C   0  0  0  0  0  0  0  0  0  0  0  0
  -16.7014   11.0409  -19.9102 N   0  0  0  0  0  0  0  0  0  0  0  0
  -17.5464   12.0644  -20.0163 C   0  0  0  0  0  0  0  0  0  0  0  0
  -17.2350   13.0829  -20.9288 C   0  0  0  0  0  0  0  0  0  0  0  0
  -18.1122   14.1397  -21.0271 C   0  0  0  0  0  0  0  0  0  0  0  0
  -21.4909   15.2565  -20.2322 C   0  0  0  0  0  0  0  0  0  0  0  0
  -20.0913   15.3008  -20.4153 O   0  0  0  0  0  0  0  0  0  0  0  0
  -17.8409   15.1584  -21.9096 O   0  0  0  0  0  0  0  0  0  0  0  0
  -16.6048   15.7798  -22.0936 C   0  0  0  0  0  0  0  0  0  0  0  0
  -16.2922   15.6573  -23.5952 C   0  0  0  0  0  0  0  0  0  0  0  0
  -15.5020   14.3770  -23.7331 C   0  0  0  0  0  0  0  0  0  0  0  0
  -15.9268   13.5778  -24.8563 N   0  0  0  0  0  0  0  0  0  0  0  0
  -17.1784   12.9067  -24.6242 C   0  0  0  0  0  0  0  0  0  0  0  0
  -17.5588   12.4563  -26.0278 C   0  0  0  0  0  0  0  0  0  0  0  0
  -17.0331   13.6109  -26.8732 C   0  0  0  0  0  0  0  0  0  0  0  0
  -16.3415   14.5337  -25.8996 C   0  0  0  0  0  0  0  0  0  0  0  0
  -20.1318   10.8318  -16.2624 C   0  0  0  0  0  0  0  0  0  0  0  0
  -20.4826    9.5521  -15.8587 C   0  0  0  0  0  0  0  0  0  0  0  0
  -20.4848    9.2083  -14.5323 C   0  0  0  0  0  0  0  0  0  0  0  0
  -20.1444   10.0933  -13.5012 C   0  0  0  0  0  0  0  0  0  0  0  0
  -19.7991   11.3561  -13.9043 C   0  0  0  0  0  0  0  0  0  0  0  0
  -19.7960   11.7098  -15.2601 C   0  0  0  0  0  0  0  0  0  0  0  0
  -19.4695   12.9782  -15.5748 F   0  0  0  0  0  0  0  0  0  0  0  0
  -20.1245    9.6817  -12.1656 N   0  0  0  0  0  0  0  0  0  0  0  0
  -19.2580    8.7127  -11.6681 C   0  0  0  0  0  0  0  0  0  0  0  0
  -18.4170    8.1438  -12.3938 O   0  0  0  0  0  0  0  0  0  0  0  0
  -19.3211    8.3481  -10.2921 N   0  0  0  0  0  0  0  0  0  0  0  0
  -20.8308   10.1585  -11.5272 H   0  0  0  0  0  0  0  0  0  0  0  0
  -20.0000    8.7833   -9.6260 H   0  0  0  0  0  0  0  0  0  0  0  0
  -18.4279    7.3584   -9.8119 C   0  0  0  0  0  0  0  0  0  0  0  0
  -18.8497    6.0567   -9.7450 C   0  0  0  0  0  0  0  0  0  0  0  0
  -20.4362    5.5961  -10.2532 Cl  0  0  0  0  0  0  0  0  0  0  0  0
  -17.9924    5.0631   -9.2645 C   0  0  0  0  0  0  0  0  0  0  0  0
  -16.7314    5.4113   -8.8645 C   0  0  0  0  0  0  0  0  0  0  0  0
  -16.2842    6.7068   -8.9211 C   0  0  0  0  0  0  0  0  0  0  0  0
  -17.1449    7.6666   -9.3971 C   0  0  0  0  0  0  0  0  0  0  0  0
  -16.6386    9.3384   -9.4945 Cl  0  0  0  0  0  0  0  0  0  0  0  0
 12 13  1  0  0  0
 13  2  1  0  0  0
  2  3  2  0  0  0
  3  4  1  0  0  0
  4  5  2  0  0  0
  5  1  1  0  0  0
  1 23  1  0  0  0
 23 24  2  0  0  0
 24 25  1  0  0  0
 25 26  2  0  0  0
 26 30  1  0  0  0
 30 31  1  0  0  0
 31 32  2  0  0  0
 31 33  1  0  0  0
 33 36  1  0  0  0
 36 37  2  0  0  0
 37 38  1  0  0  0
 37 39  1  0  0  0
 39 40  2  0  0  0
 40 41  1  0  0  0
 41 42  2  0  0  0
 42 43  1  0  0  0
 26 27  1  0  0  0
 27 28  2  0  0  0
 28 29  1  0  0  0
  5  6  1  0  0  0
  6  7  2  0  0  0
  7  8  1  0  0  0
  8  9  2  0  0  0
  9 10  1  0  0  0
 10 11  2  0  0  0
 11 14  1  0  0  0
 14 15  1  0  0  0
 15 16  1  0  0  0
 16 17  1  0  0  0
 17 18  1  0  0  0
 18 19  1  0  0  0
 19 20  1  0  0  0
 20 21  1  0  0  0
 21 22  1  0  0  0
 11  2  1  0  0  0
 22 18  1  0  0  0
  9  4  1  0  0  0
 28 23  1  0  0  0
 42 36  1  0  0  0
 30 34  1  0  0  0
 33 35  1  0  0  0
M  END
> <minimizedAffinity>
-8.28811

> <CNNscore>
0.1385327578

> <CNNaffinity>
7.1060209274

> <CNN_VS>
0.9844166636

> <CNNaffinity_variance>
0.0790253282

$$$$
[H]c1nc2c([H])c(OC([H])([H])C([H])([H])C([H])([H])N3C([H])([H])C([H])([H])N(C([H])([H])[H])C([H])([H])C3([H])[H])c(OC([H])([H])[H])c([H])c2c(Oc2c([H])c([H])c(N([H])C(=O)N([H])c3c([H])c([H])c([H])c([H])c3[H])c([H])c2F)c1[H]


 43 47  0  0  0  0  0  0  0  0999 V2000
  -18.9449   11.4609  -18.4098 C   0  0  0  0  0  0  0  0  0  0  0  0
  -18.6102   12.1675  -19.5437 C   0  0  0  0  0  0  0  0  0  0  0  0
  -17.5675   11.7363  -20.3336 C   0  0  0  0  0  0  0  0  0  0  0  0
  -17.1779   12.4104  -21.4999 C   0  0  0  0  0  0  0  0  0  0  0  0
  -16.1306   11.9456  -22.2617 C   0  0  0  0  0  0  0  0  0  0  0  0
  -15.4480   10.8057  -21.8849 C   0  0  0  0  0  0  0  0  0  0  0  0
  -15.8319   10.1700  -20.7650 N   0  0  0  0  0  0  0  0  0  0  0  0
  -16.8676   10.6118  -19.9938 C   0  0  0  0  0  0  0  0  0  0  0  0
  -17.2237    9.9172  -18.8467 C   0  0  0  0  0  0  0  0  0  0  0  0
  -18.2527   10.2983  -18.0214 C   0  0  0  0  0  0  0  0  0  0  0  0
  -20.4555   13.2139  -17.7007 C   0  0  0  0  0  0  0  0  0  0  0  0
  -19.9836   11.8624  -17.5937 O   0  0  0  0  0  0  0  0  0  0  0  0
  -17.8932   13.5266  -21.8091 O   0  0  0  0  0  0  0  0  0  0  0  0
  -17.8114   14.7845  -21.2918 C   0  0  0  0  0  0  0  0  0  0  0  0
  -18.8832   15.2385  -20.5400 C   0  0  0  0  0  0  0  0  0  0  0  0
  -18.8270   16.4896  -20.0108 C   0  0  0  0  0  0  0  0  0  0  0  0
  -17.7363   17.3672  -20.1786 C   0  0  0  0  0  0  0  0  0  0  0  0
  -16.7066   16.8746  -20.9260 C   0  0  0  0  0  0  0  0  0  0  0  0
  -16.7177   15.5895  -21.4928 C   0  0  0  0  0  0  0  0  0  0  0  0
  -15.6233   15.1804  -22.2165 F   0  0  0  0  0  0  0  0  0  0  0  0
  -17.7744   18.6407  -19.6050 N   0  0  0  0  0  0  0  0  0  0  0  0
  -18.8882   19.4616  -19.3116 C   0  0  0  0  0  0  0  0  0  0  0  0
  -20.0590   19.0948  -19.5638 O   0  0  0  0  0  0  0  0  0  0  0  0
  -18.7236   20.7382  -18.7180 N   0  0  0  0  0  0  0  0  0  0  0  0
  -16.8235   19.0640  -19.3440 H   0  0  0  0  0  0  0  0  0  0  0  0
  -17.7106   21.0122  -18.5194 H   0  0  0  0  0  0  0  0  0  0  0  0
  -19.7254   21.6397  -18.3729 C   0  0  0  0  0  0  0  0  0  0  0  0
  -20.3907   22.3139  -19.4121 C   0  0  0  0  0  0  0  0  0  0  0  0
  -21.3780   23.2327  -19.1736 C   0  0  0  0  0  0  0  0  0  0  0  0
  -21.7735   23.5468  -17.9021 C   0  0  0  0  0  0  0  0  0  0  0  0
  -21.1495   22.9117  -16.8534 C   0  0  0  0  0  0  0  0  0  0  0  0
  -20.1420   21.9753  -17.1147 C   0  0  0  0  0  0  0  0  0  0  0  0
  -18.5996    9.6631  -16.9500 O   0  0  0  0  0  0  0  0  0  0  0  0
  -18.6997    8.6384  -16.1325 C   0  0  0  0  0  0  0  0  0  0  0  0
  -19.1788    8.7590  -14.7376 C   0  0  0  0  0  0  0  0  0  0  0  0
  -20.4715    9.3855  -14.4571 C   0  0  0  0  0  0  0  0  0  0  0  0
  -21.3665    8.6637  -13.6039 N   0  0  0  0  0  0  0  0  0  0  0  0
  -21.7722    7.4564  -14.2956 C   0  0  0  0  0  0  0  0  0  0  0  0
  -22.8359    7.7038  -15.3432 C   0  0  0  0  0  0  0  0  0  0  0  0
  -24.0118    8.2960  -14.7541 N   0  0  0  0  0  0  0  0  0  0  0  0
  -24.4188    9.5210  -15.3729 C   0  0  0  0  0  0  0  0  0  0  0  0
  -23.7658    8.5163  -13.3608 C   0  0  0  0  0  0  0  0  0  0  0  0
  -22.5122    9.3714  -13.1645 C   0  0  0  0  0  0  0  0  0  0  0  0
 11 12  1  0  0  0
 12  1  1  0  0  0
  1  2  2  0  0  0
  2  3  1  0  0  0
  3  4  2  0  0  0
  4 13  1  0  0  0
 13 14  1  0  0  0
 14 15  2  0  0  0
 15 16  1  0  0  0
 16 17  2  0  0  0
 17 21  1  0  0  0
 21 22  1  0  0  0
 22 23  2  0  0  0
 22 24  1  0  0  0
 24 27  1  0  0  0
 27 28  2  0  0  0
 28 29  1  0  0  0
 29 30  2  0  0  0
 30 31  1  0  0  0
 31 32  2  0  0  0
 17 18  1  0  0  0
 18 19  2  0  0  0
 19 20  1  0  0  0
  4  5  1  0  0  0
  5  6  2  0  0  0
  6  7  1  0  0  0
  7  8  2  0  0  0
  8  9  1  0  0  0
  9 10  2  0  0  0
 10 33  1  0  0  0
 33 34  1  0  0  0
 34 35  1  0  0  0
 35 36  1  0  0  0
 36 37  1  0  0  0
 37 38  1  0  0  0
 38 39  1  0  0  0
 39 40  1  0  0  0
 40 41  1  0  0  0
 40 42  1  0  0  0
 42 43  1  0  0  0
 10  1  1  0  0  0
 43 37  1  0  0  0
  8  3  1  0  0  0
 19 14  1  0  0  0
 32 27  1  0  0  0
 21 25  1  0  0  0
 24 26  1  0  0  0
M  END
> <minimizedAffinity>
-8.12294

> <CNNscore>
0.8796774149

> <CNNaffinity>
7.4270887375

> <CNN_VS>
6.5334420204

> <CNNaffinity_variance>
0.0124572841

$$$$
[H]c1nc2c([H])c(OC([H])([H])C([H])([H])C([H])([H])N3C([H])([H])C([H])([H])N(C([H])([H])[H])C([H])([H])C3([H])[H])c(OC([H])([H])[H])c([H])c2c(Oc2c([H])c([H])c(N([H])C(=O)N([H])c3c([H])c([H])c([H])c([H])c3[H])c([H])c2F)c1[H]


 43 47  0  0  0  0  0  0  0  0999 V2000
  -18.8355   11.6075  -18.8419 C   0  0  0  0  0  0  0  0  0  0  0  0
  -18.4832   12.2580  -20.0036 C   0  0  0  0  0  0  0  0  0  0  0  0
  -17.3860   11.8314  -20.7188 C   0  0  0  0  0  0  0  0  0  0  0  0
  -16.9759   12.4503  -21.9084 C   0  0  0  0  0  0  0  0  0  0  0  0
  -15.8739   11.9922  -22.5932 C   0  0  0  0  0  0  0  0  0  0  0  0
  -15.1558   10.9139  -22.1148 C   0  0  0  0  0  0  0  0  0  0  0  0
  -15.5599   10.3307  -20.9737 N   0  0  0  0  0  0  0  0  0  0  0  0
  -16.6498   10.7670  -20.2775 C   0  0  0  0  0  0  0  0  0  0  0  0
  -17.0247   10.1283  -19.1043 C   0  0  0  0  0  0  0  0  0  0  0  0
  -18.1074   10.5078  -18.3500 C   0  0  0  0  0  0  0  0  0  0  0  0
  -20.2098   13.4101  -17.9933 C   0  0  0  0  0  0  0  0  0  0  0  0
  -19.9284   12.0063  -18.0985 O   0  0  0  0  0  0  0  0  0  0  0  0
  -17.7285   13.5075  -22.3193 O   0  0  0  0  0  0  0  0  0  0  0  0
  -17.6680   14.8167  -21.9468 C   0  0  0  0  0  0  0  0  0  0  0  0
  -18.7457   15.3333  -21.2456 C   0  0  0  0  0  0  0  0  0  0  0  0
  -18.7106   16.6368  -20.8604 C   0  0  0  0  0  0  0  0  0  0  0  0
  -17.6363   17.5090  -21.1307 C   0  0  0  0  0  0  0  0  0  0  0  0
  -16.6000   16.9539  -21.8230 C   0  0  0  0  0  0  0  0  0  0  0  0
  -16.5895   15.6132  -22.2421 C   0  0  0  0  0  0  0  0  0  0  0  0
  -15.4900   15.1448  -22.9206 F   0  0  0  0  0  0  0  0  0  0  0  0
  -17.6959   18.8380  -20.7034 N   0  0  0  0  0  0  0  0  0  0  0  0
  -18.5957   19.8631  -21.0772 C   0  0  0  0  0  0  0  0  0  0  0  0
  -19.5112   19.6626  -21.9082 O   0  0  0  0  0  0  0  0  0  0  0  0
  -18.4972   21.1645  -20.5242 N   0  0  0  0  0  0  0  0  0  0  0  0
  -16.9548   19.1310  -19.9847 H   0  0  0  0  0  0  0  0  0  0  0  0
  -17.7041   21.2930  -19.8206 H   0  0  0  0  0  0  0  0  0  0  0  0
  -19.3142   22.2571  -20.7966 C   0  0  0  0  0  0  0  0  0  0  0  0
  -18.8641   23.1964  -21.7412 C   0  0  0  0  0  0  0  0  0  0  0  0
  -19.5878   24.3135  -22.0641 C   0  0  0  0  0  0  0  0  0  0  0  0
  -20.7968   24.5782  -21.4808 C   0  0  0  0  0  0  0  0  0  0  0  0
  -21.2767   23.6864  -20.5498 C   0  0  0  0  0  0  0  0  0  0  0  0
  -20.5243   22.5495  -20.2311 C   0  0  0  0  0  0  0  0  0  0  0  0
  -18.4724    9.9240  -17.2556 O   0  0  0  0  0  0  0  0  0  0  0  0
  -18.7457    8.9152  -16.4581 C   0  0  0  0  0  0  0  0  0  0  0  0
  -19.5955    9.0426  -15.2533 C   0  0  0  0  0  0  0  0  0  0  0  0
  -19.0209    8.8294  -13.9241 C   0  0  0  0  0  0  0  0  0  0  0  0
  -19.9177    8.3959  -12.8956 N   0  0  0  0  0  0  0  0  0  0  0  0
  -20.8519    9.4716  -12.6302 C   0  0  0  0  0  0  0  0  0  0  0  0
  -20.2624   10.5687  -11.7706 C   0  0  0  0  0  0  0  0  0  0  0  0
  -19.8137   10.0457  -10.5034 N   0  0  0  0  0  0  0  0  0  0  0  0
  -18.4444   10.3379  -10.2051 C   0  0  0  0  0  0  0  0  0  0  0  0
  -20.0193    8.6287  -10.4930 C   0  0  0  0  0  0  0  0  0  0  0  0
  -19.3166    7.9743  -11.6842 C   0  0  0  0  0  0  0  0  0  0  0  0
 11 12  1  0  0  0
 12  1  1  0  0  0
  1  2  2  0  0  0
  2  3  1  0  0  0
  3  4  2  0  0  0
  4 13  1  0  0  0
 13 14  1  0  0  0
 14 15  2  0  0  0
 15 16  1  0  0  0
 16 17  2  0  0  0
 17 21  1  0  0  0
 21 22  1  0  0  0
 22 23  2  0  0  0
 22 24  1  0  0  0
 24 27  1  0  0  0
 27 28  2  0  0  0
 28 29  1  0  0  0
 29 30  2  0  0  0
 30 31  1  0  0  0
 31 32  2  0  0  0
 17 18  1  0  0  0
 18 19  2  0  0  0
 19 20  1  0  0  0
  4  5  1  0  0  0
  5  6  2  0  0  0
  6  7  1  0  0  0
  7  8  2  0  0  0
  8  9  1  0  0  0
  9 10  2  0  0  0
 10 33  1  0  0  0
 33 34  1  0  0  0
 34 35  1  0  0  0
 35 36  1  0  0  0
 36 37  1  0  0  0
 37 38  1  0  0  0
 38 39  1  0  0  0
 39 40  1  0  0  0
 40 41  1  0  0  0
 40 42  1  0  0  0
 42 43  1  0  0  0
 10  1  1  0  0  0
 43 37  1  0  0  0
  8  3  1  0  0  0
 19 14  1  0  0  0
 32 27  1  0  0  0
 21 25  1  0  0  0
 24 26  1  0  0  0
M  END
> <minimizedAffinity>
-7.99117

> <CNNscore>
0.8634690046

> <CNNaffinity>
7.4489960670

> <CNN_VS>
6.4319772720

> <CNNaffinity_variance>
0.0714233369

$$$$
[H]c1nc2c([H])c(OC([H])([H])C([H])([H])C([H])([H])N3C([H])([H])C([H])([H])N(C([H])([H])[H])C([H])([H])C3([H])[H])c(OC([H])([H])[H])c([H])c2c(Oc2c([H])c([H])c(N([H])C(=O)N([H])c3c([H])c([H])c([H])c([H])c3[H])c([H])c2F)c1[H]


 43 47  0  0  0  0  0  0  0  0999 V2000
  -19.3095   12.1726  -18.6504 C   0  0  0  0  0  0  0  0  0  0  0  0
  -18.8083   12.6265  -19.8504 C   0  0  0  0  0  0  0  0  0  0  0  0
  -17.7250   11.9948  -20.4202 C   0  0  0  0  0  0  0  0  0  0  0  0
  -17.1686   12.4076  -21.6394 C   0  0  0  0  0  0  0  0  0  0  0  0
  -16.0861   11.7482  -22.1749 C   0  0  0  0  0  0  0  0  0  0  0  0
  -15.5327   10.6685  -21.5153 C   0  0  0  0  0  0  0  0  0  0  0  0
  -16.0759   10.2839  -20.3480 N   0  0  0  0  0  0  0  0  0  0  0  0
  -17.1496   10.9219  -19.7976 C   0  0  0  0  0  0  0  0  0  0  0  0
  -17.6724   10.4836  -18.5895 C   0  0  0  0  0  0  0  0  0  0  0  0
  -18.7495   11.0723  -17.9741 C   0  0  0  0  0  0  0  0  0  0  0  0
  -20.8092   14.0683  -18.5272 C   0  0  0  0  0  0  0  0  0  0  0  0
  -20.3936   12.7801  -18.0491 O   0  0  0  0  0  0  0  0  0  0  0  0
  -17.7630   13.4790  -22.2323 O   0  0  0  0  0  0  0  0  0  0  0  0
  -17.6711   14.8042  -21.9294 C   0  0  0  0  0  0  0  0  0  0  0  0
  -18.7764   15.4068  -21.3502 C   0  0  0  0  0  0  0  0  0  0  0  0
  -18.7110   16.7280  -21.0364 C   0  0  0  0  0  0  0  0  0  0  0  0
  -17.5785   17.5363  -21.2642 C   0  0  0  0  0  0  0  0  0  0  0  0
  -16.5169   16.8976  -21.8358 C   0  0  0  0  0  0  0  0  0  0  0  0
  -16.5359   15.5353  -22.1774 C   0  0  0  0  0  0  0  0  0  0  0  0
  -15.4084   14.9813  -22.7348 F   0  0  0  0  0  0  0  0  0  0  0  0
  -17.6096   18.8896  -20.9178 N   0  0  0  0  0  0  0  0  0  0  0  0
  -18.5718   19.8767  -21.2340 C   0  0  0  0  0  0  0  0  0  0  0  0
  -19.5836   19.6108  -21.9229 O   0  0  0  0  0  0  0  0  0  0  0  0
  -18.4293   21.2127  -20.7824 N   0  0  0  0  0  0  0  0  0  0  0  0
  -16.7874   19.2383  -20.3228 H   0  0  0  0  0  0  0  0  0  0  0  0
  -17.5540   21.3969  -20.1988 H   0  0  0  0  0  0  0  0  0  0  0  0
  -19.2976   22.2748  -21.0134 C   0  0  0  0  0  0  0  0  0  0  0  0
  -19.0519   23.0953  -22.1286 C   0  0  0  0  0  0  0  0  0  0  0  0
  -19.8388   24.1751  -22.4298 C   0  0  0  0  0  0  0  0  0  0  0  0
  -20.9145   24.5166  -21.6565 C   0  0  0  0  0  0  0  0  0  0  0  0
  -21.1928   23.7420  -20.5542 C   0  0  0  0  0  0  0  0  0  0  0  0
  -20.3782   22.6418  -20.2604 C   0  0  0  0  0  0  0  0  0  0  0  0
  -19.2510   10.6770  -16.8499 O   0  0  0  0  0  0  0  0  0  0  0  0
  -19.5054    9.8394  -15.8690 C   0  0  0  0  0  0  0  0  0  0  0  0
  -20.8289    9.2100  -15.6643 C   0  0  0  0  0  0  0  0  0  0  0  0
  -20.9212    7.7898  -15.3226 C   0  0  0  0  0  0  0  0  0  0  0  0
  -21.5400    7.4659  -14.0727 N   0  0  0  0  0  0  0  0  0  0  0  0
  -20.5059    7.4148  -13.0585 C   0  0  0  0  0  0  0  0  0  0  0  0
  -19.7071    6.1299  -13.0922 C   0  0  0  0  0  0  0  0  0  0  0  0
  -20.5651    4.9846  -12.9115 N   0  0  0  0  0  0  0  0  0  0  0  0
  -20.4532    4.0042  -13.9485 C   0  0  0  0  0  0  0  0  0  0  0  0
  -21.9205    5.4368  -12.8176 C   0  0  0  0  0  0  0  0  0  0  0  0
  -22.2964    6.2686  -14.0457 C   0  0  0  0  0  0  0  0  0  0  0  0
 11 12  1  0  0  0
 12  1  1  0  0  0
  1  2  2  0  0  0
  2  3  1  0  0  0
  3  4  2  0  0  0
  4 13  1  0  0  0
 13 14  1  0  0  0
 14 15  2  0  0  0
 15 16  1  0  0  0
 16 17  2  0  0  0
 17 21  1  0  0  0
 21 22  1  0  0  0
 22 23  2  0  0  0
 22 24  1  0  0  0
 24 27  1  0  0  0
 27 28  2  0  0  0
 28 29  1  0  0  0
 29 30  2  0  0  0
 30 31  1  0  0  0
 31 32  2  0  0  0
 17 18  1  0  0  0
 18 19  2  0  0  0
 19 20  1  0  0  0
  4  5  1  0  0  0
  5  6  2  0  0  0
  6  7  1  0  0  0
  7  8  2  0  0  0
  8  9  1  0  0  0
  9 10  2  0  0  0
 10 33  1  0  0  0
 33 34  1  0  0  0
 34 35  1  0  0  0
 35 36  1  0  0  0
 36 37  1  0  0  0
 37 38  1  0  0  0
 38 39  1  0  0  0
 39 40  1  0  0  0
 40 41  1  0  0  0
 40 42  1  0  0  0
 42 43  1  0  0  0
 10  1  1  0  0  0
 43 37  1  0  0  0
  8  3  1  0  0  0
 19 14  1  0  0  0
 32 27  1  0  0  0
 21 25  1  0  0  0
 24 26  1  0  0  0
M  END
> <minimizedAffinity>
-7.73869

> <CNNscore>
0.7026556730

> <CNNaffinity>
7.2081556320

> <CNN_VS>
5.0648512840

> <CNNaffinity_variance>
0.0824113265

$$$$
[H]c1nc2c([H])c(OC([H])([H])C([H])([H])C([H])([H])N3C([H])([H])C([H])([H])N(C([H])([H])[H])C([H])([H])C3([H])[H])c(OC([H])([H])[H])c([H])c2c(Oc2c([H])c([H])c(N([H])C(=O)N([H])c3c([H])c([H])c([H])c([H])c3[H])c([H])c2F)c1[H]


 43 47  0  0  0  0  0  0  0  0999 V2000
  -19.1579   12.5398  -19.4351 C   0  0  0  0  0  0  0  0  0  0  0  0
  -18.4831   12.7764  -20.6122 C   0  0  0  0  0  0  0  0  0  0  0  0
  -17.3787   12.0172  -20.9302 C   0  0  0  0  0  0  0  0  0  0  0  0
  -16.6492   12.2079  -22.1125 C   0  0  0  0  0  0  0  0  0  0  0  0
  -15.5517   11.4268  -22.3929 C   0  0  0  0  0  0  0  0  0  0  0  0
  -15.1539   10.4425  -21.5095 C   0  0  0  0  0  0  0  0  0  0  0  0
  -15.8620   10.2710  -20.3804 N   0  0  0  0  0  0  0  0  0  0  0  0
  -16.9540   11.0330  -20.0812 C   0  0  0  0  0  0  0  0  0  0  0  0
  -17.6504   10.8139  -18.9013 C   0  0  0  0  0  0  0  0  0  0  0  0
  -18.7570   11.5377  -18.5314 C   0  0  0  0  0  0  0  0  0  0  0  0
  -20.1010   14.6800  -18.8123 C   0  0  0  0  0  0  0  0  0  0  0  0
  -20.2686   13.2802  -19.0826 O   0  0  0  0  0  0  0  0  0  0  0  0
  -17.0965   13.1962  -22.9348 O   0  0  0  0  0  0  0  0  0  0  0  0
  -17.2919   14.5202  -22.6790 C   0  0  0  0  0  0  0  0  0  0  0  0
  -16.5773   15.0825  -21.6334 C   0  0  0  0  0  0  0  0  0  0  0  0
  -16.7523   16.4023  -21.3575 C   0  0  0  0  0  0  0  0  0  0  0  0
  -17.6240   17.2476  -22.0741 C   0  0  0  0  0  0  0  0  0  0  0  0
  -18.3044   16.6477  -23.0933 C   0  0  0  0  0  0  0  0  0  0  0  0
  -18.1573   15.2888  -23.4171 C   0  0  0  0  0  0  0  0  0  0  0  0
  -18.8766   14.7829  -24.4733 F   0  0  0  0  0  0  0  0  0  0  0  0
  -17.7458   18.5908  -21.7088 N   0  0  0  0  0  0  0  0  0  0  0  0
  -18.6811   19.2062  -20.8447 C   0  0  0  0  0  0  0  0  0  0  0  0
  -19.5783   18.5467  -20.2710 O   0  0  0  0  0  0  0  0  0  0  0  0
  -18.6410   20.6004  -20.5922 N   0  0  0  0  0  0  0  0  0  0  0  0
  -17.0265   19.2594  -22.1414 H   0  0  0  0  0  0  0  0  0  0  0  0
  -17.8618   21.1251  -21.1002 H   0  0  0  0  0  0  0  0  0  0  0  0
  -19.4899   21.3292  -19.7653 C   0  0  0  0  0  0  0  0  0  0  0  0
  -19.2561   21.2856  -18.3794 C   0  0  0  0  0  0  0  0  0  0  0  0
  -20.0468   21.9542  -17.4829 C   0  0  0  0  0  0  0  0  0  0  0  0
  -21.1147   22.7064  -17.8899 C   0  0  0  0  0  0  0  0  0  0  0  0
  -21.3816   22.7776  -19.2375 C   0  0  0  0  0  0  0  0  0  0  0  0
  -20.5637   22.0879  -20.1405 C   0  0  0  0  0  0  0  0  0  0  0  0
  -19.4191   11.3468  -17.4374 O   0  0  0  0  0  0  0  0  0  0  0  0
  -20.2018   10.7095  -16.5950 C   0  0  0  0  0  0  0  0  0  0  0  0
  -19.7011    9.7226  -15.6126 C   0  0  0  0  0  0  0  0  0  0  0  0
  -20.5939    9.1999  -14.5772 C   0  0  0  0  0  0  0  0  0  0  0  0
  -20.5991    9.8886  -13.3220 N   0  0  0  0  0  0  0  0  0  0  0  0
  -19.2486    9.8760  -12.7961 C   0  0  0  0  0  0  0  0  0  0  0  0
  -18.8719    8.5534  -12.1646 C   0  0  0  0  0  0  0  0  0  0  0  0
  -19.7723    8.2213  -11.0877 N   0  0  0  0  0  0  0  0  0  0  0  0
  -20.3888    6.9361  -11.2199 C   0  0  0  0  0  0  0  0  0  0  0  0
  -20.7803    9.2348  -11.0032 C   0  0  0  0  0  0  0  0  0  0  0  0
  -21.4977    9.3934  -12.3454 C   0  0  0  0  0  0  0  0  0  0  0  0
 11 12  1  0  0  0
 12  1  1  0  0  0
  1  2  2  0  0  0
  2  3  1  0  0  0
  3  4  2  0  0  0
  4 13  1  0  0  0
 13 14  1  0  0  0
 14 15  2  0  0  0
 15 16  1  0  0  0
 16 17  2  0  0  0
 17 21  1  0  0  0
 21 22  1  0  0  0
 22 23  2  0  0  0
 22 24  1  0  0  0
 24 27  1  0  0  0
 27 28  2  0  0  0
 28 29  1  0  0  0
 29 30  2  0  0  0
 30 31  1  0  0  0
 31 32  2  0  0  0
 17 18  1  0  0  0
 18 19  2  0  0  0
 19 20  1  0  0  0
  4  5  1  0  0  0
  5  6  2  0  0  0
  6  7  1  0  0  0
  7  8  2  0  0  0
  8  9  1  0  0  0
  9 10  2  0  0  0
 10 33  1  0  0  0
 33 34  1  0  0  0
 34 35  1  0  0  0
 35 36  1  0  0  0
 36 37  1  0  0  0
 37 38  1  0  0  0
 38 39  1  0  0  0
 39 40  1  0  0  0
 40 41  1  0  0  0
 40 42  1  0  0  0
 42 43  1  0  0  0
 10  1  1  0  0  0
 43 37  1  0  0  0
  8  3  1  0  0  0
 19 14  1  0  0  0
 32 27  1  0  0  0
 21 25  1  0  0  0
 24 26  1  0  0  0
M  END
> <minimizedAffinity>
-7.97999

> <CNNscore>
0.6751340032

> <CNNaffinity>
7.2469186783

> <CNN_VS>
4.8926410675

> <CNNaffinity_variance>
0.0547335334

$$$$
[H]c1nc2c([H])c(OC([H])([H])C([H])([H])C([H])([H])N3C([H])([H])C([H])([H])N(C([H])([H])[H])C([H])([H])C3([H])[H])c(OC([H])([H])[H])c([H])c2c(Oc2c([H])c([H])c(N([H])C(=O)N([H])c3c([H])c([H])c([H])c([H])c3[H])c([H])c2F)c1[H]


 43 47  0  0  0  0  0  0  0  0999 V2000
  -19.8794   11.0805  -17.0408 C   0  0  0  0  0  0  0  0  0  0  0  0
  -19.6086   11.9025  -18.1123 C   0  0  0  0  0  0  0  0  0  0  0  0
  -18.5932   11.5757  -18.9837 C   0  0  0  0  0  0  0  0  0  0  0  0
  -18.2685   12.3699  -20.0929 C   0  0  0  0  0  0  0  0  0  0  0  0
  -17.2466   12.0070  -20.9399 C   0  0  0  0  0  0  0  0  0  0  0  0
  -16.5259   10.8523  -20.7063 C   0  0  0  0  0  0  0  0  0  0  0  0
  -16.8477   10.1010  -19.6397 N   0  0  0  0  0  0  0  0  0  0  0  0
  -17.8572   10.4403  -18.7862 C   0  0  0  0  0  0  0  0  0  0  0  0
  -18.1490    9.6285  -17.6995 C   0  0  0  0  0  0  0  0  0  0  0  0
  -19.1481    9.9023  -16.7984 C   0  0  0  0  0  0  0  0  0  0  0  0
  -21.1341   12.7514  -15.8196 C   0  0  0  0  0  0  0  0  0  0  0  0
  -20.8889   11.3753  -16.1465 O   0  0  0  0  0  0  0  0  0  0  0  0
  -19.0183   13.4935  -20.2602 O   0  0  0  0  0  0  0  0  0  0  0  0
  -19.1890   14.5587  -19.4279 C   0  0  0  0  0  0  0  0  0  0  0  0
  -18.0571   15.0977  -18.8376 C   0  0  0  0  0  0  0  0  0  0  0  0
  -18.1988   16.1622  -18.0037 C   0  0  0  0  0  0  0  0  0  0  0  0
  -19.4371   16.7617  -17.6958 C   0  0  0  0  0  0  0  0  0  0  0  0
  -20.5209   16.1956  -18.3011 C   0  0  0  0  0  0  0  0  0  0  0  0
  -20.4256   15.0962  -19.1701 C   0  0  0  0  0  0  0  0  0  0  0  0
  -21.5760   14.6087  -19.7426 F   0  0  0  0  0  0  0  0  0  0  0  0
  -19.4843   17.8471  -16.8171 N   0  0  0  0  0  0  0  0  0  0  0  0
  -20.1094   17.9540  -15.5530 C   0  0  0  0  0  0  0  0  0  0  0  0
  -20.7445   16.9979  -15.0514 O   0  0  0  0  0  0  0  0  0  0  0  0
  -20.0425   19.1527  -14.7994 N   0  0  0  0  0  0  0  0  0  0  0  0
  -18.9715   18.7325  -17.1407 H   0  0  0  0  0  0  0  0  0  0  0  0
  -19.4922   19.9423  -15.2624 H   0  0  0  0  0  0  0  0  0  0  0  0
  -20.6024   19.3910  -13.5484 C   0  0  0  0  0  0  0  0  0  0  0  0
  -21.3865   20.5471  -13.3875 C   0  0  0  0  0  0  0  0  0  0  0  0
  -21.9651   20.8777  -12.1910 C   0  0  0  0  0  0  0  0  0  0  0  0
  -21.8107   20.0956  -11.0791 C   0  0  0  0  0  0  0  0  0  0  0  0
  -21.0509   18.9542  -11.1897 C   0  0  0  0  0  0  0  0  0  0  0  0
  -20.4662   18.6308  -12.4201 C   0  0  0  0  0  0  0  0  0  0  0  0
  -19.4352    9.1573  -15.7815 O   0  0  0  0  0  0  0  0  0  0  0  0
  -19.2072    8.4790  -14.6785 C   0  0  0  0  0  0  0  0  0  0  0  0
  -19.2036    9.0971  -13.3340 C   0  0  0  0  0  0  0  0  0  0  0  0
  -18.9692    8.2724  -12.1477 C   0  0  0  0  0  0  0  0  0  0  0  0
  -18.4317    8.9344  -10.9976 N   0  0  0  0  0  0  0  0  0  0  0  0
  -18.8176    8.1792   -9.8223 C   0  0  0  0  0  0  0  0  0  0  0  0
  -20.2495    8.4299   -9.4019 C   0  0  0  0  0  0  0  0  0  0  0  0
  -20.4680    9.8284   -9.1242 N   0  0  0  0  0  0  0  0  0  0  0  0
  -21.5501   10.4062   -9.8620 C   0  0  0  0  0  0  0  0  0  0  0  0
  -19.2589   10.5450   -9.3980 C   0  0  0  0  0  0  0  0  0  0  0  0
  -18.7978   10.2930  -10.8351 C   0  0  0  0  0  0  0  0  0  0  0  0
 11 12  1  0  0  0
 12  1  1  0  0  0
  1  2  2  0  0  0
  2  3  1  0  0  0
  3  4  2  0  0  0
  4 13  1  0  0  0
 13 14  1  0  0  0
 14 15  2  0  0  0
 15 16  1  0  0  0
 16 17  2  0  0  0
 17 21  1  0  0  0
 21 22  1  0  0  0
 22 23  2  0  0  0
 22 24  1  0  0  0
 24 27  1  0  0  0
 27 28  2  0  0  0
 28 29  1  0  0  0
 29 30  2  0  0  0
 30 31  1  0  0  0
 31 32  2  0  0  0
 17 18  1  0  0  0
 18 19  2  0  0  0
 19 20  1  0  0  0
  4  5  1  0  0  0
  5  6  2  0  0  0
  6  7  1  0  0  0
  7  8  2  0  0  0
  8  9  1  0  0  0
  9 10  2  0  0  0
 10 33  1  0  0  0
 33 34  1  0  0  0
 34 35  1  0  0  0
 35 36  1  0  0  0
 36 37  1  0  0  0
 37 38  1  0  0  0
 38 39  1  0  0  0
 39 40  1  0  0  0
 40 41  1  0  0  0
 40 42  1  0  0  0
 42 43  1  0  0  0
 10  1  1  0  0  0
 43 37  1  0  0  0
  8  3  1  0  0  0
 19 14  1  0  0  0
 32 27  1  0  0  0
 21 25  1  0  0  0
 24 26  1  0  0  0
M  END
> <minimizedAffinity>
-7.54533

> <CNNscore>
0.6657849550

> <CNNaffinity>
7.1597657204

> <CNN_VS>
4.7668642998

> <CNNaffinity_variance>
0.0857689381

$$$$
[H]c1nc2c([H])c(OC([H])([H])C([H])([H])C([H])([H])N3C([H])([H])C([H])([H])N(C([H])([H])[H])C([H])([H])C3([H])[H])c(OC([H])([H])[H])c([H])c2c(Oc2c([H])c([H])c(N([H])C(=O)N([H])c3c([H])c([H])c([H])c([H])c3[H])c([H])c2F)c1[H]


 43 47  0  0  0  0  0  0  0  0999 V2000
  -19.3981   12.7937  -19.5849 C   0  0  0  0  0  0  0  0  0  0  0  0
  -18.6996   12.7699  -20.7717 C   0  0  0  0  0  0  0  0  0  0  0  0
  -17.5604   12.0029  -20.8778 C   0  0  0  0  0  0  0  0  0  0  0  0
  -16.8056   11.9355  -22.0577 C   0  0  0  0  0  0  0  0  0  0  0  0
  -15.6735   11.1561  -22.1222 C   0  0  0  0  0  0  0  0  0  0  0  0
  -15.2657   10.4287  -21.0214 C   0  0  0  0  0  0  0  0  0  0  0  0
  -15.9983   10.5028  -19.8974 N   0  0  0  0  0  0  0  0  0  0  0  0
  -17.1247   11.2685  -19.8098 C   0  0  0  0  0  0  0  0  0  0  0  0
  -17.8454   11.3091  -18.6249 C   0  0  0  0  0  0  0  0  0  0  0  0
  -18.9870   12.0540  -18.4600 C   0  0  0  0  0  0  0  0  0  0  0  0
  -20.4693   14.9613  -19.6949 C   0  0  0  0  0  0  0  0  0  0  0  0
  -20.5438   13.5503  -19.4409 O   0  0  0  0  0  0  0  0  0  0  0  0
  -17.2647   12.6794  -23.1012 O   0  0  0  0  0  0  0  0  0  0  0  0
  -17.4007   14.0304  -23.2144 C   0  0  0  0  0  0  0  0  0  0  0  0
  -16.7608   14.8195  -22.2721 C   0  0  0  0  0  0  0  0  0  0  0  0
  -16.8788   16.1709  -22.3627 C   0  0  0  0  0  0  0  0  0  0  0  0
  -17.6188   16.8313  -23.3648 C   0  0  0  0  0  0  0  0  0  0  0  0
  -18.2298   16.0116  -24.2683 C   0  0  0  0  0  0  0  0  0  0  0  0
  -18.1372   14.6109  -24.2170 C   0  0  0  0  0  0  0  0  0  0  0  0
  -18.7772   13.8737  -25.1843 F   0  0  0  0  0  0  0  0  0  0  0  0
  -17.6914   18.2266  -23.3694 N   0  0  0  0  0  0  0  0  0  0  0  0
  -18.8278   19.0676  -23.4102 C   0  0  0  0  0  0  0  0  0  0  0  0
  -19.9892   18.6007  -23.4537 O   0  0  0  0  0  0  0  0  0  0  0  0
  -18.6976   20.4791  -23.4037 N   0  0  0  0  0  0  0  0  0  0  0  0
  -16.7514   18.7433  -23.3349 H   0  0  0  0  0  0  0  0  0  0  0  0
  -17.6915   20.8356  -23.3661 H   0  0  0  0  0  0  0  0  0  0  0  0
  -19.7240   21.4176  -23.4341 C   0  0  0  0  0  0  0  0  0  0  0  0
  -20.1393   21.9786  -22.2135 C   0  0  0  0  0  0  0  0  0  0  0  0
  -21.1529   22.8966  -22.1377 C   0  0  0  0  0  0  0  0  0  0  0  0
  -21.8213   23.3209  -23.2536 C   0  0  0  0  0  0  0  0  0  0  0  0
  -21.4489   22.7982  -24.4704 C   0  0  0  0  0  0  0  0  0  0  0  0
  -20.4109   21.8606  -24.5302 C   0  0  0  0  0  0  0  0  0  0  0  0
  -19.6720   12.1029  -17.3645 O   0  0  0  0  0  0  0  0  0  0  0  0
  -20.6998   11.8917  -16.5724 C   0  0  0  0  0  0  0  0  0  0  0  0
  -21.1317   10.5411  -16.1490 C   0  0  0  0  0  0  0  0  0  0  0  0
  -21.0258   10.1435  -14.7444 C   0  0  0  0  0  0  0  0  0  0  0  0
  -19.7143    9.8395  -14.2570 N   0  0  0  0  0  0  0  0  0  0  0  0
  -19.2612    8.6275  -14.9099 C   0  0  0  0  0  0  0  0  0  0  0  0
  -19.8646    7.3738  -14.3146 C   0  0  0  0  0  0  0  0  0  0  0  0
  -19.5511    7.2673  -12.9107 N   0  0  0  0  0  0  0  0  0  0  0  0
  -20.6983    7.1155  -12.0681 C   0  0  0  0  0  0  0  0  0  0  0  0
  -18.8115    8.4283  -12.5162 C   0  0  0  0  0  0  0  0  0  0  0  0
  -19.5897    9.7020  -12.8527 C   0  0  0  0  0  0  0  0  0  0  0  0
 11 12  1  0  0  0
 12  1  1  0  0  0
  1  2  2  0  0  0
  2  3  1  0  0  0
  3  4  2  0  0  0
  4 13  1  0  0  0
 13 14  1  0  0  0
 14 15  2  0  0  0
 15 16  1  0  0  0
 16 17  2  0  0  0
 17 21  1  0  0  0
 21 22  1  0  0  0
 22 23  2  0  0  0
 22 24  1  0  0  0
 24 27  1  0  0  0
 27 28  2  0  0  0
 28 29  1  0  0  0
 29 30  2  0  0  0
 30 31  1  0  0  0
 31 32  2  0  0  0
 17 18  1  0  0  0
 18 19  2  0  0  0
 19 20  1  0  0  0
  4  5  1  0  0  0
  5  6  2  0  0  0
  6  7  1  0  0  0
  7  8  2  0  0  0
  8  9  1  0  0  0
  9 10  2  0  0  0
 10 33  1  0  0  0
 33 34  1  0  0  0
 34 35  1  0  0  0
 35 36  1  0  0  0
 36 37  1  0  0  0
 37 38  1  0  0  0
 38 39  1  0  0  0
 39 40  1  0  0  0
 40 41  1  0  0  0
 40 42  1  0  0  0
 42 43  1  0  0  0
 10  1  1  0  0  0
 43 37  1  0  0  0
  8  3  1  0  0  0
 19 14  1  0  0  0
 32 27  1  0  0  0
 21 25  1  0  0  0
 24 26  1  0  0  0
M  END
> <minimizedAffinity>
-8.43393

> <CNNscore>
0.4877926111

> <CNNaffinity>
7.0234818459

> <CNN_VS>
3.4260025024

> <CNNaffinity_variance>
0.1141902059

$$$$
[H]c1nc2c([H])c(OC([H])([H])C([H])([H])C([H])([H])N3C([H])([H])C([H])([H])N(C([H])([H])[H])C([H])([H])C3([H])[H])c(OC([H])([H])[H])c([H])c2c(Oc2c([H])c([H])c(N([H])C(=O)N([H])c3c([H])c([H])c([H])c([H])c3[H])c([H])c2F)c1[H]


 43 47  0  0  0  0  0  0  0  0999 V2000
  -19.6692   11.3406  -16.3975 C   0  0  0  0  0  0  0  0  0  0  0  0
  -19.1975   12.2449  -17.3231 C   0  0  0  0  0  0  0  0  0  0  0  0
  -18.4067   11.8077  -18.3627 C   0  0  0  0  0  0  0  0  0  0  0  0
  -17.8961   12.6772  -19.3372 C   0  0  0  0  0  0  0  0  0  0  0  0
  -17.1101   12.1994  -20.3605 C   0  0  0  0  0  0  0  0  0  0  0  0
  -16.8133   10.8529  -20.4397 C   0  0  0  0  0  0  0  0  0  0  0  0
  -17.3091   10.0313  -19.4991 N   0  0  0  0  0  0  0  0  0  0  0  0
  -18.0911   10.4820  -18.4754 C   0  0  0  0  0  0  0  0  0  0  0  0
  -18.5782    9.5906  -17.5303 C   0  0  0  0  0  0  0  0  0  0  0  0
  -19.3701    9.9672  -16.4737 C   0  0  0  0  0  0  0  0  0  0  0  0
  -21.4505   12.7581  -15.5754 C   0  0  0  0  0  0  0  0  0  0  0  0
  -20.4641   11.7415  -15.3422 O   0  0  0  0  0  0  0  0  0  0  0  0
  -18.2268   13.9900  -19.1955 O   0  0  0  0  0  0  0  0  0  0  0  0
  -18.6237   14.8944  -20.1341 C   0  0  0  0  0  0  0  0  0  0  0  0
  -19.9780   15.1745  -20.2210 C   0  0  0  0  0  0  0  0  0  0  0  0
  -20.4010   16.0745  -21.1481 C   0  0  0  0  0  0  0  0  0  0  0  0
  -19.5420   16.7505  -22.0385 C   0  0  0  0  0  0  0  0  0  0  0  0
  -18.2190   16.4411  -21.9138 C   0  0  0  0  0  0  0  0  0  0  0  0
  -17.7335   15.5191  -20.9719 C   0  0  0  0  0  0  0  0  0  0  0  0
  -16.3798   15.2882  -20.9149 F   0  0  0  0  0  0  0  0  0  0  0  0
  -20.0717   17.6512  -22.9661 N   0  0  0  0  0  0  0  0  0  0  0  0
  -20.5031   18.9850  -22.7788 C   0  0  0  0  0  0  0  0  0  0  0  0
  -20.4510   19.5409  -21.6575 O   0  0  0  0  0  0  0  0  0  0  0  0
  -21.0144   19.7499  -23.8571 N   0  0  0  0  0  0  0  0  0  0  0  0
  -20.1663   17.2856  -23.9706 H   0  0  0  0  0  0  0  0  0  0  0  0
  -21.0416   19.2393  -24.7948 H   0  0  0  0  0  0  0  0  0  0  0  0
  -21.4648   21.0655  -23.8147 C   0  0  0  0  0  0  0  0  0  0  0  0
  -20.5394   22.0874  -24.0914 C   0  0  0  0  0  0  0  0  0  0  0  0
  -20.8817   23.4131  -24.0575 C   0  0  0  0  0  0  0  0  0  0  0  0
  -22.1519   23.8182  -23.7503 C   0  0  0  0  0  0  0  0  0  0  0  0
  -23.0911   22.8524  -23.4719 C   0  0  0  0  0  0  0  0  0  0  0  0
  -22.7245   21.5017  -23.5108 C   0  0  0  0  0  0  0  0  0  0  0  0
  -19.8340    9.1510  -15.5848 O   0  0  0  0  0  0  0  0  0  0  0  0
  -19.7832    8.2848  -14.5971 C   0  0  0  0  0  0  0  0  0  0  0  0
  -20.2243    8.6001  -13.2201 C   0  0  0  0  0  0  0  0  0  0  0  0
  -19.2420    8.9800  -12.2037 C   0  0  0  0  0  0  0  0  0  0  0  0
  -19.6617    8.8953  -10.8375 N   0  0  0  0  0  0  0  0  0  0  0  0
  -19.5670   10.2190  -10.2547 C   0  0  0  0  0  0  0  0  0  0  0  0
  -18.1507   10.6022   -9.8839 C   0  0  0  0  0  0  0  0  0  0  0  0
  -17.5911    9.6610   -8.9449 N   0  0  0  0  0  0  0  0  0  0  0  0
  -16.3486    9.0880   -9.3656 C   0  0  0  0  0  0  0  0  0  0  0  0
  -18.5482    8.6220   -8.7108 C   0  0  0  0  0  0  0  0  0  0  0  0
  -18.9628    7.9655  -10.0292 C   0  0  0  0  0  0  0  0  0  0  0  0
 11 12  1  0  0  0
 12  1  1  0  0  0
  1  2  2  0  0  0
  2  3  1  0  0  0
  3  4  2  0  0  0
  4 13  1  0  0  0
 13 14  1  0  0  0
 14 15  2  0  0  0
 15 16  1  0  0  0
 16 17  2  0  0  0
 17 21  1  0  0  0
 21 22  1  0  0  0
 22 23  2  0  0  0
 22 24  1  0  0  0
 24 27  1  0  0  0
 27 28  2  0  0  0
 28 29  1  0  0  0
 29 30  2  0  0  0
 30 31  1  0  0  0
 31 32  2  0  0  0
 17 18  1  0  0  0
 18 19  2  0  0  0
 19 20  1  0  0  0
  4  5  1  0  0  0
  5  6  2  0  0  0
  6  7  1  0  0  0
  7  8  2  0  0  0
  8  9  1  0  0  0
  9 10  2  0  0  0
 10 33  1  0  0  0
 33 34  1  0  0  0
 34 35  1  0  0  0
 35 36  1  0  0  0
 36 37  1  0  0  0
 37 38  1  0  0  0
 38 39  1  0  0  0
 39 40  1  0  0  0
 40 41  1  0  0  0
 40 42  1  0  0  0
 42 43  1  0  0  0
 10  1  1  0  0  0
 43 37  1  0  0  0
  8  3  1  0  0  0
 19 14  1  0  0  0
 32 27  1  0  0  0
 21 25  1  0  0  0
 24 26  1  0  0  0
M  END
> <minimizedAffinity>
-7.89748

> <CNNscore>
0.3275455236

> <CNNaffinity>
6.6390852928

> <CNN_VS>
2.1746027470

> <CNNaffinity_variance>
0.0940558389

$$$$
[H]c1nc2c([H])c(OC([H])([H])C([H])([H])C([H])([H])N3C([H])([H])C([H])([H])N(C([H])([H])[H])C([H])([H])C3([H])[H])c(OC([H])([H])[H])c([H])c2c(Oc2c([H])c([H])c(N([H])C(=O)N([H])c3c([H])c([H])c([H])c([H])c3[H])c([H])c2F)c1[H]


 43 47  0  0  0  0  0  0  0  0999 V2000
  -19.9965   10.4266  -16.2711 C   0  0  0  0  0  0  0  0  0  0  0  0
  -19.9057   11.4783  -17.1559 C   0  0  0  0  0  0  0  0  0  0  0  0
  -18.9918   11.4272  -18.1852 C   0  0  0  0  0  0  0  0  0  0  0  0
  -18.8508   12.4641  -19.1186 C   0  0  0  0  0  0  0  0  0  0  0  0
  -17.9255   12.3732  -20.1330 C   0  0  0  0  0  0  0  0  0  0  0  0
  -17.1216   11.2557  -20.2437 C   0  0  0  0  0  0  0  0  0  0  0  0
  -17.2673   10.2700  -19.3423 N   0  0  0  0  0  0  0  0  0  0  0  0
  -18.1782   10.3375  -18.3281 C   0  0  0  0  0  0  0  0  0  0  0  0
  -18.2885    9.2908  -17.4240 C   0  0  0  0  0  0  0  0  0  0  0  0
  -19.1798    9.2852  -16.3796 C   0  0  0  0  0  0  0  0  0  0  0  0
  -22.2870   10.2135  -15.5188 C   0  0  0  0  0  0  0  0  0  0  0  0
  -20.9001   10.4420  -15.2274 O   0  0  0  0  0  0  0  0  0  0  0  0
  -19.6736   13.5349  -18.9475 O   0  0  0  0  0  0  0  0  0  0  0  0
  -19.5575   14.5960  -18.1008 C   0  0  0  0  0  0  0  0  0  0  0  0
  -20.4550   14.6764  -17.0481 C   0  0  0  0  0  0  0  0  0  0  0  0
  -20.3604   15.7245  -16.1872 C   0  0  0  0  0  0  0  0  0  0  0  0
  -19.3972   16.7483  -16.2960 C   0  0  0  0  0  0  0  0  0  0  0  0
  -18.5370   16.6245  -17.3478 C   0  0  0  0  0  0  0  0  0  0  0  0
  -18.5942   15.5606  -18.2631 C   0  0  0  0  0  0  0  0  0  0  0  0
  -17.6712   15.5180  -19.2805 F   0  0  0  0  0  0  0  0  0  0  0  0
  -19.3855   17.7928  -15.3680 N   0  0  0  0  0  0  0  0  0  0  0  0
  -20.2588   18.8990  -15.2484 C   0  0  0  0  0  0  0  0  0  0  0  0
  -21.2158   19.0687  -16.0384 O   0  0  0  0  0  0  0  0  0  0  0  0
  -20.0851   19.8645  -14.2253 N   0  0  0  0  0  0  0  0  0  0  0  0
  -18.6037   17.7565  -14.6338 H   0  0  0  0  0  0  0  0  0  0  0  0
  -19.2585   19.6828  -13.5739 H   0  0  0  0  0  0  0  0  0  0  0  0
  -20.8687   20.9898  -13.9904 C   0  0  0  0  0  0  0  0  0  0  0  0
  -20.4327   22.2176  -14.5193 C   0  0  0  0  0  0  0  0  0  0  0  0
  -21.1250   23.3837  -14.3275 C   0  0  0  0  0  0  0  0  0  0  0  0
  -22.2867   23.4178  -13.6056 C   0  0  0  0  0  0  0  0  0  0  0  0
  -22.7511   22.2395  -13.0685 C   0  0  0  0  0  0  0  0  0  0  0  0
  -22.0313   21.0564  -13.2739 C   0  0  0  0  0  0  0  0  0  0  0  0
  -19.2977    8.3189  -15.5287 O   0  0  0  0  0  0  0  0  0  0  0  0
  -19.8890    7.3232  -14.9062 C   0  0  0  0  0  0  0  0  0  0  0  0
  -19.8319    7.1372  -13.4392 C   0  0  0  0  0  0  0  0  0  0  0  0
  -20.1438    8.2533  -12.5452 C   0  0  0  0  0  0  0  0  0  0  0  0
  -19.0469    9.0767  -12.1343 N   0  0  0  0  0  0  0  0  0  0  0  0
  -18.2436    8.3201  -11.1947 C   0  0  0  0  0  0  0  0  0  0  0  0
  -18.8416    8.2773   -9.8052 C   0  0  0  0  0  0  0  0  0  0  0  0
  -19.0109    9.6083   -9.2757 N   0  0  0  0  0  0  0  0  0  0  0  0
  -20.3449    9.8979   -8.8448 C   0  0  0  0  0  0  0  0  0  0  0  0
  -18.6089   10.5537  -10.2732 C   0  0  0  0  0  0  0  0  0  0  0  0
  -19.3882   10.3307  -11.5710 C   0  0  0  0  0  0  0  0  0  0  0  0
 11 12  1  0  0  0
 12  1  1  0  0  0
  1  2  2  0  0  0
  2  3  1  0  0  0
  3  4  2  0  0  0
  4 13  1  0  0  0
 13 14  1  0  0  0
 14 15  2  0  0  0
 15 16  1  0  0  0
 16 17  2  0  0  0
 17 21  1  0  0  0
 21 22  1  0  0  0
 22 23  2  0  0  0
 22 24  1  0  0  0
 24 27  1  0  0  0
 27 28  2  0  0  0
 28 29  1  0  0  0
 29 30  2  0  0  0
 30 31  1  0  0  0
 31 32  2  0  0  0
 17 18  1  0  0  0
 18 19  2  0  0  0
 19 20  1  0  0  0
  4  5  1  0  0  0
  5  6  2  0  0  0
  6  7  1  0  0  0
  7  8  2  0  0  0
  8  9  1  0  0  0
  9 10  2  0  0  0
 10 33  1  0  0  0
 33 34  1  0  0  0
 34 35  1  0  0  0
 35 36  1  0  0  0
 36 37  1  0  0  0
 37 38  1  0  0  0
 38 39  1  0  0  0
 39 40  1  0  0  0
 40 41  1  0  0  0
 40 42  1  0  0  0
 42 43  1  0  0  0
 10  1  1  0  0  0
 43 37  1  0  0  0
  8  3  1  0  0  0
 19 14  1  0  0  0
 32 27  1  0  0  0
 21 25  1  0  0  0
 24 26  1  0  0  0
M  END
> <minimizedAffinity>
-7.31219

> <CNNscore>
0.2830684185

> <CNNaffinity>
6.6868591309

> <CNN_VS>
1.8928385973

> <CNNaffinity_variance>
0.0625622347

$$$$
[H]c1nc2c([H])c(OC([H])([H])C([H])([H])C([H])([H])N3C([H])([H])C([H])([H])N(C([H])([H])[H])C([H])([H])C3([H])[H])c(OC([H])([H])[H])c([H])c2c(Oc2c([H])c([H])c(N([H])C(=O)N([H])c3c([H])c([H])c([H])c([H])c3[H])c([H])c2F)c1[H]


 43 47  0  0  0  0  0  0  0  0999 V2000
  -19.1899   14.8985  -20.3316 C   0  0  0  0  0  0  0  0  0  0  0  0
  -18.9961   13.8469  -19.4634 C   0  0  0  0  0  0  0  0  0  0  0  0
  -18.2441   12.7635  -19.8610 C   0  0  0  0  0  0  0  0  0  0  0  0
  -18.0094   11.6626  -19.0247 C   0  0  0  0  0  0  0  0  0  0  0  0
  -17.2514   10.6001  -19.4605 C   0  0  0  0  0  0  0  0  0  0  0  0
  -16.7112   10.6055  -20.7315 C   0  0  0  0  0  0  0  0  0  0  0  0
  -16.9443   11.6667  -21.5221 N   0  0  0  0  0  0  0  0  0  0  0  0
  -17.6924   12.7319  -21.1118 C   0  0  0  0  0  0  0  0  0  0  0  0
  -17.9021   13.8032  -21.9681 C   0  0  0  0  0  0  0  0  0  0  0  0
  -18.6414   14.9091  -21.6279 C   0  0  0  0  0  0  0  0  0  0  0  0
  -19.3440   16.9736  -19.0954 C   0  0  0  0  0  0  0  0  0  0  0  0
  -19.9374   16.0010  -19.9687 O   0  0  0  0  0  0  0  0  0  0  0  0
  -18.5737   11.7241  -17.7875 O   0  0  0  0  0  0  0  0  0  0  0  0
  -19.2865   10.7828  -17.1076 C   0  0  0  0  0  0  0  0  0  0  0  0
  -18.6876    9.5500  -16.9035 C   0  0  0  0  0  0  0  0  0  0  0  0
  -19.3763    8.5929  -16.2265 C   0  0  0  0  0  0  0  0  0  0  0  0
  -20.6764    8.7740  -15.7118 C   0  0  0  0  0  0  0  0  0  0  0  0
  -21.2227   10.0035  -15.9383 C   0  0  0  0  0  0  0  0  0  0  0  0
  -20.5512   11.0242  -16.6313 C   0  0  0  0  0  0  0  0  0  0  0  0
  -21.1823   12.2343  -16.7935 F   0  0  0  0  0  0  0  0  0  0  0  0
  -21.3093    7.7260  -15.0384 N   0  0  0  0  0  0  0  0  0  0  0  0
  -21.5241    6.3908  -15.4527 C   0  0  0  0  0  0  0  0  0  0  0  0
  -21.1347    5.9790  -16.5697 O   0  0  0  0  0  0  0  0  0  0  0  0
  -22.1920    5.4610  -14.6169 N   0  0  0  0  0  0  0  0  0  0  0  0
  -21.6890    7.9599  -14.0623 H   0  0  0  0  0  0  0  0  0  0  0  0
  -22.5072    5.8521  -13.6744 H   0  0  0  0  0  0  0  0  0  0  0  0
  -22.4627    4.1250  -14.8949 C   0  0  0  0  0  0  0  0  0  0  0  0
  -23.1690    3.3824  -13.9321 C   0  0  0  0  0  0  0  0  0  0  0  0
  -23.4680    2.0571  -14.1054 C   0  0  0  0  0  0  0  0  0  0  0  0
  -23.0930    1.3786  -15.2328 C   0  0  0  0  0  0  0  0  0  0  0  0
  -22.3991    2.0653  -16.2021 C   0  0  0  0  0  0  0  0  0  0  0  0
  -22.1015    3.4197  -16.0091 C   0  0  0  0  0  0  0  0  0  0  0  0
  -18.8461   15.9168  -22.4116 O   0  0  0  0  0  0  0  0  0  0  0  0
  -18.5266   16.8928  -23.2326 C   0  0  0  0  0  0  0  0  0  0  0  0
  -17.1515   17.4240  -23.3628 C   0  0  0  0  0  0  0  0  0  0  0  0
  -16.4216   17.2703  -24.6221 C   0  0  0  0  0  0  0  0  0  0  0  0
  -15.2556   16.4398  -24.5947 N   0  0  0  0  0  0  0  0  0  0  0  0
  -14.9575   16.0376  -25.9548 C   0  0  0  0  0  0  0  0  0  0  0  0
  -15.8469   14.9173  -26.4489 C   0  0  0  0  0  0  0  0  0  0  0  0
  -15.7281   13.7541  -25.6043 N   0  0  0  0  0  0  0  0  0  0  0  0
  -16.9759   13.2809  -25.0865 C   0  0  0  0  0  0  0  0  0  0  0  0
  -14.8408   14.0608  -24.5230 C   0  0  0  0  0  0  0  0  0  0  0  0
  -15.3268   15.2961  -23.7621 C   0  0  0  0  0  0  0  0  0  0  0  0
 11 12  1  0  0  0
 12  1  1  0  0  0
  1  2  2  0  0  0
  2  3  1  0  0  0
  3  4  2  0  0  0
  4 13  1  0  0  0
 13 14  1  0  0  0
 14 15  2  0  0  0
 15 16  1  0  0  0
 16 17  2  0  0  0
 17 21  1  0  0  0
 21 22  1  0  0  0
 22 23  2  0  0  0
 22 24  1  0  0  0
 24 27  1  0  0  0
 27 28  2  0  0  0
 28 29  1  0  0  0
 29 30  2  0  0  0
 30 31  1  0  0  0
 31 32  2  0  0  0
 17 18  1  0  0  0
 18 19  2  0  0  0
 19 20  1  0  0  0
  4  5  1  0  0  0
  5  6  2  0  0  0
  6  7  1  0  0  0
  7  8  2  0  0  0
  8  9  1  0  0  0
  9 10  2  0  0  0
 10 33  1  0  0  0
 33 34  1  0  0  0
 34 35  1  0  0  0
 35 36  1  0  0  0
 36 37  1  0  0  0
 37 38  1  0  0  0
 38 39  1  0  0  0
 39 40  1  0  0  0
 40 41  1  0  0  0
 40 42  1  0  0  0
 42 43  1  0  0  0
 10  1  1  0  0  0
 43 37  1  0  0  0
  8  3  1  0  0  0
 19 14  1  0  0  0
 32 27  1  0  0  0
 21 25  1  0  0  0
 24 26  1  0  0  0
M  END
> <minimizedAffinity>
-8.94238

> <CNNscore>
0.2568171918

> <CNNaffinity>
6.9503707886

> <CNN_VS>
1.7849746943

> <CNNaffinity_variance>
0.0914025530

$$$$
[H]c1nc2c([H])c(OC([H])([H])[H])c(OC([H])([H])[H])c([H])c2c(Oc2c([H])c([H])c(N([H])C(=O)N([H])c3c(Cl)c([H])c([H])c([H])c3Cl)c([H])c2Cl)c1[H]


 36 39  0  0  0  0  0  0  0  0999 V2000
  -19.0559   11.8909  -18.6499 C   0  0  0  0  0  0  0  0  0  0  0  0
  -18.6780   10.6448  -18.1672 C   0  0  0  0  0  0  0  0  0  0  0  0
  -19.1762   10.1009  -17.0283 C   0  0  0  0  0  0  0  0  0  0  0  0
  -20.1285   10.7891  -16.2543 C   0  0  0  0  0  0  0  0  0  0  0  0
  -20.5079   12.0128  -16.7172 C   0  0  0  0  0  0  0  0  0  0  0  0
  -19.9819   12.5637  -17.9026 C   0  0  0  0  0  0  0  0  0  0  0  0
  -20.5778   14.1262  -18.4516 Cl  0  0  0  0  0  0  0  0  0  0  0  0
  -20.5951   10.1977  -15.0703 N   0  0  0  0  0  0  0  0  0  0  0  0
  -20.0827   10.4809  -13.7975 C   0  0  0  0  0  0  0  0  0  0  0  0
  -19.1584   11.2984  -13.5791 O   0  0  0  0  0  0  0  0  0  0  0  0
  -20.6314    9.8058  -12.6422 N   0  0  0  0  0  0  0  0  0  0  0  0
  -21.3925    9.4864  -15.1763 H   0  0  0  0  0  0  0  0  0  0  0  0
  -21.3962    9.1300  -12.8264 H   0  0  0  0  0  0  0  0  0  0  0  0
  -20.1506   10.0536  -11.3279 C   0  0  0  0  0  0  0  0  0  0  0  0
  -20.6900   11.0947  -10.6012 C   0  0  0  0  0  0  0  0  0  0  0  0
  -21.9403   12.1355  -11.2074 Cl  0  0  0  0  0  0  0  0  0  0  0  0
  -20.2024   11.3170   -9.3165 C   0  0  0  0  0  0  0  0  0  0  0  0
  -19.2074   10.5064   -8.8050 C   0  0  0  0  0  0  0  0  0  0  0  0
  -18.6794    9.4674   -9.5494 C   0  0  0  0  0  0  0  0  0  0  0  0
  -19.1558    9.2305  -10.8373 C   0  0  0  0  0  0  0  0  0  0  0  0
  -18.4814    7.9100  -11.7769 Cl  0  0  0  0  0  0  0  0  0  0  0  0
  -18.5480   12.4271  -19.8019 O   0  0  0  0  0  0  0  0  0  0  0  0
  -16.1863   13.7158  -24.0079 C   0  0  0  0  0  0  0  0  0  0  0  0
  -15.5665   12.5783  -23.5350 C   0  0  0  0  0  0  0  0  0  0  0  0
  -15.9820   11.9460  -22.3629 C   0  0  0  0  0  0  0  0  0  0  0  0
  -15.3534   10.8315  -21.9249 N   0  0  0  0  0  0  0  0  0  0  0  0
  -15.7488   10.2169  -20.7964 C   0  0  0  0  0  0  0  0  0  0  0  0
  -16.8136   10.7215  -20.0619 C   0  0  0  0  0  0  0  0  0  0  0  0
  -17.4827   11.8418  -20.4564 C   0  0  0  0  0  0  0  0  0  0  0  0
  -17.0354   12.4500  -21.6408 C   0  0  0  0  0  0  0  0  0  0  0  0
  -17.6517   13.5921  -22.1228 C   0  0  0  0  0  0  0  0  0  0  0  0
  -17.2428   14.2166  -23.2787 C   0  0  0  0  0  0  0  0  0  0  0  0
  -14.5149   14.9901  -25.1871 C   0  0  0  0  0  0  0  0  0  0  0  0
  -15.7558   14.3341  -25.1829 O   0  0  0  0  0  0  0  0  0  0  0  0
  -17.8747   15.3589  -23.7423 O   0  0  0  0  0  0  0  0  0  0  0  0
  -18.4858   16.2868  -22.8574 C   0  0  0  0  0  0  0  0  0  0  0  0
 33 34  1  0  0  0
 34 23  1  0  0  0
 23 24  2  0  0  0
 24 25  1  0  0  0
 25 26  2  0  0  0
 26 27  1  0  0  0
 27 28  2  0  0  0
 28 29  1  0  0  0
 29 22  1  0  0  0
 22  1  1  0  0  0
  1  2  2  0  0  0
  2  3  1  0  0  0
  3  4  2  0  0  0
  4  8  1  0  0  0
  8  9  1  0  0  0
  9 10  2  0  0  0
  9 11  1  0  0  0
 11 14  1  0  0  0
 14 15  2  0  0  0
 15 16  1  0  0  0
 15 17  1  0  0  0
 17 18  2  0  0  0
 18 19  1  0  0  0
 19 20  2  0  0  0
 20 21  1  0  0  0
  4  5  1  0  0  0
  5  6  2  0  0  0
  6  7  1  0  0  0
 29 30  2  0  0  0
 30 31  1  0  0  0
 31 32  2  0  0  0
 32 35  1  0  0  0
 35 36  1  0  0  0
 32 23  1  0  0  0
 30 25  1  0  0  0
  6  1  1  0  0  0
 20 14  1  0  0  0
  8 12  1  0  0  0
 11 13  1  0  0  0
M  END
> <minimizedAffinity>
-8.35678

> <CNNscore>
0.3529907465

> <CNNaffinity>
7.0982604027

> <CNN_VS>
2.5056202412

> <CNNaffinity_variance>
0.0765076801

$$$$
[H]c1nc2c([H])c(OC([H])([H])[H])c(OC([H])([H])[H])c([H])c2c(Oc2c([H])c([H])c(N([H])C(=O)N([H])c3c(Cl)c([H])c([H])c([H])c3Cl)c([H])c2Cl)c1[H]


 36 39  0  0  0  0  0  0  0  0999 V2000
  -18.8706   12.1882  -18.4370 C   0  0  0  0  0  0  0  0  0  0  0  0
  -17.6446   11.5470  -18.5578 C   0  0  0  0  0  0  0  0  0  0  0  0
  -16.9341   11.5023  -19.7131 C   0  0  0  0  0  0  0  0  0  0  0  0
  -17.4147   12.1200  -20.8823 C   0  0  0  0  0  0  0  0  0  0  0  0
  -18.6165   12.7526  -20.7770 C   0  0  0  0  0  0  0  0  0  0  0  0
  -19.3419   12.7912  -19.5697 C   0  0  0  0  0  0  0  0  0  0  0  0
  -20.8578   13.6840  -19.5166 Cl  0  0  0  0  0  0  0  0  0  0  0  0
  -16.6573   12.0244  -22.0598 N   0  0  0  0  0  0  0  0  0  0  0  0
  -16.6649   12.9873  -23.0774 C   0  0  0  0  0  0  0  0  0  0  0  0
  -17.3425   14.0408  -23.0416 O   0  0  0  0  0  0  0  0  0  0  0  0
  -15.8519   12.7846  -24.2562 N   0  0  0  0  0  0  0  0  0  0  0  0
  -16.0456   11.1478  -22.1618 H   0  0  0  0  0  0  0  0  0  0  0  0
  -15.2924   11.9118  -24.2826 H   0  0  0  0  0  0  0  0  0  0  0  0
  -15.8207   13.7274  -25.3192 C   0  0  0  0  0  0  0  0  0  0  0  0
  -14.8832   14.7390  -25.2916 C   0  0  0  0  0  0  0  0  0  0  0  0
  -13.7221   14.9305  -24.0153 Cl  0  0  0  0  0  0  0  0  0  0  0  0
  -14.8728   15.6498  -26.3442 C   0  0  0  0  0  0  0  0  0  0  0  0
  -15.7839   15.5249  -27.3752 C   0  0  0  0  0  0  0  0  0  0  0  0
  -16.7162   14.5036  -27.3848 C   0  0  0  0  0  0  0  0  0  0  0  0
  -16.7409   13.5828  -26.3391 C   0  0  0  0  0  0  0  0  0  0  0  0
  -17.9268   12.2888  -26.3573 Cl  0  0  0  0  0  0  0  0  0  0  0  0
  -19.5759   12.2287  -17.2651 O   0  0  0  0  0  0  0  0  0  0  0  0
  -22.4687   11.4853  -13.2642 C   0  0  0  0  0  0  0  0  0  0  0  0
  -21.9610   10.2545  -13.6234 C   0  0  0  0  0  0  0  0  0  0  0  0
  -21.1039   10.1007  -14.7134 C   0  0  0  0  0  0  0  0  0  0  0  0
  -20.6226    8.8799  -15.0405 N   0  0  0  0  0  0  0  0  0  0  0  0
  -19.7960    8.7246  -16.0895 C   0  0  0  0  0  0  0  0  0  0  0  0
  -19.4240    9.8218  -16.8548 C   0  0  0  0  0  0  0  0  0  0  0  0
  -19.8795   11.0748  -16.5707 C   0  0  0  0  0  0  0  0  0  0  0  0
  -20.7399   11.1895  -15.4664 C   0  0  0  0  0  0  0  0  0  0  0  0
  -21.2543   12.4211  -15.0987 C   0  0  0  0  0  0  0  0  0  0  0  0
  -22.0996   12.5740  -14.0239 C   0  0  0  0  0  0  0  0  0  0  0  0
  -24.6590   11.2016  -12.2996 C   0  0  0  0  0  0  0  0  0  0  0  0
  -23.3250   11.6188  -12.1699 O   0  0  0  0  0  0  0  0  0  0  0  0
  -22.6023   13.8166  -13.6742 O   0  0  0  0  0  0  0  0  0  0  0  0
  -23.6704   14.4196  -14.3905 C   0  0  0  0  0  0  0  0  0  0  0  0
 33 34  1  0  0  0
 34 23  1  0  0  0
 23 24  2  0  0  0
 24 25  1  0  0  0
 25 26  2  0  0  0
 26 27  1  0  0  0
 27 28  2  0  0  0
 28 29  1  0  0  0
 29 22  1  0  0  0
 22  1  1  0  0  0
  1  2  2  0  0  0
  2  3  1  0  0  0
  3  4  2  0  0  0
  4  8  1  0  0  0
  8  9  1  0  0  0
  9 10  2  0  0  0
  9 11  1  0  0  0
 11 14  1  0  0  0
 14 15  2  0  0  0
 15 16  1  0  0  0
 15 17  1  0  0  0
 17 18  2  0  0  0
 18 19  1  0  0  0
 19 20  2  0  0  0
 20 21  1  0  0  0
  4  5  1  0  0  0
  5  6  2  0  0  0
  6  7  1  0  0  0
 29 30  2  0  0  0
 30 31  1  0  0  0
 31 32  2  0  0  0
 32 35  1  0  0  0
 35 36  1  0  0  0
 32 23  1  0  0  0
 30 25  1  0  0  0
  6  1  1  0  0  0
 20 14  1  0  0  0
  8 12  1  0  0  0
 11 13  1  0  0  0
M  END
> <minimizedAffinity>
-9.09539

> <CNNscore>
0.2623534799

> <CNNaffinity>
7.0415978432

> <CNN_VS>
1.8473876715

> <CNNaffinity_variance>
0.0505744219

$$$$
[H]c1nc2c([H])c(OC([H])([H])[H])c(OC([H])([H])[H])c([H])c2c(Oc2c([H])c([H])c(N([H])C(=O)N([H])c3c(Cl)c([H])c([H])c([H])c3Cl)c([H])c2Cl)c1[H]


 36 39  0  0  0  0  0  0  0  0999 V2000
  -18.8426   12.4698  -19.1669 C   0  0  0  0  0  0  0  0  0  0  0  0
  -18.2458   11.3568  -18.5892 C   0  0  0  0  0  0  0  0  0  0  0  0
  -18.7886   10.6702  -17.5522 C   0  0  0  0  0  0  0  0  0  0  0  0
  -20.0188   11.0598  -16.9916 C   0  0  0  0  0  0  0  0  0  0  0  0
  -20.6148   12.1503  -17.5495 C   0  0  0  0  0  0  0  0  0  0  0  0
  -20.0389   12.8522  -18.6270 C   0  0  0  0  0  0  0  0  0  0  0  0
  -20.9131   14.2139  -19.3193 Cl  0  0  0  0  0  0  0  0  0  0  0  0
  -20.5277   10.3347  -15.9032 N   0  0  0  0  0  0  0  0  0  0  0  0
  -20.2550    8.9811  -15.6664 C   0  0  0  0  0  0  0  0  0  0  0  0
  -19.5211    8.2749  -16.3966 O   0  0  0  0  0  0  0  0  0  0  0  0
  -20.8404    8.3268  -14.5171 N   0  0  0  0  0  0  0  0  0  0  0  0
  -21.1643   10.8750  -15.2279 H   0  0  0  0  0  0  0  0  0  0  0  0
  -21.4471    8.9140  -13.9150 H   0  0  0  0  0  0  0  0  0  0  0  0
  -20.5986    6.9564  -14.2281 C   0  0  0  0  0  0  0  0  0  0  0  0
  -21.3162    5.9913  -14.9037 C   0  0  0  0  0  0  0  0  0  0  0  0
  -22.5154    6.3584  -16.1042 Cl  0  0  0  0  0  0  0  0  0  0  0  0
  -21.0611    4.6564  -14.6030 C   0  0  0  0  0  0  0  0  0  0  0  0
  -20.1129    4.3312  -13.6523 C   0  0  0  0  0  0  0  0  0  0  0  0
  -19.4036    5.3134  -12.9856 C   0  0  0  0  0  0  0  0  0  0  0  0
  -19.6461    6.6550  -13.2742 C   0  0  0  0  0  0  0  0  0  0  0  0
  -18.7424    7.8969  -12.4244 Cl  0  0  0  0  0  0  0  0  0  0  0  0
  -18.2862   13.1518  -20.2146 O   0  0  0  0  0  0  0  0  0  0  0  0
  -16.2510   14.7126  -24.4983 C   0  0  0  0  0  0  0  0  0  0  0  0
  -15.6950   13.4823  -24.2177 C   0  0  0  0  0  0  0  0  0  0  0  0
  -16.0471   12.7571  -23.0790 C   0  0  0  0  0  0  0  0  0  0  0  0
  -15.4838   11.5528  -22.8315 N   0  0  0  0  0  0  0  0  0  0  0  0
  -15.8188   10.8485  -21.7363 C   0  0  0  0  0  0  0  0  0  0  0  0
  -16.7527   11.3514  -20.8403 C   0  0  0  0  0  0  0  0  0  0  0  0
  -17.3512   12.5598  -21.0399 C   0  0  0  0  0  0  0  0  0  0  0  0
  -16.9710   13.2600  -22.1967 C   0  0  0  0  0  0  0  0  0  0  0  0
  -17.5241   14.4956  -22.4863 C   0  0  0  0  0  0  0  0  0  0  0  0
  -17.1775   15.2117  -23.6090 C   0  0  0  0  0  0  0  0  0  0  0  0
  -16.2878   14.9384  -26.8975 C   0  0  0  0  0  0  0  0  0  0  0  0
  -15.8856   15.4230  -25.6430 O   0  0  0  0  0  0  0  0  0  0  0  0
  -17.7441   16.4468  -23.8787 O   0  0  0  0  0  0  0  0  0  0  0  0
  -18.9993   16.8284  -23.3343 C   0  0  0  0  0  0  0  0  0  0  0  0
 33 34  1  0  0  0
 34 23  1  0  0  0
 23 24  2  0  0  0
 24 25  1  0  0  0
 25 26  2  0  0  0
 26 27  1  0  0  0
 27 28  2  0  0  0
 28 29  1  0  0  0
 29 22  1  0  0  0
 22  1  1  0  0  0
  1  2  2  0  0  0
  2  3  1  0  0  0
  3  4  2  0  0  0
  4  8  1  0  0  0
  8  9  1  0  0  0
  9 10  2  0  0  0
  9 11  1  0  0  0
 11 14  1  0  0  0
 14 15  2  0  0  0
 15 16  1  0  0  0
 15 17  1  0  0  0
 17 18  2  0  0  0
 18 19  1  0  0  0
 19 20  2  0  0  0
 20 21  1  0  0  0
  4  5  1  0  0  0
  5  6  2  0  0  0
  6  7  1  0  0  0
 29 30  2  0  0  0
 30 31  1  0  0  0
 31 32  2  0  0  0
 32 35  1  0  0  0
 35 36  1  0  0  0
 32 23  1  0  0  0
 30 25  1  0  0  0
  6  1  1  0  0  0
 20 14  1  0  0  0
  8 12  1  0  0  0
 11 13  1  0  0  0
M  END
> <minimizedAffinity>
-8.01581

> <CNNscore>
0.1787479222

> <CNNaffinity>
7.0532979965

> <CNN_VS>
1.2607623339

> <CNNaffinity_variance>
0.1552136093

$$$$
[H]c1nc2c([H])c(OC([H])([H])[H])c(OC([H])([H])[H])c([H])c2c(Oc2c([H])c([H])c(N([H])C(=O)N([H])c3c(Cl)c([H])c([H])c([H])c3Cl)c([H])c2Cl)c1[H]


 36 39  0  0  0  0  0  0  0  0999 V2000
  -18.6010   11.4566  -18.1722 C   0  0  0  0  0  0  0  0  0  0  0  0
  -18.2412   10.1198  -18.0619 C   0  0  0  0  0  0  0  0  0  0  0  0
  -18.8413    9.2512  -17.2094 C   0  0  0  0  0  0  0  0  0  0  0  0
  -19.8889    9.6699  -16.3687 C   0  0  0  0  0  0  0  0  0  0  0  0
  -20.2516   10.9793  -16.4674 C   0  0  0  0  0  0  0  0  0  0  0  0
  -19.6192   11.8688  -17.3586 C   0  0  0  0  0  0  0  0  0  0  0  0
  -20.1976   13.5282  -17.4570 Cl  0  0  0  0  0  0  0  0  0  0  0  0
  -20.4609    8.7420  -15.4849 N   0  0  0  0  0  0  0  0  0  0  0  0
  -19.8698    8.3388  -14.2804 C   0  0  0  0  0  0  0  0  0  0  0  0
  -18.7709    8.7696  -13.8593 O   0  0  0  0  0  0  0  0  0  0  0  0
  -20.5424    7.3668  -13.4470 N   0  0  0  0  0  0  0  0  0  0  0  0
  -21.4087    8.3298  -15.7763 H   0  0  0  0  0  0  0  0  0  0  0  0
  -21.4515    7.0125  -13.7984 H   0  0  0  0  0  0  0  0  0  0  0  0
  -19.9897    6.9216  -12.2157 C   0  0  0  0  0  0  0  0  0  0  0  0
  -19.3096    5.7220  -12.1802 C   0  0  0  0  0  0  0  0  0  0  0  0
  -19.0863    4.7092  -13.5724 Cl  0  0  0  0  0  0  0  0  0  0  0  0
  -18.7774    5.3077  -10.9625 C   0  0  0  0  0  0  0  0  0  0  0  0
  -18.9380    6.0910   -9.8359 C   0  0  0  0  0  0  0  0  0  0  0  0
  -19.6232    7.2909   -9.8918 C   0  0  0  0  0  0  0  0  0  0  0  0
  -20.1625    7.7210  -11.1026 C   0  0  0  0  0  0  0  0  0  0  0  0
  -21.0311    9.2450  -11.1669 Cl  0  0  0  0  0  0  0  0  0  0  0  0
  -17.9897   12.3219  -19.0384 O   0  0  0  0  0  0  0  0  0  0  0  0
  -17.2724   14.1130  -23.6433 C   0  0  0  0  0  0  0  0  0  0  0  0
  -16.4958   12.9790  -23.5311 C   0  0  0  0  0  0  0  0  0  0  0  0
  -16.4608   12.2231  -22.3590 C   0  0  0  0  0  0  0  0  0  0  0  0
  -15.6888   11.1154  -22.2801 N   0  0  0  0  0  0  0  0  0  0  0  0
  -15.6505   10.3822  -21.1538 C   0  0  0  0  0  0  0  0  0  0  0  0
  -16.4074   10.7549  -20.0510 C   0  0  0  0  0  0  0  0  0  0  0  0
  -17.2024   11.8620  -20.0749 C   0  0  0  0  0  0  0  0  0  0  0  0
  -17.2113   12.5969  -21.2718 C   0  0  0  0  0  0  0  0  0  0  0  0
  -17.9878   13.7366  -21.3933 C   0  0  0  0  0  0  0  0  0  0  0  0
  -18.0231   14.4829  -22.5487 C   0  0  0  0  0  0  0  0  0  0  0  0
  -16.8110   14.2671  -26.0037 C   0  0  0  0  0  0  0  0  0  0  0  0
  -17.2940   14.8561  -24.8247 O   0  0  0  0  0  0  0  0  0  0  0  0
  -18.8079   15.6202  -22.6477 O   0  0  0  0  0  0  0  0  0  0  0  0
  -19.3078   16.2861  -21.4970 C   0  0  0  0  0  0  0  0  0  0  0  0
 33 34  1  0  0  0
 34 23  1  0  0  0
 23 24  2  0  0  0
 24 25  1  0  0  0
 25 26  2  0  0  0
 26 27  1  0  0  0
 27 28  2  0  0  0
 28 29  1  0  0  0
 29 22  1  0  0  0
 22  1  1  0  0  0
  1  2  2  0  0  0
  2  3  1  0  0  0
  3  4  2  0  0  0
  4  8  1  0  0  0
  8  9  1  0  0  0
  9 10  2  0  0  0
  9 11  1  0  0  0
 11 14  1  0  0  0
 14 15  2  0  0  0
 15 16  1  0  0  0
 15 17  1  0  0  0
 17 18  2  0  0  0
 18 19  1  0  0  0
 19 20  2  0  0  0
 20 21  1  0  0  0
  4  5  1  0  0  0
  5  6  2  0  0  0
  6  7  1  0  0  0
 29 30  2  0  0  0
 30 31  1  0  0  0
 31 32  2  0  0  0
 32 35  1  0  0  0
 35 36  1  0  0  0
 32 23  1  0  0  0
 30 25  1  0  0  0
  6  1  1  0  0  0
 20 14  1  0  0  0
  8 12  1  0  0  0
 11 13  1  0  0  0
M  END
> <minimizedAffinity>
-8.32825

> <CNNscore>
0.1384070367

> <CNNaffinity>
6.8114137650

> <CNN_VS>
0.9427475929

> <CNNaffinity_variance>
0.0898760110

$$$$
[H]c1nc2c([H])c(OC([H])([H])[H])c(OC([H])([H])[H])c([H])c2c(Oc2c([H])c([H])c(N([H])C(=O)N([H])c3c(Cl)c([H])c([H])c([H])c3Cl)c([H])c2Cl)c1[H]


 36 39  0  0  0  0  0  0  0  0999 V2000
  -18.7630   12.4016  -19.8612 C   0  0  0  0  0  0  0  0  0  0  0  0
  -17.8762   11.3440  -20.0154 C   0  0  0  0  0  0  0  0  0  0  0  0
  -17.7406   10.3429  -19.1094 C   0  0  0  0  0  0  0  0  0  0  0  0
  -18.5122   10.3224  -17.9331 C   0  0  0  0  0  0  0  0  0  0  0  0
  -19.3863   11.3544  -17.7699 C   0  0  0  0  0  0  0  0  0  0  0  0
  -19.5164   12.3861  -18.7206 C   0  0  0  0  0  0  0  0  0  0  0  0
  -20.7156   13.6457  -18.4500 Cl  0  0  0  0  0  0  0  0  0  0  0  0
  -18.3180    9.2807  -17.0131 N   0  0  0  0  0  0  0  0  0  0  0  0
  -19.3064    8.8140  -16.1366 C   0  0  0  0  0  0  0  0  0  0  0  0
  -20.4720    9.2714  -16.0859 O   0  0  0  0  0  0  0  0  0  0  0  0
  -18.9962    7.7390  -15.2203 N   0  0  0  0  0  0  0  0  0  0  0  0
  -17.3417    8.8339  -16.9999 H   0  0  0  0  0  0  0  0  0  0  0  0
  -18.0308    7.3629  -15.2649 H   0  0  0  0  0  0  0  0  0  0  0  0
  -19.9592    7.2262  -14.3095 C   0  0  0  0  0  0  0  0  0  0  0  0
  -20.9451    6.3835  -14.7792 C   0  0  0  0  0  0  0  0  0  0  0  0
  -21.0805    5.9058  -16.4428 Cl  0  0  0  0  0  0  0  0  0  0  0  0
  -21.8764    5.8944  -13.8675 C   0  0  0  0  0  0  0  0  0  0  0  0
  -21.7961    6.2558  -12.5365 C   0  0  0  0  0  0  0  0  0  0  0  0
  -20.7999    7.1019  -12.0848 C   0  0  0  0  0  0  0  0  0  0  0  0
  -19.8592    7.6009  -12.9837 C   0  0  0  0  0  0  0  0  0  0  0  0
  -18.5973    8.6745  -12.4040 Cl  0  0  0  0  0  0  0  0  0  0  0  0
  -18.8924   13.4036  -20.7841 O   0  0  0  0  0  0  0  0  0  0  0  0
  -15.4725   14.5968  -24.2205 C   0  0  0  0  0  0  0  0  0  0  0  0
  -15.3917   15.5518  -23.2291 C   0  0  0  0  0  0  0  0  0  0  0  0
  -16.2168   15.5181  -22.1046 C   0  0  0  0  0  0  0  0  0  0  0  0
  -16.1133   16.4697  -21.1492 N   0  0  0  0  0  0  0  0  0  0  0  0
  -16.9050   16.4431  -20.0628 C   0  0  0  0  0  0  0  0  0  0  0  0
  -17.8444   15.4326  -19.9071 C   0  0  0  0  0  0  0  0  0  0  0  0
  -17.9921   14.4487  -20.8388 C   0  0  0  0  0  0  0  0  0  0  0  0
  -17.1439   14.5164  -21.9564 C   0  0  0  0  0  0  0  0  0  0  0  0
  -17.2182   13.5620  -22.9564 C   0  0  0  0  0  0  0  0  0  0  0  0
  -16.4050   13.5942  -24.0659 C   0  0  0  0  0  0  0  0  0  0  0  0
  -14.9225   15.5743  -26.3536 C   0  0  0  0  0  0  0  0  0  0  0  0
  -14.6380   14.6477  -25.3383 O   0  0  0  0  0  0  0  0  0  0  0  0
  -16.4969   12.6280  -25.0545 O   0  0  0  0  0  0  0  0  0  0  0  0
  -17.6229   12.5450  -25.9163 C   0  0  0  0  0  0  0  0  0  0  0  0
 33 34  1  0  0  0
 34 23  1  0  0  0
 23 24  2  0  0  0
 24 25  1  0  0  0
 25 26  2  0  0  0
 26 27  1  0  0  0
 27 28  2  0  0  0
 28 29  1  0  0  0
 29 22  1  0  0  0
 22  1  1  0  0  0
  1  2  2  0  0  0
  2  3  1  0  0  0
  3  4  2  0  0  0
  4  8  1  0  0  0
  8  9  1  0  0  0
  9 10  2  0  0  0
  9 11  1  0  0  0
 11 14  1  0  0  0
 14 15  2  0  0  0
 15 16  1  0  0  0
 15 17  1  0  0  0
 17 18  2  0  0  0
 18 19  1  0  0  0
 19 20  2  0  0  0
 20 21  1  0  0  0
  4  5  1  0  0  0
  5  6  2  0  0  0
  6  7  1  0  0  0
 29 30  2  0  0  0
 30 31  1  0  0  0
 31 32  2  0  0  0
 32 35  1  0  0  0
 35 36  1  0  0  0
 32 23  1  0  0  0
 30 25  1  0  0  0
  6  1  1  0  0  0
 20 14  1  0  0  0
  8 12  1  0  0  0
 11 13  1  0  0  0
M  END
> <minimizedAffinity>
-8.80109

> <CNNscore>
0.1000040844

> <CNNaffinity>
6.8519454002

> <CNN_VS>
0.6852225065

> <CNNaffinity_variance>
0.0390998162

$$$$
[H]c1nc2c([H])c(OC([H])([H])[H])c(OC([H])([H])[H])c([H])c2c(Oc2c([H])c([H])c(N([H])C(=O)N([H])c3c(Cl)c([H])c([H])c([H])c3Cl)c([H])c2Cl)c1[H]


 36 39  0  0  0  0  0  0  0  0999 V2000
  -18.7637   12.4065  -19.8489 C   0  0  0  0  0  0  0  0  0  0  0  0
  -17.8753   11.3510  -20.0078 C   0  0  0  0  0  0  0  0  0  0  0  0
  -17.7381   10.3461  -19.1062 C   0  0  0  0  0  0  0  0  0  0  0  0
  -18.5098   10.3190  -17.9301 C   0  0  0  0  0  0  0  0  0  0  0  0
  -19.3855   11.3489  -17.7623 C   0  0  0  0  0  0  0  0  0  0  0  0
  -19.5171   12.3847  -18.7084 C   0  0  0  0  0  0  0  0  0  0  0  0
  -20.7184   13.6411  -18.4321 Cl  0  0  0  0  0  0  0  0  0  0  0  0
  -18.3139    9.2735  -17.0148 N   0  0  0  0  0  0  0  0  0  0  0  0
  -19.2911    8.8236  -16.1173 C   0  0  0  0  0  0  0  0  0  0  0  0
  -20.4472    9.3013  -16.0412 O   0  0  0  0  0  0  0  0  0  0  0  0
  -18.9800    7.7428  -15.2081 N   0  0  0  0  0  0  0  0  0  0  0  0
  -17.3455    8.8097  -17.0229 H   0  0  0  0  0  0  0  0  0  0  0  0
  -18.0225    7.3499  -15.2737 H   0  0  0  0  0  0  0  0  0  0  0  0
  -19.9319    7.2463  -14.2768 C   0  0  0  0  0  0  0  0  0  0  0  0
  -19.8293    7.6148  -12.9514 C   0  0  0  0  0  0  0  0  0  0  0  0
  -18.5869    8.6651  -12.3456 Cl  0  0  0  0  0  0  0  0  0  0  0  0
  -20.7736    7.1154  -12.0589 C   0  0  0  0  0  0  0  0  0  0  0  0
  -21.7750    6.2771  -12.5096 C   0  0  0  0  0  0  0  0  0  0  0  0
  -21.8610    5.9192  -13.8426 C   0  0  0  0  0  0  0  0  0  0  0  0
  -20.9241    6.4099  -14.7500 C   0  0  0  0  0  0  0  0  0  0  0  0
  -21.0388    5.9517  -16.4406 Cl  0  0  0  0  0  0  0  0  0  0  0  0
  -18.8947   13.4124  -20.7672 O   0  0  0  0  0  0  0  0  0  0  0  0
  -15.4734   14.6077  -24.2015 C   0  0  0  0  0  0  0  0  0  0  0  0
  -15.3918   15.5612  -23.2085 C   0  0  0  0  0  0  0  0  0  0  0  0
  -16.2170   15.5265  -22.0842 C   0  0  0  0  0  0  0  0  0  0  0  0
  -16.1126   16.4765  -21.1273 N   0  0  0  0  0  0  0  0  0  0  0  0
  -16.9045   16.4490  -20.0410 C   0  0  0  0  0  0  0  0  0  0  0  0
  -17.8448   15.4391  -19.8869 C   0  0  0  0  0  0  0  0  0  0  0  0
  -17.9934   14.4567  -20.8202 C   0  0  0  0  0  0  0  0  0  0  0  0
  -17.1451   14.5254  -21.9377 C   0  0  0  0  0  0  0  0  0  0  0  0
  -17.2202   13.5726  -22.9392 C   0  0  0  0  0  0  0  0  0  0  0  0
  -16.4068   13.6058  -24.0485 C   0  0  0  0  0  0  0  0  0  0  0  0
  -14.9832   15.5093  -26.3821 C   0  0  0  0  0  0  0  0  0  0  0  0
  -14.6388   14.6596  -25.3191 O   0  0  0  0  0  0  0  0  0  0  0  0
  -16.4996   12.6413  -25.0386 O   0  0  0  0  0  0  0  0  0  0  0  0
  -17.6319   12.5519  -25.8915 C   0  0  0  0  0  0  0  0  0  0  0  0
 33 34  1  0  0  0
 34 23  1  0  0  0
 23 24  2  0  0  0
 24 25  1  0  0  0
 25 26  2  0  0  0
 26 27  1  0  0  0
 27 28  2  0  0  0
 28 29  1  0  0  0
 29 22  1  0  0  0
 22  1  1  0  0  0
  1  2  2  0  0  0
  2  3  1  0  0  0
  3  4  2  0  0  0
  4  8  1  0  0  0
  8  9  1  0  0  0
  9 10  2  0  0  0
  9 11  1  0  0  0
 11 14  1  0  0  0
 14 15  2  0  0  0
 15 16  1  0  0  0
 15 17  1  0  0  0
 17 18  2  0  0  0
 18 19  1  0  0  0
 19 20  2  0  0  0
 20 21  1  0  0  0
  4  5  1  0  0  0
  5  6  2  0  0  0
  6  7  1  0  0  0
 29 30  2  0  0  0
 30 31  1  0  0  0
 31 32  2  0  0  0
 32 35  1  0  0  0
 35 36  1  0  0  0
 32 23  1  0  0  0
 30 25  1  0  0  0
  6  1  1  0  0  0
 20 14  1  0  0  0
  8 12  1  0  0  0
 11 13  1  0  0  0
M  END
> <minimizedAffinity>
-8.78140

> <CNNscore>
0.0967768505

> <CNNaffinity>
6.8462400436

> <CNN_VS>
0.6625575423

> <CNNaffinity_variance>
0.0405133665

$$$$
[H]c1nc2c([H])c(OC([H])([H])[H])c(OC([H])([H])[H])c([H])c2c(Oc2c([H])c([H])c(N([H])C(=O)N([H])c3c(Cl)c([H])c([H])c([H])c3Cl)c([H])c2Cl)c1[H]


 36 39  0  0  0  0  0  0  0  0999 V2000
  -17.5893   12.5984  -19.6208 C   0  0  0  0  0  0  0  0  0  0  0  0
  -18.6645   13.1601  -18.9448 C   0  0  0  0  0  0  0  0  0  0  0  0
  -19.4442   12.4703  -18.0743 C   0  0  0  0  0  0  0  0  0  0  0  0
  -19.1982   11.1119  -17.8028 C   0  0  0  0  0  0  0  0  0  0  0  0
  -18.1459   10.5489  -18.4595 C   0  0  0  0  0  0  0  0  0  0  0  0
  -17.3448   11.2789  -19.3598 C   0  0  0  0  0  0  0  0  0  0  0  0
  -15.9706   10.4801  -20.1156 Cl  0  0  0  0  0  0  0  0  0  0  0  0
  -20.0477   10.4334  -16.9154 N   0  0  0  0  0  0  0  0  0  0  0  0
  -19.6253    9.4185  -16.0468 C   0  0  0  0  0  0  0  0  0  0  0  0
  -18.4423    9.0135  -15.9635 O   0  0  0  0  0  0  0  0  0  0  0  0
  -20.5880    8.7772  -15.1788 N   0  0  0  0  0  0  0  0  0  0  0  0
  -21.0800   10.7288  -16.9259 H   0  0  0  0  0  0  0  0  0  0  0  0
  -21.5660    9.1147  -15.2503 H   0  0  0  0  0  0  0  0  0  0  0  0
  -20.2160    7.7426  -14.2782 C   0  0  0  0  0  0  0  0  0  0  0  0
  -19.5878    8.0755  -13.0961 C   0  0  0  0  0  0  0  0  0  0  0  0
  -19.2192    9.7089  -12.6376 Cl  0  0  0  0  0  0  0  0  0  0  0  0
  -19.2335    7.0443  -12.2307 C   0  0  0  0  0  0  0  0  0  0  0  0
  -19.5129    5.7337  -12.5666 C   0  0  0  0  0  0  0  0  0  0  0  0
  -20.1436    5.4200  -13.7567 C   0  0  0  0  0  0  0  0  0  0  0  0
  -20.5053    6.4398  -14.6348 C   0  0  0  0  0  0  0  0  0  0  0  0
  -21.3057    6.0350  -16.1437 Cl  0  0  0  0  0  0  0  0  0  0  0  0
  -16.8086   13.3059  -20.4940 O   0  0  0  0  0  0  0  0  0  0  0  0
  -18.8684   17.1506  -22.9238 C   0  0  0  0  0  0  0  0  0  0  0  0
  -18.6818   16.1468  -23.8508 C   0  0  0  0  0  0  0  0  0  0  0  0
  -18.1205   14.9178  -23.5031 C   0  0  0  0  0  0  0  0  0  0  0  0
  -17.9505   13.9531  -24.4355 N   0  0  0  0  0  0  0  0  0  0  0  0
  -17.4105   12.7663  -24.1072 C   0  0  0  0  0  0  0  0  0  0  0  0
  -17.0184   12.5146  -22.7993 C   0  0  0  0  0  0  0  0  0  0  0  0
  -17.1660   13.4508  -21.8196 C   0  0  0  0  0  0  0  0  0  0  0  0
  -17.7345   14.6751  -22.2081 C   0  0  0  0  0  0  0  0  0  0  0  0
  -17.9254   15.6882  -21.2841 C   0  0  0  0  0  0  0  0  0  0  0  0
  -18.4789   16.9007  -21.6260 C   0  0  0  0  0  0  0  0  0  0  0  0
  -20.8258   18.4626  -23.4289 C   0  0  0  0  0  0  0  0  0  0  0  0
  -19.4317   18.3737  -23.2913 O   0  0  0  0  0  0  0  0  0  0  0  0
  -18.6606   17.9004  -20.6843 O   0  0  0  0  0  0  0  0  0  0  0  0
  -19.7292   17.8616  -19.7494 C   0  0  0  0  0  0  0  0  0  0  0  0
 33 34  1  0  0  0
 34 23  1  0  0  0
 23 24  2  0  0  0
 24 25  1  0  0  0
 25 26  2  0  0  0
 26 27  1  0  0  0
 27 28  2  0  0  0
 28 29  1  0  0  0
 29 22  1  0  0  0
 22  1  1  0  0  0
  1  2  2  0  0  0
  2  3  1  0  0  0
  3  4  2  0  0  0
  4  8  1  0  0  0
  8  9  1  0  0  0
  9 10  2  0  0  0
  9 11  1  0  0  0
 11 14  1  0  0  0
 14 15  2  0  0  0
 15 16  1  0  0  0
 15 17  1  0  0  0
 17 18  2  0  0  0
 18 19  1  0  0  0
 19 20  2  0  0  0
 20 21  1  0  0  0
  4  5  1  0  0  0
  5  6  2  0  0  0
  6  7  1  0  0  0
 29 30  2  0  0  0
 30 31  1  0  0  0
 31 32  2  0  0  0
 32 35  1  0  0  0
 35 36  1  0  0  0
 32 23  1  0  0  0
 30 25  1  0  0  0
  6  1  1  0  0  0
 20 14  1  0  0  0
  8 12  1  0  0  0
 11 13  1  0  0  0
M  END
> <minimizedAffinity>
-8.10319

> <CNNscore>
0.0920432732

> <CNNaffinity>
6.3346967697

> <CNN_VS>
0.5830662251

> <CNNaffinity_variance>
0.3644303977

$$$$
[H]c1nc2c([H])c(OC([H])([H])[H])c(OC([H])([H])[H])c([H])c2c(Oc2c([H])c([H])c(N([H])C(=O)N([H])c3c(Cl)c([H])c([H])c([H])c3Cl)c([H])c2Cl)c1[H]


 36 39  0  0  0  0  0  0  0  0999 V2000
  -18.9749   12.5573  -17.8254 C   0  0  0  0  0  0  0  0  0  0  0  0
  -19.1340   11.2044  -17.5555 C   0  0  0  0  0  0  0  0  0  0  0  0
  -20.1714   10.7009  -16.8403 C   0  0  0  0  0  0  0  0  0  0  0  0
  -21.1687   11.5457  -16.3197 C   0  0  0  0  0  0  0  0  0  0  0  0
  -21.0244   12.8755  -16.5775 C   0  0  0  0  0  0  0  0  0  0  0  0
  -19.9417   13.3829  -17.3230 C   0  0  0  0  0  0  0  0  0  0  0  0
  -19.8728   15.1101  -17.6545 Cl  0  0  0  0  0  0  0  0  0  0  0  0
  -22.2081   10.9819  -15.5639 N   0  0  0  0  0  0  0  0  0  0  0  0
  -22.1692   10.8235  -14.1724 C   0  0  0  0  0  0  0  0  0  0  0  0
  -21.2056   11.1756  -13.4528 O   0  0  0  0  0  0  0  0  0  0  0  0
  -23.2939   10.2200  -13.4924 N   0  0  0  0  0  0  0  0  0  0  0  0
  -23.0730   10.6584  -16.1120 H   0  0  0  0  0  0  0  0  0  0  0  0
  -24.0895    9.9298  -14.0909 H   0  0  0  0  0  0  0  0  0  0  0  0
  -23.3090   10.0344  -12.0834 C   0  0  0  0  0  0  0  0  0  0  0  0
  -23.7819   11.0495  -11.2779 C   0  0  0  0  0  0  0  0  0  0  0  0
  -24.3681   12.5630  -11.8938 Cl  0  0  0  0  0  0  0  0  0  0  0  0
  -23.7866   10.8436   -9.9012 C   0  0  0  0  0  0  0  0  0  0  0  0
  -23.3264    9.6499   -9.3794 C   0  0  0  0  0  0  0  0  0  0  0  0
  -22.8562    8.6440  -10.2037 C   0  0  0  0  0  0  0  0  0  0  0  0
  -22.8443    8.8332  -11.5843 C   0  0  0  0  0  0  0  0  0  0  0  0
  -22.2462    7.5524  -12.6251 Cl  0  0  0  0  0  0  0  0  0  0  0  0
  -17.9253   13.0522  -18.5508 O   0  0  0  0  0  0  0  0  0  0  0  0
  -17.6213   13.9799  -23.4472 C   0  0  0  0  0  0  0  0  0  0  0  0
  -16.9915   12.7725  -23.2302 C   0  0  0  0  0  0  0  0  0  0  0  0
  -16.8943   12.2105  -21.9570 C   0  0  0  0  0  0  0  0  0  0  0  0
  -16.2701   11.0244  -21.7767 N   0  0  0  0  0  0  0  0  0  0  0  0
  -16.1731   10.4770  -20.5524 C   0  0  0  0  0  0  0  0  0  0  0  0
  -16.7157   11.1261  -19.4515 C   0  0  0  0  0  0  0  0  0  0  0  0
  -17.3550   12.3236  -19.5753 C   0  0  0  0  0  0  0  0  0  0  0  0
  -17.4327   12.8574  -20.8722 C   0  0  0  0  0  0  0  0  0  0  0  0
  -18.0630   14.0689  -21.0992 C   0  0  0  0  0  0  0  0  0  0  0  0
  -18.1594   14.6241  -22.3545 C   0  0  0  0  0  0  0  0  0  0  0  0
  -16.5427   15.0219  -25.3337 C   0  0  0  0  0  0  0  0  0  0  0  0
  -17.7083   14.5260  -24.7289 O   0  0  0  0  0  0  0  0  0  0  0  0
  -18.7951   15.8380  -22.5581 O   0  0  0  0  0  0  0  0  0  0  0  0
  -18.1583   17.0737  -22.2664 C   0  0  0  0  0  0  0  0  0  0  0  0
 33 34  1  0  0  0
 34 23  1  0  0  0
 23 24  2  0  0  0
 24 25  1  0  0  0
 25 26  2  0  0  0
 26 27  1  0  0  0
 27 28  2  0  0  0
 28 29  1  0  0  0
 29 22  1  0  0  0
 22  1  1  0  0  0
  1  2  2  0  0  0
  2  3  1  0  0  0
  3  4  2  0  0  0
  4  8  1  0  0  0
  8  9  1  0  0  0
  9 10  2  0  0  0
  9 11  1  0  0  0
 11 14  1  0  0  0
 14 15  2  0  0  0
 15 16  1  0  0  0
 15 17  1  0  0  0
 17 18  2  0  0  0
 18 19  1  0  0  0
 19 20  2  0  0  0
 20 21  1  0  0  0
  4  5  1  0  0  0
  5  6  2  0  0  0
  6  7  1  0  0  0
 29 30  2  0  0  0
 30 31  1  0  0  0
 31 32  2  0  0  0
 32 35  1  0  0  0
 35 36  1  0  0  0
 32 23  1  0  0  0
 30 25  1  0  0  0
  6  1  1  0  0  0
 20 14  1  0  0  0
  8 12  1  0  0  0
 11 13  1  0  0  0
M  END
> <minimizedAffinity>
-7.16973

> <CNNscore>
0.0858628601

> <CNNaffinity>
6.5508866310

> <CNN_VS>
0.5624778867

> <CNNaffinity_variance>
0.2237878293

$$$$
[H]c1nc2c([H])c(OC([H])([H])[H])c(OC([H])([H])[H])c([H])c2c(Oc2c([H])c([H])c(N([H])C(=O)N([H])c3c(Cl)c([H])c([H])c([H])c3Cl)c([H])c2Cl)c1[H]


 36 39  0  0  0  0  0  0  0  0999 V2000
  -19.1849   15.5577  -18.5988 C   0  0  0  0  0  0  0  0  0  0  0  0
  -18.5586   15.7744  -17.3784 C   0  0  0  0  0  0  0  0  0  0  0  0
  -19.2310   15.9514  -16.2131 C   0  0  0  0  0  0  0  0  0  0  0  0
  -20.6373   15.9240  -16.1781 C   0  0  0  0  0  0  0  0  0  0  0  0
  -21.2639   15.7120  -17.3689 C   0  0  0  0  0  0  0  0  0  0  0  0
  -20.5514   15.5289  -18.5705 C   0  0  0  0  0  0  0  0  0  0  0  0
  -21.4480   15.2021  -20.0495 Cl  0  0  0  0  0  0  0  0  0  0  0  0
  -21.2891   16.1383  -14.9539 N   0  0  0  0  0  0  0  0  0  0  0  0
  -21.4870   17.4017  -14.3815 C   0  0  0  0  0  0  0  0  0  0  0  0
  -21.1103   18.4761  -14.9050 O   0  0  0  0  0  0  0  0  0  0  0  0
  -22.1644   17.5087  -13.1082 N   0  0  0  0  0  0  0  0  0  0  0  0
  -21.6454   15.2623  -14.4453 H   0  0  0  0  0  0  0  0  0  0  0  0
  -22.4748   16.6177  -12.6777 H   0  0  0  0  0  0  0  0  0  0  0  0
  -22.3924   18.7636  -12.4811 C   0  0  0  0  0  0  0  0  0  0  0  0
  -21.5383   19.1789  -11.4807 C   0  0  0  0  0  0  0  0  0  0  0  0
  -20.1811   18.2442  -10.9345 Cl  0  0  0  0  0  0  0  0  0  0  0  0
  -21.7826   20.4116  -10.8821 C   0  0  0  0  0  0  0  0  0  0  0  0
  -22.8547   21.1795  -11.2941 C   0  0  0  0  0  0  0  0  0  0  0  0
  -23.6998   20.7457  -12.2991 C   0  0  0  0  0  0  0  0  0  0  0  0
  -23.4701   19.5141  -12.9092 C   0  0  0  0  0  0  0  0  0  0  0  0
  -24.5465   18.9693  -14.1843 Cl  0  0  0  0  0  0  0  0  0  0  0  0
  -18.4950   15.3776  -19.7668 O   0  0  0  0  0  0  0  0  0  0  0  0
  -17.1261   13.6997  -24.2655 C   0  0  0  0  0  0  0  0  0  0  0  0
  -17.0534   12.6277  -23.4010 C   0  0  0  0  0  0  0  0  0  0  0  0
  -17.3733   12.7490  -22.0485 C   0  0  0  0  0  0  0  0  0  0  0  0
  -17.2919   11.6787  -21.2259 N   0  0  0  0  0  0  0  0  0  0  0  0
  -17.5990   11.7884  -19.9215 C   0  0  0  0  0  0  0  0  0  0  0  0
  -18.0060   13.0089  -19.3994 C   0  0  0  0  0  0  0  0  0  0  0  0
  -18.1051   14.1202  -20.1826 C   0  0  0  0  0  0  0  0  0  0  0  0
  -17.7748   13.9587  -21.5382 C   0  0  0  0  0  0  0  0  0  0  0  0
  -17.8450   15.0293  -22.4131 C   0  0  0  0  0  0  0  0  0  0  0  0
  -17.5297   14.9109  -23.7472 C   0  0  0  0  0  0  0  0  0  0  0  0
  -17.4243   12.5428  -26.3586 C   0  0  0  0  0  0  0  0  0  0  0  0
  -16.8018   13.5583  -25.6158 O   0  0  0  0  0  0  0  0  0  0  0  0
  -17.6072   15.9963  -24.6046 O   0  0  0  0  0  0  0  0  0  0  0  0
  -17.3817   17.3238  -24.1525 C   0  0  0  0  0  0  0  0  0  0  0  0
 33 34  1  0  0  0
 34 23  1  0  0  0
 23 24  2  0  0  0
 24 25  1  0  0  0
 25 26  2  0  0  0
 26 27  1  0  0  0
 27 28  2  0  0  0
 28 29  1  0  0  0
 29 22  1  0  0  0
 22  1  1  0  0  0
  1  2  2  0  0  0
  2  3  1  0  0  0
  3  4  2  0  0  0
  4  8  1  0  0  0
  8  9  1  0  0  0
  9 10  2  0  0  0
  9 11  1  0  0  0
 11 14  1  0  0  0
 14 15  2  0  0  0
 15 16  1  0  0  0
 15 17  1  0  0  0
 17 18  2  0  0  0
 18 19  1  0  0  0
 19 20  2  0  0  0
 20 21  1  0  0  0
  4  5  1  0  0  0
  5  6  2  0  0  0
  6  7  1  0  0  0
 29 30  2  0  0  0
 30 31  1  0  0  0
 31 32  2  0  0  0
 32 35  1  0  0  0
 35 36  1  0  0  0
 32 23  1  0  0  0
 30 25  1  0  0  0
  6  1  1  0  0  0
 20 14  1  0  0  0
  8 12  1  0  0  0
 11 13  1  0  0  0
M  END
> <minimizedAffinity>
-7.33879

> <CNNscore>
0.0811811984

> <CNNaffinity>
6.4305510521

> <CNN_VS>
0.5220398307

> <CNNaffinity_variance>
0.0843417868

$$$$
[H]c1nc2c([H])c(OC([H])([H])C([H])([H])C([H])([H])N3C([H])([H])C([H])([H])OC([H])([H])C3([H])[H])c(OC([H])([H])[H])c([H])c2c(Oc2c([H])c([H])c(N([H])C(=O)N([H])c3c([H])c([H])c([H])c([H])c3[H])c([H])c2F)c1[H]


 42 46  0  0  0  0  0  0  0  0999 V2000
  -20.2099   10.6660  -16.0641 C   0  0  0  0  0  0  0  0  0  0  0  0
  -19.6048   11.6255  -16.8325 C   0  0  0  0  0  0  0  0  0  0  0  0
  -18.6582   11.3292  -17.7887 C   0  0  0  0  0  0  0  0  0  0  0  0
  -18.0437   12.3133  -18.5719 C   0  0  0  0  0  0  0  0  0  0  0  0
  -17.0992   11.9680  -19.5192 C   0  0  0  0  0  0  0  0  0  0  0  0
  -16.7576   10.6200  -19.6946 C   0  0  0  0  0  0  0  0  0  0  0  0
  -17.3604    9.6964  -18.9325 N   0  0  0  0  0  0  0  0  0  0  0  0
  -18.2851   10.0257  -18.0028 C   0  0  0  0  0  0  0  0  0  0  0  0
  -18.8932    9.0398  -17.2266 C   0  0  0  0  0  0  0  0  0  0  0  0
  -19.8394    9.3169  -16.2697 C   0  0  0  0  0  0  0  0  0  0  0  0
  -21.6992   12.2531  -14.9398 C   0  0  0  0  0  0  0  0  0  0  0  0
  -21.1685   10.9584  -15.0950 O   0  0  0  0  0  0  0  0  0  0  0  0
  -18.4639   13.6041  -18.3105 O   0  0  0  0  0  0  0  0  0  0  0  0
  -18.7071   14.5204  -19.3142 C   0  0  0  0  0  0  0  0  0  0  0  0
  -17.9672   15.6763  -19.4179 C   0  0  0  0  0  0  0  0  0  0  0  0
  -18.1900   16.6309  -20.4261 C   0  0  0  0  0  0  0  0  0  0  0  0
  -19.1699   16.4376  -21.3543 C   0  0  0  0  0  0  0  0  0  0  0  0
  -19.9348   15.2573  -21.2585 C   0  0  0  0  0  0  0  0  0  0  0  0
  -19.6938   14.3510  -20.2686 C   0  0  0  0  0  0  0  0  0  0  0  0
  -20.4665   13.2086  -20.1617 F   0  0  0  0  0  0  0  0  0  0  0  0
  -19.4624   17.3588  -22.3732 N   0  0  0  0  0  0  0  0  0  0  0  0
  -20.7219   17.9737  -22.5581 C   0  0  0  0  0  0  0  0  0  0  0  0
  -21.6307   17.6736  -21.7753 O   0  0  0  0  0  0  0  0  0  0  0  0
  -20.8533   18.8896  -23.6259 N   0  0  0  0  0  0  0  0  0  0  0  0
  -18.7047   17.6380  -23.0746 H   0  0  0  0  0  0  0  0  0  0  0  0
  -20.0077   19.0625  -24.2251 H   0  0  0  0  0  0  0  0  0  0  0  0
  -22.0340   19.5745  -23.9371 C   0  0  0  0  0  0  0  0  0  0  0  0
  -22.9321   18.9524  -24.8311 C   0  0  0  0  0  0  0  0  0  0  0  0
  -24.1229   19.5280  -25.1881 C   0  0  0  0  0  0  0  0  0  0  0  0
  -24.5180   20.7471  -24.6985 C   0  0  0  0  0  0  0  0  0  0  0  0
  -23.6701   21.3772  -23.8289 C   0  0  0  0  0  0  0  0  0  0  0  0
  -22.4517   20.7876  -23.4636 C   0  0  0  0  0  0  0  0  0  0  0  0
  -20.4670    8.3933  -15.4898 O   0  0  0  0  0  0  0  0  0  0  0  0
  -19.8863    7.4985  -14.6310 C   0  0  0  0  0  0  0  0  0  0  0  0
  -20.1414    7.7459  -13.1666 C   0  0  0  0  0  0  0  0  0  0  0  0
  -19.2038    8.8407  -12.6813 C   0  0  0  0  0  0  0  0  0  0  0  0
  -18.3255    8.4384  -11.6362 N   0  0  0  0  0  0  0  0  0  0  0  0
  -18.3383    7.0355  -11.3535 C   0  0  0  0  0  0  0  0  0  0  0  0
  -17.0626    6.6800  -10.6273 C   0  0  0  0  0  0  0  0  0  0  0  0
  -16.5449    7.7415   -9.8941 O   0  0  0  0  0  0  0  0  0  0  0  0
  -17.5383    8.5364   -9.3437 C   0  0  0  0  0  0  0  0  0  0  0  0
  -18.3849    9.2012  -10.4320 C   0  0  0  0  0  0  0  0  0  0  0  0
 11 12  1  0  0  0
 12  1  1  0  0  0
  1  2  2  0  0  0
  2  3  1  0  0  0
  3  4  2  0  0  0
  4 13  1  0  0  0
 13 14  1  0  0  0
 14 15  2  0  0  0
 15 16  1  0  0  0
 16 17  2  0  0  0
 17 21  1  0  0  0
 21 22  1  0  0  0
 22 23  2  0  0  0
 22 24  1  0  0  0
 24 27  1  0  0  0
 27 28  2  0  0  0
 28 29  1  0  0  0
 29 30  2  0  0  0
 30 31  1  0  0  0
 31 32  2  0  0  0
 17 18  1  0  0  0
 18 19  2  0  0  0
 19 20  1  0  0  0
  4  5  1  0  0  0
  5  6  2  0  0  0
  6  7  1  0  0  0
  7  8  2  0  0  0
  8  9  1  0  0  0
  9 10  2  0  0  0
 10 33  1  0  0  0
 33 34  1  0  0  0
 34 35  1  0  0  0
 35 36  1  0  0  0
 36 37  1  0  0  0
 37 38  1  0  0  0
 38 39  1  0  0  0
 39 40  1  0  0  0
 40 41  1  0  0  0
 41 42  1  0  0  0
 10  1  1  0  0  0
 42 37  1  0  0  0
  8  3  1  0  0  0
 19 14  1  0  0  0
 32 27  1  0  0  0
 21 25  1  0  0  0
 24 26  1  0  0  0
M  END
> <minimizedAffinity>
-7.99158

> <CNNscore>
0.3581827581

> <CNNaffinity>
6.6897926331

> <CNN_VS>
2.3961684704

> <CNNaffinity_variance>
0.0698873550

$$$$
[H]c1nc2c([H])c(OC([H])([H])C([H])([H])C([H])([H])N3C([H])([H])C([H])([H])OC([H])([H])C3([H])[H])c(OC([H])([H])[H])c([H])c2c(Oc2c([H])c([H])c(N([H])C(=O)N([H])c3c([H])c([H])c([H])c([H])c3[H])c([H])c2F)c1[H]


 42 46  0  0  0  0  0  0  0  0999 V2000
  -20.3536   10.7387  -16.4019 C   0  0  0  0  0  0  0  0  0  0  0  0
  -20.1274   11.7138  -17.3375 C   0  0  0  0  0  0  0  0  0  0  0  0
  -19.1133   11.6361  -18.2670 C   0  0  0  0  0  0  0  0  0  0  0  0
  -18.8870   12.6348  -19.2214 C   0  0  0  0  0  0  0  0  0  0  0  0
  -17.8570   12.5129  -20.1340 C   0  0  0  0  0  0  0  0  0  0  0  0
  -17.0352   11.3779  -20.1007 C   0  0  0  0  0  0  0  0  0  0  0  0
  -17.2725   10.4356  -19.1773 N   0  0  0  0  0  0  0  0  0  0  0  0
  -18.2778   10.5471  -18.2802 C   0  0  0  0  0  0  0  0  0  0  0  0
  -18.4972    9.5481  -17.3325 C   0  0  0  0  0  0  0  0  0  0  0  0
  -19.5038    9.6084  -16.3993 C   0  0  0  0  0  0  0  0  0  0  0  0
  -21.4167   11.8195  -14.4777 C   0  0  0  0  0  0  0  0  0  0  0  0
  -21.3776   10.8105  -15.4587 O   0  0  0  0  0  0  0  0  0  0  0  0
  -19.7628   13.7024  -19.1578 O   0  0  0  0  0  0  0  0  0  0  0  0
  -19.7009   14.6514  -18.1569 C   0  0  0  0  0  0  0  0  0  0  0  0
  -20.6755   14.7295  -17.1883 C   0  0  0  0  0  0  0  0  0  0  0  0
  -20.6440   15.6845  -16.1566 C   0  0  0  0  0  0  0  0  0  0  0  0
  -19.6233   16.5854  -16.0819 C   0  0  0  0  0  0  0  0  0  0  0  0
  -18.6188   16.5157  -17.0686 C   0  0  0  0  0  0  0  0  0  0  0  0
  -18.6783   15.5774  -18.0563 C   0  0  0  0  0  0  0  0  0  0  0  0
  -17.7056   15.5321  -19.0388 F   0  0  0  0  0  0  0  0  0  0  0  0
  -19.5405   17.5800  -15.0939 N   0  0  0  0  0  0  0  0  0  0  0  0
  -20.2675   18.7923  -15.1164 C   0  0  0  0  0  0  0  0  0  0  0  0
  -21.0209   18.9952  -16.0755 O   0  0  0  0  0  0  0  0  0  0  0  0
  -20.0819   19.6876  -14.0392 N   0  0  0  0  0  0  0  0  0  0  0  0
  -18.8941   17.4447  -14.2525 H   0  0  0  0  0  0  0  0  0  0  0  0
  -19.4123   19.4038  -13.2809 H   0  0  0  0  0  0  0  0  0  0  0  0
  -20.7271   20.9244  -13.9211 C   0  0  0  0  0  0  0  0  0  0  0  0
  -21.8607   20.9906  -13.0825 C   0  0  0  0  0  0  0  0  0  0  0  0
  -22.5543   22.1552  -12.8832 C   0  0  0  0  0  0  0  0  0  0  0  0
  -22.1901   23.3320  -13.4870 C   0  0  0  0  0  0  0  0  0  0  0  0
  -21.0947   23.3023  -14.3065 C   0  0  0  0  0  0  0  0  0  0  0  0
  -20.3851   22.1104  -14.5099 C   0  0  0  0  0  0  0  0  0  0  0  0
  -19.7645    8.6597  -15.4574 O   0  0  0  0  0  0  0  0  0  0  0  0
  -19.0590    8.4118  -14.3101 C   0  0  0  0  0  0  0  0  0  0  0  0
  -19.7940    8.6888  -13.0242 C   0  0  0  0  0  0  0  0  0  0  0  0
  -19.2259    7.7977  -11.9303 C   0  0  0  0  0  0  0  0  0  0  0  0
  -18.6103    8.5052  -10.8597 N   0  0  0  0  0  0  0  0  0  0  0  0
  -18.6600    9.9304  -10.9805 C   0  0  0  0  0  0  0  0  0  0  0  0
  -18.4485   10.5361   -9.6131 C   0  0  0  0  0  0  0  0  0  0  0  0
  -17.6848    9.7293   -8.7775 O   0  0  0  0  0  0  0  0  0  0  0  0
  -16.6983    9.0409   -9.4663 C   0  0  0  0  0  0  0  0  0  0  0  0
  -17.3043    8.0711  -10.4837 C   0  0  0  0  0  0  0  0  0  0  0  0
 11 12  1  0  0  0
 12  1  1  0  0  0
  1  2  2  0  0  0
  2  3  1  0  0  0
  3  4  2  0  0  0
  4 13  1  0  0  0
 13 14  1  0  0  0
 14 15  2  0  0  0
 15 16  1  0  0  0
 16 17  2  0  0  0
 17 21  1  0  0  0
 21 22  1  0  0  0
 22 23  2  0  0  0
 22 24  1  0  0  0
 24 27  1  0  0  0
 27 28  2  0  0  0
 28 29  1  0  0  0
 29 30  2  0  0  0
 30 31  1  0  0  0
 31 32  2  0  0  0
 17 18  1  0  0  0
 18 19  2  0  0  0
 19 20  1  0  0  0
  4  5  1  0  0  0
  5  6  2  0  0  0
  6  7  1  0  0  0
  7  8  2  0  0  0
  8  9  1  0  0  0
  9 10  2  0  0  0
 10 33  1  0  0  0
 33 34  1  0  0  0
 34 35  1  0  0  0
 35 36  1  0  0  0
 36 37  1  0  0  0
 37 38  1  0  0  0
 38 39  1  0  0  0
 39 40  1  0  0  0
 40 41  1  0  0  0
 41 42  1  0  0  0
 10  1  1  0  0  0
 42 37  1  0  0  0
  8  3  1  0  0  0
 19 14  1  0  0  0
 32 27  1  0  0  0
 21 25  1  0  0  0
 24 26  1  0  0  0
M  END
> <minimizedAffinity>
-7.32533

> <CNNscore>
0.2824463546

> <CNNaffinity>
6.5954451561

> <CNN_VS>
1.8628594875

> <CNNaffinity_variance>
0.0282199569

$$$$
[H]c1nc2c([H])c(OC([H])([H])C([H])([H])C([H])([H])N3C([H])([H])C([H])([H])OC([H])([H])C3([H])[H])c(OC([H])([H])[H])c([H])c2c(Oc2c([H])c([H])c(N([H])C(=O)N([H])c3c([H])c([H])c([H])c([H])c3[H])c([H])c2F)c1[H]


 42 46  0  0  0  0  0  0  0  0999 V2000
  -20.0978   10.7826  -16.0537 C   0  0  0  0  0  0  0  0  0  0  0  0
  -19.6188   11.7490  -16.8985 C   0  0  0  0  0  0  0  0  0  0  0  0
  -18.7087   11.4830  -17.8981 C   0  0  0  0  0  0  0  0  0  0  0  0
  -18.2231   12.4740  -18.7593 C   0  0  0  0  0  0  0  0  0  0  0  0
  -17.3107   12.1593  -19.7477 C   0  0  0  0  0  0  0  0  0  0  0  0
  -16.8712   10.8356  -19.8861 C   0  0  0  0  0  0  0  0  0  0  0  0
  -17.3512    9.9048  -19.0493 N   0  0  0  0  0  0  0  0  0  0  0  0
  -18.2438   10.2042  -18.0790 C   0  0  0  0  0  0  0  0  0  0  0  0
  -18.7232    9.2116  -17.2251 C   0  0  0  0  0  0  0  0  0  0  0  0
  -19.6313    9.4586  -16.2240 C   0  0  0  0  0  0  0  0  0  0  0  0
  -22.4040   10.8844  -15.2341 C   0  0  0  0  0  0  0  0  0  0  0  0
  -21.0188   11.0444  -15.0404 O   0  0  0  0  0  0  0  0  0  0  0  0
  -18.7311   13.7386  -18.5278 O   0  0  0  0  0  0  0  0  0  0  0  0
  -18.6282   14.7580  -19.4534 C   0  0  0  0  0  0  0  0  0  0  0  0
  -17.7244   15.7825  -19.2869 C   0  0  0  0  0  0  0  0  0  0  0  0
  -17.5953   16.8365  -20.2088 C   0  0  0  0  0  0  0  0  0  0  0  0
  -18.3806   16.8785  -21.3225 C   0  0  0  0  0  0  0  0  0  0  0  0
  -19.3106   15.8347  -21.5041 C   0  0  0  0  0  0  0  0  0  0  0  0
  -19.4113   14.8266  -20.5914 C   0  0  0  0  0  0  0  0  0  0  0  0
  -20.3457   13.8204  -20.7595 F   0  0  0  0  0  0  0  0  0  0  0  0
  -18.3217   17.9118  -22.2718 N   0  0  0  0  0  0  0  0  0  0  0  0
  -19.3005   18.9215  -22.4168 C   0  0  0  0  0  0  0  0  0  0  0  0
  -20.2798   18.8879  -21.6629 O   0  0  0  0  0  0  0  0  0  0  0  0
  -19.0899   19.8997  -23.4144 N   0  0  0  0  0  0  0  0  0  0  0  0
  -17.4941   17.9705  -22.9469 H   0  0  0  0  0  0  0  0  0  0  0  0
  -18.2176   19.8222  -23.9950 H   0  0  0  0  0  0  0  0  0  0  0  0
  -19.9675   20.9577  -23.6798 C   0  0  0  0  0  0  0  0  0  0  0  0
  -19.6829   22.2054  -23.0840 C   0  0  0  0  0  0  0  0  0  0  0  0
  -20.4668   23.3095  -23.2924 C   0  0  0  0  0  0  0  0  0  0  0  0
  -21.5792   23.2719  -24.0944 C   0  0  0  0  0  0  0  0  0  0  0  0
  -21.8831   22.0769  -24.6876 C   0  0  0  0  0  0  0  0  0  0  0  0
  -21.0804   20.9474  -24.4743 C   0  0  0  0  0  0  0  0  0  0  0  0
  -20.1349    8.5266  -15.3678 O   0  0  0  0  0  0  0  0  0  0  0  0
  -20.5312    7.2506  -15.6679 C   0  0  0  0  0  0  0  0  0  0  0  0
  -21.3656    6.5664  -14.6161 C   0  0  0  0  0  0  0  0  0  0  0  0
  -20.5085    5.5317  -13.9033 C   0  0  0  0  0  0  0  0  0  0  0  0
  -20.0055    4.5044  -14.7502 N   0  0  0  0  0  0  0  0  0  0  0  0
  -20.9621    3.4993  -15.1010 C   0  0  0  0  0  0  0  0  0  0  0  0
  -20.4815    2.7924  -16.3463 C   0  0  0  0  0  0  0  0  0  0  0  0
  -19.0971    2.8008  -16.4716 O   0  0  0  0  0  0  0  0  0  0  0  0
  -18.4561    2.7051  -15.2462 C   0  0  0  0  0  0  0  0  0  0  0  0
  -18.7663    3.9144  -14.3607 C   0  0  0  0  0  0  0  0  0  0  0  0
 11 12  1  0  0  0
 12  1  1  0  0  0
  1  2  2  0  0  0
  2  3  1  0  0  0
  3  4  2  0  0  0
  4 13  1  0  0  0
 13 14  1  0  0  0
 14 15  2  0  0  0
 15 16  1  0  0  0
 16 17  2  0  0  0
 17 21  1  0  0  0
 21 22  1  0  0  0
 22 23  2  0  0  0
 22 24  1  0  0  0
 24 27  1  0  0  0
 27 28  2  0  0  0
 28 29  1  0  0  0
 29 30  2  0  0  0
 30 31  1  0  0  0
 31 32  2  0  0  0
 17 18  1  0  0  0
 18 19  2  0  0  0
 19 20  1  0  0  0
  4  5  1  0  0  0
  5  6  2  0  0  0
  6  7  1  0  0  0
  7  8  2  0  0  0
  8  9  1  0  0  0
  9 10  2  0  0  0
 10 33  1  0  0  0
 33 34  1  0  0  0
 34 35  1  0  0  0
 35 36  1  0  0  0
 36 37  1  0  0  0
 37 38  1  0  0  0
 38 39  1  0  0  0
 39 40  1  0  0  0
 40 41  1  0  0  0
 41 42  1  0  0  0
 10  1  1  0  0  0
 42 37  1  0  0  0
  8  3  1  0  0  0
 19 14  1  0  0  0
 32 27  1  0  0  0
 21 25  1  0  0  0
 24 26  1  0  0  0
M  END
> <minimizedAffinity>
-7.42732

> <CNNscore>
0.2421528399

> <CNNaffinity>
6.6133537292

> <CNN_VS>
1.6014423370

> <CNNaffinity_variance>
0.0704608634

$$$$
[H]c1nc2c([H])c(OC([H])([H])C([H])([H])C([H])([H])N3C([H])([H])C([H])([H])OC([H])([H])C3([H])[H])c(OC([H])([H])[H])c([H])c2c(Oc2c([H])c([H])c(N([H])C(=O)N([H])c3c([H])c([H])c([H])c([H])c3[H])c([H])c2F)c1[H]


 42 46  0  0  0  0  0  0  0  0999 V2000
  -20.2375   10.7521  -16.3114 C   0  0  0  0  0  0  0  0  0  0  0  0
  -19.6834   11.7374  -17.0855 C   0  0  0  0  0  0  0  0  0  0  0  0
  -18.6867   11.4932  -18.0048 C   0  0  0  0  0  0  0  0  0  0  0  0
  -18.1246   12.5035  -18.7940 C   0  0  0  0  0  0  0  0  0  0  0  0
  -17.1266   12.2104  -19.7032 C   0  0  0  0  0  0  0  0  0  0  0  0
  -16.6772   10.8892  -19.8337 C   0  0  0  0  0  0  0  0  0  0  0  0
  -17.2316    9.9397  -19.0667 N   0  0  0  0  0  0  0  0  0  0  0  0
  -18.2082   10.2179  -18.1741 C   0  0  0  0  0  0  0  0  0  0  0  0
  -18.7635    9.2062  -17.3917 C   0  0  0  0  0  0  0  0  0  0  0  0
  -19.7584    9.4313  -16.4712 C   0  0  0  0  0  0  0  0  0  0  0  0
  -21.0333   11.7928  -14.2415 C   0  0  0  0  0  0  0  0  0  0  0  0
  -21.2463   10.9918  -15.3795 O   0  0  0  0  0  0  0  0  0  0  0  0
  -18.6506   13.7636  -18.5785 O   0  0  0  0  0  0  0  0  0  0  0  0
  -18.5744   14.7683  -19.5224 C   0  0  0  0  0  0  0  0  0  0  0  0
  -17.6453   15.7780  -19.4144 C   0  0  0  0  0  0  0  0  0  0  0  0
  -17.5420   16.8169  -20.3563 C   0  0  0  0  0  0  0  0  0  0  0  0
  -18.3795   16.8587  -21.4314 C   0  0  0  0  0  0  0  0  0  0  0  0
  -19.3359   15.8301  -21.5530 C   0  0  0  0  0  0  0  0  0  0  0  0
  -19.4104   14.8363  -20.6222 C   0  0  0  0  0  0  0  0  0  0  0  0
  -20.3697   13.8457  -20.7307 F   0  0  0  0  0  0  0  0  0  0  0  0
  -18.3480   17.8780  -22.3970 N   0  0  0  0  0  0  0  0  0  0  0  0
  -19.2538   18.9624  -22.4451 C   0  0  0  0  0  0  0  0  0  0  0  0
  -20.1396   19.0126  -21.5841 O   0  0  0  0  0  0  0  0  0  0  0  0
  -19.0821   19.9142  -23.4753 N   0  0  0  0  0  0  0  0  0  0  0  0
  -17.6014   17.8655  -23.1628 H   0  0  0  0  0  0  0  0  0  0  0  0
  -18.2911   19.7629  -24.1501 H   0  0  0  0  0  0  0  0  0  0  0  0
  -19.8975   21.0378  -23.6552 C   0  0  0  0  0  0  0  0  0  0  0  0
  -19.6644   22.1525  -22.8209 C   0  0  0  0  0  0  0  0  0  0  0  0
  -20.3930   23.3079  -22.9259 C   0  0  0  0  0  0  0  0  0  0  0  0
  -21.3966   23.4544  -23.8498 C   0  0  0  0  0  0  0  0  0  0  0  0
  -21.6481   22.3921  -24.6747 C   0  0  0  0  0  0  0  0  0  0  0  0
  -20.9019   21.2100  -24.5671 C   0  0  0  0  0  0  0  0  0  0  0  0
  -20.3380    8.4802  -15.6872 O   0  0  0  0  0  0  0  0  0  0  0  0
  -19.7823    7.8361  -14.6140 C   0  0  0  0  0  0  0  0  0  0  0  0
  -20.7585    7.3394  -13.5791 C   0  0  0  0  0  0  0  0  0  0  0  0
  -22.1413    7.8822  -13.9057 C   0  0  0  0  0  0  0  0  0  0  0  0
  -22.7906    8.5249  -12.8144 N   0  0  0  0  0  0  0  0  0  0  0  0
  -21.9050    9.0708  -11.8315 C   0  0  0  0  0  0  0  0  0  0  0  0
  -22.6527   10.1169  -11.0392 C   0  0  0  0  0  0  0  0  0  0  0  0
  -24.0209    9.8771  -10.9844 O   0  0  0  0  0  0  0  0  0  0  0  0
  -24.3173    8.5240  -10.9292 C   0  0  0  0  0  0  0  0  0  0  0  0
  -23.8536    7.8013  -12.1964 C   0  0  0  0  0  0  0  0  0  0  0  0
 11 12  1  0  0  0
 12  1  1  0  0  0
  1  2  2  0  0  0
  2  3  1  0  0  0
  3  4  2  0  0  0
  4 13  1  0  0  0
 13 14  1  0  0  0
 14 15  2  0  0  0
 15 16  1  0  0  0
 16 17  2  0  0  0
 17 21  1  0  0  0
 21 22  1  0  0  0
 22 23  2  0  0  0
 22 24  1  0  0  0
 24 27  1  0  0  0
 27 28  2  0  0  0
 28 29  1  0  0  0
 29 30  2  0  0  0
 30 31  1  0  0  0
 31 32  2  0  0  0
 17 18  1  0  0  0
 18 19  2  0  0  0
 19 20  1  0  0  0
  4  5  1  0  0  0
  5  6  2  0  0  0
  6  7  1  0  0  0
  7  8  2  0  0  0
  8  9  1  0  0  0
  9 10  2  0  0  0
 10 33  1  0  0  0
 33 34  1  0  0  0
 34 35  1  0  0  0
 35 36  1  0  0  0
 36 37  1  0  0  0
 37 38  1  0  0  0
 38 39  1  0  0  0
 39 40  1  0  0  0
 40 41  1  0  0  0
 41 42  1  0  0  0
 10  1  1  0  0  0
 42 37  1  0  0  0
  8  3  1  0  0  0
 19 14  1  0  0  0
 32 27  1  0  0  0
 21 25  1  0  0  0
 24 26  1  0  0  0
M  END
> <minimizedAffinity>
-6.73280

> <CNNscore>
0.2399615347

> <CNNaffinity>
6.5099129677

> <CNN_VS>
1.5621286631

> <CNNaffinity_variance>
0.0747694373

$$$$
[H]c1nc2c([H])c(OC([H])([H])C([H])([H])C([H])([H])N3C([H])([H])C([H])([H])OC([H])([H])C3([H])[H])c(OC([H])([H])[H])c([H])c2c(Oc2c([H])c([H])c(N([H])C(=O)N([H])c3c([H])c([H])c([H])c([H])c3[H])c([H])c2F)c1[H]


 42 46  0  0  0  0  0  0  0  0999 V2000
  -20.0807   11.6539  -16.0793 C   0  0  0  0  0  0  0  0  0  0  0  0
  -19.6923   12.6978  -16.8772 C   0  0  0  0  0  0  0  0  0  0  0  0
  -18.9171   12.5286  -18.0035 C   0  0  0  0  0  0  0  0  0  0  0  0
  -18.5236   13.5986  -18.8159 C   0  0  0  0  0  0  0  0  0  0  0  0
  -17.7456   13.3799  -19.9364 C   0  0  0  0  0  0  0  0  0  0  0  0
  -17.3502   12.0745  -20.2588 C   0  0  0  0  0  0  0  0  0  0  0  0
  -17.7400   11.0669  -19.4652 N   0  0  0  0  0  0  0  0  0  0  0  0
  -18.5008   11.2720  -18.3666 C   0  0  0  0  0  0  0  0  0  0  0  0
  -18.8890   10.2012  -17.5623 C   0  0  0  0  0  0  0  0  0  0  0  0
  -19.6624   10.3512  -16.4366 C   0  0  0  0  0  0  0  0  0  0  0  0
  -21.8636   12.8067  -14.8573 C   0  0  0  0  0  0  0  0  0  0  0  0
  -20.8651   11.8175  -14.9385 O   0  0  0  0  0  0  0  0  0  0  0  0
  -18.9766   14.8363  -18.3990 O   0  0  0  0  0  0  0  0  0  0  0  0
  -19.7369   15.6568  -19.2082 C   0  0  0  0  0  0  0  0  0  0  0  0
  -19.2747   16.8904  -19.6067 C   0  0  0  0  0  0  0  0  0  0  0  0
  -20.0237   17.7513  -20.4284 C   0  0  0  0  0  0  0  0  0  0  0  0
  -21.2615   17.3830  -20.8659 C   0  0  0  0  0  0  0  0  0  0  0  0
  -21.7462   16.1216  -20.4642 C   0  0  0  0  0  0  0  0  0  0  0  0
  -20.9949   15.3098  -19.6666 C   0  0  0  0  0  0  0  0  0  0  0  0
  -21.4874   14.0856  -19.2514 F   0  0  0  0  0  0  0  0  0  0  0  0
  -22.0731   18.2012  -21.6684 N   0  0  0  0  0  0  0  0  0  0  0  0
  -21.8857   18.3994  -23.0555 C   0  0  0  0  0  0  0  0  0  0  0  0
  -20.9376   17.8203  -23.5980 O   0  0  0  0  0  0  0  0  0  0  0  0
  -22.7971   19.2463  -23.7253 N   0  0  0  0  0  0  0  0  0  0  0  0
  -22.8987   18.7249  -21.2344 H   0  0  0  0  0  0  0  0  0  0  0  0
  -23.5636   19.6837  -23.1551 H   0  0  0  0  0  0  0  0  0  0  0  0
  -22.7412   19.5414  -25.0927 C   0  0  0  0  0  0  0  0  0  0  0  0
  -23.3600   18.6353  -25.9808 C   0  0  0  0  0  0  0  0  0  0  0  0
  -23.3786   18.8385  -27.3355 C   0  0  0  0  0  0  0  0  0  0  0  0
  -22.7960   19.9371  -27.9150 C   0  0  0  0  0  0  0  0  0  0  0  0
  -22.1874   20.8357  -27.0817 C   0  0  0  0  0  0  0  0  0  0  0  0
  -22.1689   20.6274  -25.6954 C   0  0  0  0  0  0  0  0  0  0  0  0
  -20.0732    9.3406  -15.6210 O   0  0  0  0  0  0  0  0  0  0  0  0
  -19.3262    8.6664  -14.6923 C   0  0  0  0  0  0  0  0  0  0  0  0
  -19.4481    9.1654  -13.2757 C   0  0  0  0  0  0  0  0  0  0  0  0
  -18.6676    8.2374  -12.3576 C   0  0  0  0  0  0  0  0  0  0  0  0
  -18.1910    8.8561  -11.1677 N   0  0  0  0  0  0  0  0  0  0  0  0
  -17.4626    7.9871  -10.2945 C   0  0  0  0  0  0  0  0  0  0  0  0
  -16.6143    8.8320   -9.3738 C   0  0  0  0  0  0  0  0  0  0  0  0
  -17.1566   10.0912   -9.1441 O   0  0  0  0  0  0  0  0  0  0  0  0
  -18.5418   10.0681   -9.0959 C   0  0  0  0  0  0  0  0  0  0  0  0
  -19.1375    9.6351  -10.4377 C   0  0  0  0  0  0  0  0  0  0  0  0
 11 12  1  0  0  0
 12  1  1  0  0  0
  1  2  2  0  0  0
  2  3  1  0  0  0
  3  4  2  0  0  0
  4 13  1  0  0  0
 13 14  1  0  0  0
 14 15  2  0  0  0
 15 16  1  0  0  0
 16 17  2  0  0  0
 17 21  1  0  0  0
 21 22  1  0  0  0
 22 23  2  0  0  0
 22 24  1  0  0  0
 24 27  1  0  0  0
 27 28  2  0  0  0
 28 29  1  0  0  0
 29 30  2  0  0  0
 30 31  1  0  0  0
 31 32  2  0  0  0
 17 18  1  0  0  0
 18 19  2  0  0  0
 19 20  1  0  0  0
  4  5  1  0  0  0
  5  6  2  0  0  0
  6  7  1  0  0  0
  7  8  2  0  0  0
  8  9  1  0  0  0
  9 10  2  0  0  0
 10 33  1  0  0  0
 33 34  1  0  0  0
 34 35  1  0  0  0
 35 36  1  0  0  0
 36 37  1  0  0  0
 37 38  1  0  0  0
 38 39  1  0  0  0
 39 40  1  0  0  0
 40 41  1  0  0  0
 41 42  1  0  0  0
 10  1  1  0  0  0
 42 37  1  0  0  0
  8  3  1  0  0  0
 19 14  1  0  0  0
 32 27  1  0  0  0
 21 25  1  0  0  0
 24 26  1  0  0  0
M  END
> <minimizedAffinity>
-8.32037

> <CNNscore>
0.1972833574

> <CNNaffinity>
6.3660197258

> <CNN_VS>
1.2559098005

> <CNNaffinity_variance>
0.0445333011

$$$$
[H]c1nc2c([H])c(OC([H])([H])C([H])([H])C([H])([H])N3C([H])([H])C([H])([H])OC([H])([H])C3([H])[H])c(OC([H])([H])[H])c([H])c2c(Oc2c([H])c([H])c(N([H])C(=O)N([H])c3c([H])c([H])c([H])c([H])c3[H])c([H])c2F)c1[H]


 42 46  0  0  0  0  0  0  0  0999 V2000
  -18.7310   16.6269  -22.6419 C   0  0  0  0  0  0  0  0  0  0  0  0
  -18.3455   15.3126  -22.6723 C   0  0  0  0  0  0  0  0  0  0  0  0
  -17.0849   14.9128  -23.0589 C   0  0  0  0  0  0  0  0  0  0  0  0
  -16.6956   13.5685  -23.0873 C   0  0  0  0  0  0  0  0  0  0  0  0
  -15.4197   13.2155  -23.4823 C   0  0  0  0  0  0  0  0  0  0  0  0
  -14.5108   14.2150  -23.8558 C   0  0  0  0  0  0  0  0  0  0  0  0
  -14.9076   15.4950  -23.8198 N   0  0  0  0  0  0  0  0  0  0  0  0
  -16.1544   15.8491  -23.4352 C   0  0  0  0  0  0  0  0  0  0  0  0
  -16.5348   17.1904  -23.4092 C   0  0  0  0  0  0  0  0  0  0  0  0
  -17.7867   17.6070  -23.0257 C   0  0  0  0  0  0  0  0  0  0  0  0
  -20.4794   16.8475  -20.9403 C   0  0  0  0  0  0  0  0  0  0  0  0
  -20.0045   17.0387  -22.2518 O   0  0  0  0  0  0  0  0  0  0  0  0
  -17.6755   12.6759  -22.6949 O   0  0  0  0  0  0  0  0  0  0  0  0
  -17.5843   11.9429  -21.5285 C   0  0  0  0  0  0  0  0  0  0  0  0
  -16.8019   10.8129  -21.4569 C   0  0  0  0  0  0  0  0  0  0  0  0
  -16.6883   10.0426  -20.2860 C   0  0  0  0  0  0  0  0  0  0  0  0
  -17.3666   10.3985  -19.1580 C   0  0  0  0  0  0  0  0  0  0  0  0
  -18.1717   11.5541  -19.2189 C   0  0  0  0  0  0  0  0  0  0  0  0
  -18.2606   12.2797  -20.3700 C   0  0  0  0  0  0  0  0  0  0  0  0
  -19.0750   13.3962  -20.4329 F   0  0  0  0  0  0  0  0  0  0  0  0
  -17.3180    9.6637  -17.9622 N   0  0  0  0  0  0  0  0  0  0  0  0
  -18.4408    9.3808  -17.1511 C   0  0  0  0  0  0  0  0  0  0  0  0
  -19.5391    9.8173  -17.5140 O   0  0  0  0  0  0  0  0  0  0  0  0
  -18.2282    8.6173  -15.9812 N   0  0  0  0  0  0  0  0  0  0  0  0
  -16.3851    9.2758  -17.6110 H   0  0  0  0  0  0  0  0  0  0  0  0
  -17.2466    8.3029  -15.7775 H   0  0  0  0  0  0  0  0  0  0  0  0
  -19.2368    8.2589  -15.0789 C   0  0  0  0  0  0  0  0  0  0  0  0
  -19.1575    8.7837  -13.7708 C   0  0  0  0  0  0  0  0  0  0  0  0
  -20.1013    8.5103  -12.8161 C   0  0  0  0  0  0  0  0  0  0  0  0
  -21.1846    7.7082  -13.0719 C   0  0  0  0  0  0  0  0  0  0  0  0
  -21.2915    7.1835  -14.3310 C   0  0  0  0  0  0  0  0  0  0  0  0
  -20.3255    7.4637  -15.3077 C   0  0  0  0  0  0  0  0  0  0  0  0
  -18.2070   18.9017  -22.9771 O   0  0  0  0  0  0  0  0  0  0  0  0
  -18.3114   19.7005  -21.8697 C   0  0  0  0  0  0  0  0  0  0  0  0
  -19.1554   20.9372  -22.0395 C   0  0  0  0  0  0  0  0  0  0  0  0
  -20.3474   20.6027  -22.9230 C   0  0  0  0  0  0  0  0  0  0  0  0
  -20.2698   21.1398  -24.2387 N   0  0  0  0  0  0  0  0  0  0  0  0
  -19.6443   22.4243  -24.3224 C   0  0  0  0  0  0  0  0  0  0  0  0
  -19.1813   22.6416  -25.7436 C   0  0  0  0  0  0  0  0  0  0  0  0
  -19.9515   21.9529  -26.6736 O   0  0  0  0  0  0  0  0  0  0  0  0
  -21.2874   21.8901  -26.3090 C   0  0  0  0  0  0  0  0  0  0  0  0
  -21.4720   21.1077  -25.0064 C   0  0  0  0  0  0  0  0  0  0  0  0
 11 12  1  0  0  0
 12  1  1  0  0  0
  1  2  2  0  0  0
  2  3  1  0  0  0
  3  4  2  0  0  0
  4 13  1  0  0  0
 13 14  1  0  0  0
 14 15  2  0  0  0
 15 16  1  0  0  0
 16 17  2  0  0  0
 17 21  1  0  0  0
 21 22  1  0  0  0
 22 23  2  0  0  0
 22 24  1  0  0  0
 24 27  1  0  0  0
 27 28  2  0  0  0
 28 29  1  0  0  0
 29 30  2  0  0  0
 30 31  1  0  0  0
 31 32  2  0  0  0
 17 18  1  0  0  0
 18 19  2  0  0  0
 19 20  1  0  0  0
  4  5  1  0  0  0
  5  6  2  0  0  0
  6  7  1  0  0  0
  7  8  2  0  0  0
  8  9  1  0  0  0
  9 10  2  0  0  0
 10 33  1  0  0  0
 33 34  1  0  0  0
 34 35  1  0  0  0
 35 36  1  0  0  0
 36 37  1  0  0  0
 37 38  1  0  0  0
 38 39  1  0  0  0
 39 40  1  0  0  0
 40 41  1  0  0  0
 41 42  1  0  0  0
 10  1  1  0  0  0
 42 37  1  0  0  0
  8  3  1  0  0  0
 19 14  1  0  0  0
 32 27  1  0  0  0
 21 25  1  0  0  0
 24 26  1  0  0  0
M  END
> <minimizedAffinity>
-8.73385

> <CNNscore>
0.1862765402

> <CNNaffinity>
6.5679359436

> <CNN_VS>
1.2234523296

> <CNNaffinity_variance>
0.2611088753

$$$$
[H]c1nc2c([H])c(OC([H])([H])C([H])([H])C([H])([H])N3C([H])([H])C([H])([H])OC([H])([H])C3([H])[H])c(OC([H])([H])[H])c([H])c2c(Oc2c([H])c([H])c(N([H])C(=O)N([H])c3c([H])c([H])c([H])c([H])c3[H])c([H])c2F)c1[H]


 42 46  0  0  0  0  0  0  0  0999 V2000
  -18.0180   13.3569  -21.8462 C   0  0  0  0  0  0  0  0  0  0  0  0
  -17.7101   14.4576  -22.6016 C   0  0  0  0  0  0  0  0  0  0  0  0
  -16.5974   14.5199  -23.4118 C   0  0  0  0  0  0  0  0  0  0  0  0
  -16.2877   15.6466  -24.1825 C   0  0  0  0  0  0  0  0  0  0  0  0
  -15.1601   15.6628  -24.9805 C   0  0  0  0  0  0  0  0  0  0  0  0
  -14.3230   14.5393  -25.0163 C   0  0  0  0  0  0  0  0  0  0  0  0
  -14.6412   13.4726  -24.2693 N   0  0  0  0  0  0  0  0  0  0  0  0
  -15.7423   13.4486  -23.4852 C   0  0  0  0  0  0  0  0  0  0  0  0
  -16.0444   12.3225  -22.7204 C   0  0  0  0  0  0  0  0  0  0  0  0
  -17.1497   12.2425  -21.9082 C   0  0  0  0  0  0  0  0  0  0  0  0
  -19.6061   14.4019  -20.3012 C   0  0  0  0  0  0  0  0  0  0  0  0
  -19.1420   13.2868  -21.0245 O   0  0  0  0  0  0  0  0  0  0  0  0
  -17.1879   16.6894  -24.0672 O   0  0  0  0  0  0  0  0  0  0  0  0
  -17.4319   17.3267  -22.8669 C   0  0  0  0  0  0  0  0  0  0  0  0
  -16.4449   17.4581  -21.9168 C   0  0  0  0  0  0  0  0  0  0  0  0
  -16.6602   18.0992  -20.6839 C   0  0  0  0  0  0  0  0  0  0  0  0
  -17.8828   18.6225  -20.3831 C   0  0  0  0  0  0  0  0  0  0  0  0
  -18.9022   18.4941  -21.3484 C   0  0  0  0  0  0  0  0  0  0  0  0
  -18.6613   17.8665  -22.5348 C   0  0  0  0  0  0  0  0  0  0  0  0
  -19.6731   17.7174  -23.4663 F   0  0  0  0  0  0  0  0  0  0  0  0
  -18.1745   19.2546  -19.1634 N   0  0  0  0  0  0  0  0  0  0  0  0
  -19.0174   18.7154  -18.1647 C   0  0  0  0  0  0  0  0  0  0  0  0
  -19.5407   17.6168  -18.3831 O   0  0  0  0  0  0  0  0  0  0  0  0
  -19.2021   19.4712  -16.9852 N   0  0  0  0  0  0  0  0  0  0  0  0
  -17.7471   20.2095  -18.9409 H   0  0  0  0  0  0  0  0  0  0  0  0
  -18.7038   20.3936  -16.9157 H   0  0  0  0  0  0  0  0  0  0  0  0
  -20.0063   19.0729  -15.9107 C   0  0  0  0  0  0  0  0  0  0  0  0
  -19.3556   18.6414  -14.7346 C   0  0  0  0  0  0  0  0  0  0  0  0
  -20.0478   18.2476  -13.6199 C   0  0  0  0  0  0  0  0  0  0  0  0
  -21.4191   18.2477  -13.5766 C   0  0  0  0  0  0  0  0  0  0  0  0
  -22.0809   18.6608  -14.7007 C   0  0  0  0  0  0  0  0  0  0  0  0
  -21.3720   19.0640  -15.8411 C   0  0  0  0  0  0  0  0  0  0  0  0
  -17.4932   11.1668  -21.1466 O   0  0  0  0  0  0  0  0  0  0  0  0
  -16.7170   10.5225  -20.2205 C   0  0  0  0  0  0  0  0  0  0  0  0
  -17.4041   10.1805  -18.9237 C   0  0  0  0  0  0  0  0  0  0  0  0
  -18.1012   11.4236  -18.3927 C   0  0  0  0  0  0  0  0  0  0  0  0
  -19.2431   11.1552  -17.5867 N   0  0  0  0  0  0  0  0  0  0  0  0
  -19.6096   12.2169  -16.6997 C   0  0  0  0  0  0  0  0  0  0  0  0
  -21.0538   12.0306  -16.2983 C   0  0  0  0  0  0  0  0  0  0  0  0
  -21.4537   10.6996  -16.3232 O   0  0  0  0  0  0  0  0  0  0  0  0
  -20.4391    9.8368  -15.9388 C   0  0  0  0  0  0  0  0  0  0  0  0
  -19.2585    9.8987  -16.9111 C   0  0  0  0  0  0  0  0  0  0  0  0
 11 12  1  0  0  0
 12  1  1  0  0  0
  1  2  2  0  0  0
  2  3  1  0  0  0
  3  4  2  0  0  0
  4 13  1  0  0  0
 13 14  1  0  0  0
 14 15  2  0  0  0
 15 16  1  0  0  0
 16 17  2  0  0  0
 17 21  1  0  0  0
 21 22  1  0  0  0
 22 23  2  0  0  0
 22 24  1  0  0  0
 24 27  1  0  0  0
 27 28  2  0  0  0
 28 29  1  0  0  0
 29 30  2  0  0  0
 30 31  1  0  0  0
 31 32  2  0  0  0
 17 18  1  0  0  0
 18 19  2  0  0  0
 19 20  1  0  0  0
  4  5  1  0  0  0
  5  6  2  0  0  0
  6  7  1  0  0  0
  7  8  2  0  0  0
  8  9  1  0  0  0
  9 10  2  0  0  0
 10 33  1  0  0  0
 33 34  1  0  0  0
 34 35  1  0  0  0
 35 36  1  0  0  0
 36 37  1  0  0  0
 37 38  1  0  0  0
 38 39  1  0  0  0
 39 40  1  0  0  0
 40 41  1  0  0  0
 41 42  1  0  0  0
 10  1  1  0  0  0
 42 37  1  0  0  0
  8  3  1  0  0  0
 19 14  1  0  0  0
 32 27  1  0  0  0
 21 25  1  0  0  0
 24 26  1  0  0  0
M  END
> <minimizedAffinity>
-8.70313

> <CNNscore>
0.1689847112

> <CNNaffinity>
6.6615324020

> <CNN_VS>
1.1256971359

> <CNNaffinity_variance>
0.6537446976

$$$$
[H]c1nc2c([H])c(OC([H])([H])C([H])([H])C([H])([H])N3C([H])([H])C([H])([H])OC([H])([H])C3([H])[H])c(OC([H])([H])[H])c([H])c2c(Oc2c([H])c([H])c(N([H])C(=O)N([H])c3c([H])c([H])c([H])c([H])c3[H])c([H])c2F)c1[H]


 42 46  0  0  0  0  0  0  0  0999 V2000
  -18.0978   16.8638  -21.7390 C   0  0  0  0  0  0  0  0  0  0  0  0
  -17.5016   15.6307  -21.7708 C   0  0  0  0  0  0  0  0  0  0  0  0
  -17.5918   14.7853  -22.8550 C   0  0  0  0  0  0  0  0  0  0  0  0
  -16.9799   13.5266  -22.8828 C   0  0  0  0  0  0  0  0  0  0  0  0
  -17.0981   12.7132  -23.9932 C   0  0  0  0  0  0  0  0  0  0  0  0
  -17.8369   13.1564  -25.0987 C   0  0  0  0  0  0  0  0  0  0  0  0
  -18.4131   14.3657  -25.0477 N   0  0  0  0  0  0  0  0  0  0  0  0
  -18.3030   15.1678  -23.9649 C   0  0  0  0  0  0  0  0  0  0  0  0
  -18.9152   16.4205  -23.9447 C   0  0  0  0  0  0  0  0  0  0  0  0
  -18.8349   17.2766  -22.8730 C   0  0  0  0  0  0  0  0  0  0  0  0
  -18.6848   17.4638  -19.4376 C   0  0  0  0  0  0  0  0  0  0  0  0
  -18.0107   17.7245  -20.6457 O   0  0  0  0  0  0  0  0  0  0  0  0
  -16.2772   13.2016  -21.7376 O   0  0  0  0  0  0  0  0  0  0  0  0
  -16.6901   12.2070  -20.8736 C   0  0  0  0  0  0  0  0  0  0  0  0
  -17.6585   12.4447  -19.9249 C   0  0  0  0  0  0  0  0  0  0  0  0
  -18.1005   11.4554  -19.0286 C   0  0  0  0  0  0  0  0  0  0  0  0
  -17.5704   10.2000  -19.0712 C   0  0  0  0  0  0  0  0  0  0  0  0
  -16.5773    9.9442  -20.0386 C   0  0  0  0  0  0  0  0  0  0  0  0
  -16.1704   10.9254  -20.8936 C   0  0  0  0  0  0  0  0  0  0  0  0
  -15.1749   10.6773  -21.8215 F   0  0  0  0  0  0  0  0  0  0  0  0
  -17.9473    9.1713  -18.1926 N   0  0  0  0  0  0  0  0  0  0  0  0
  -18.7865    9.3469  -17.0685 C   0  0  0  0  0  0  0  0  0  0  0  0
  -19.2105   10.4850  -16.8375 O   0  0  0  0  0  0  0  0  0  0  0  0
  -19.0822    8.2072  -16.2873 N   0  0  0  0  0  0  0  0  0  0  0  0
  -17.5947    8.1745  -18.3545 H   0  0  0  0  0  0  0  0  0  0  0  0
  -18.6609    7.2916  -16.5841 H   0  0  0  0  0  0  0  0  0  0  0  0
  -19.8935    8.2216  -15.1464 C   0  0  0  0  0  0  0  0  0  0  0  0
  -21.2396    7.8245  -15.2989 C   0  0  0  0  0  0  0  0  0  0  0  0
  -22.1131    7.7854  -14.2442 C   0  0  0  0  0  0  0  0  0  0  0  0
  -21.7338    8.1302  -12.9716 C   0  0  0  0  0  0  0  0  0  0  0  0
  -20.4349    8.5197  -12.7893 C   0  0  0  0  0  0  0  0  0  0  0  0
  -19.5413    8.5593  -13.8689 C   0  0  0  0  0  0  0  0  0  0  0  0
  -19.4079   18.5103  -22.8040 O   0  0  0  0  0  0  0  0  0  0  0  0
  -20.5111   18.9534  -23.4836 C   0  0  0  0  0  0  0  0  0  0  0  0
  -20.7539   20.4395  -23.4274 C   0  0  0  0  0  0  0  0  0  0  0  0
  -21.7091   20.8253  -24.5464 C   0  0  0  0  0  0  0  0  0  0  0  0
  -21.0672   21.2398  -25.7471 N   0  0  0  0  0  0  0  0  0  0  0  0
  -20.4142   22.5107  -25.6660 C   0  0  0  0  0  0  0  0  0  0  0  0
  -19.3911   22.5967  -26.7738 C   0  0  0  0  0  0  0  0  0  0  0  0
  -19.7280   21.8266  -27.8809 O   0  0  0  0  0  0  0  0  0  0  0  0
  -21.0953   21.7986  -28.1075 C   0  0  0  0  0  0  0  0  0  0  0  0
  -21.8383   21.1388  -26.9433 C   0  0  0  0  0  0  0  0  0  0  0  0
 11 12  1  0  0  0
 12  1  1  0  0  0
  1  2  2  0  0  0
  2  3  1  0  0  0
  3  4  2  0  0  0
  4 13  1  0  0  0
 13 14  1  0  0  0
 14 15  2  0  0  0
 15 16  1  0  0  0
 16 17  2  0  0  0
 17 21  1  0  0  0
 21 22  1  0  0  0
 22 23  2  0  0  0
 22 24  1  0  0  0
 24 27  1  0  0  0
 27 28  2  0  0  0
 28 29  1  0  0  0
 29 30  2  0  0  0
 30 31  1  0  0  0
 31 32  2  0  0  0
 17 18  1  0  0  0
 18 19  2  0  0  0
 19 20  1  0  0  0
  4  5  1  0  0  0
  5  6  2  0  0  0
  6  7  1  0  0  0
  7  8  2  0  0  0
  8  9  1  0  0  0
  9 10  2  0  0  0
 10 33  1  0  0  0
 33 34  1  0  0  0
 34 35  1  0  0  0
 35 36  1  0  0  0
 36 37  1  0  0  0
 37 38  1  0  0  0
 38 39  1  0  0  0
 39 40  1  0  0  0
 40 41  1  0  0  0
 41 42  1  0  0  0
 10  1  1  0  0  0
 42 37  1  0  0  0
  8  3  1  0  0  0
 19 14  1  0  0  0
 32 27  1  0  0  0
 21 25  1  0  0  0
 24 26  1  0  0  0
M  END
> <minimizedAffinity>
-8.39155

> <CNNscore>
0.1338964850

> <CNNaffinity>
6.4674162865

> <CNN_VS>
0.8659642935

> <CNNaffinity_variance>
0.2128548920

$$$$
[H]c1nc2c([H])c(OC([H])([H])C([H])([H])C([H])([H])N3C([H])([H])C([H])([H])OC([H])([H])C3([H])[H])c(OC([H])([H])[H])c([H])c2c(Oc2c([H])c([H])c(N([H])C(=O)N([H])c3c([H])c([H])c([H])c([H])c3[H])c([H])c2F)c1[H]


 42 46  0  0  0  0  0  0  0  0999 V2000
  -18.1106   11.2811  -18.7713 C   0  0  0  0  0  0  0  0  0  0  0  0
  -18.1648   12.6357  -18.9692 C   0  0  0  0  0  0  0  0  0  0  0  0
  -18.9792   13.4663  -18.2309 C   0  0  0  0  0  0  0  0  0  0  0  0
  -19.0302   14.8500  -18.4365 C   0  0  0  0  0  0  0  0  0  0  0  0
  -19.8630   15.6431  -17.6709 C   0  0  0  0  0  0  0  0  0  0  0  0
  -20.6606   15.0531  -16.6808 C   0  0  0  0  0  0  0  0  0  0  0  0
  -20.5937   13.7260  -16.5033 N   0  0  0  0  0  0  0  0  0  0  0  0
  -19.7820   12.9425  -17.2484 C   0  0  0  0  0  0  0  0  0  0  0  0
  -19.7365   11.5650  -17.0377 C   0  0  0  0  0  0  0  0  0  0  0  0
  -18.9299   10.7220  -17.7634 C   0  0  0  0  0  0  0  0  0  0  0  0
  -16.8919   10.7474  -20.8283 C   0  0  0  0  0  0  0  0  0  0  0  0
  -17.2889   10.4347  -19.5142 O   0  0  0  0  0  0  0  0  0  0  0  0
  -18.1974   15.3155  -19.4368 O   0  0  0  0  0  0  0  0  0  0  0  0
  -18.3928   16.5347  -20.0545 C   0  0  0  0  0  0  0  0  0  0  0  0
  -17.4837   17.5584  -19.9135 C   0  0  0  0  0  0  0  0  0  0  0  0
  -17.6531   18.8124  -20.5268 C   0  0  0  0  0  0  0  0  0  0  0  0
  -18.7499   19.0602  -21.2981 C   0  0  0  0  0  0  0  0  0  0  0  0
  -19.6885   18.0194  -21.4500 C   0  0  0  0  0  0  0  0  0  0  0  0
  -19.4951   16.8143  -20.8418 C   0  0  0  0  0  0  0  0  0  0  0  0
  -20.4337   15.8064  -20.9703 F   0  0  0  0  0  0  0  0  0  0  0  0
  -18.9945   20.2951  -21.9205 N   0  0  0  0  0  0  0  0  0  0  0  0
  -19.1912   20.4653  -23.3101 C   0  0  0  0  0  0  0  0  0  0  0  0
  -19.1353   19.4602  -24.0279 O   0  0  0  0  0  0  0  0  0  0  0  0
  -19.4387   21.7742  -23.7812 N   0  0  0  0  0  0  0  0  0  0  0  0
  -19.0425   21.1885  -21.3344 H   0  0  0  0  0  0  0  0  0  0  0  0
  -19.4616   22.5498  -23.0728 H   0  0  0  0  0  0  0  0  0  0  0  0
  -19.6501   22.1020  -25.1258 C   0  0  0  0  0  0  0  0  0  0  0  0
  -20.9182   21.8141  -25.6752 C   0  0  0  0  0  0  0  0  0  0  0  0
  -21.2351   22.1103  -26.9747 C   0  0  0  0  0  0  0  0  0  0  0  0
  -20.3385   22.7064  -27.8250 C   0  0  0  0  0  0  0  0  0  0  0  0
  -19.0996   22.9991  -27.3235 C   0  0  0  0  0  0  0  0  0  0  0  0
  -18.7758   22.6961  -25.9935 C   0  0  0  0  0  0  0  0  0  0  0  0
  -18.8434    9.3732  -17.5947 O   0  0  0  0  0  0  0  0  0  0  0  0
  -18.4133    8.7008  -16.4820 C   0  0  0  0  0  0  0  0  0  0  0  0
  -19.4807    8.3706  -15.4708 C   0  0  0  0  0  0  0  0  0  0  0  0
  -19.1419    9.0553  -14.1556 C   0  0  0  0  0  0  0  0  0  0  0  0
  -19.9515    8.6479  -13.0581 N   0  0  0  0  0  0  0  0  0  0  0  0
  -20.6803    9.7071  -12.4295 C   0  0  0  0  0  0  0  0  0  0  0  0
  -21.8324    9.1064  -11.6593 C   0  0  0  0  0  0  0  0  0  0  0  0
  -21.5758    7.8101  -11.2278 O   0  0  0  0  0  0  0  0  0  0  0  0
  -20.2471    7.6236  -10.8792 C   0  0  0  0  0  0  0  0  0  0  0  0
  -19.3241    7.8140  -12.0853 C   0  0  0  0  0  0  0  0  0  0  0  0
 11 12  1  0  0  0
 12  1  1  0  0  0
  1  2  2  0  0  0
  2  3  1  0  0  0
  3  4  2  0  0  0
  4 13  1  0  0  0
 13 14  1  0  0  0
 14 15  2  0  0  0
 15 16  1  0  0  0
 16 17  2  0  0  0
 17 21  1  0  0  0
 21 22  1  0  0  0
 22 23  2  0  0  0
 22 24  1  0  0  0
 24 27  1  0  0  0
 27 28  2  0  0  0
 28 29  1  0  0  0
 29 30  2  0  0  0
 30 31  1  0  0  0
 31 32  2  0  0  0
 17 18  1  0  0  0
 18 19  2  0  0  0
 19 20  1  0  0  0
  4  5  1  0  0  0
  5  6  2  0  0  0
  6  7  1  0  0  0
  7  8  2  0  0  0
  8  9  1  0  0  0
  9 10  2  0  0  0
 10 33  1  0  0  0
 33 34  1  0  0  0
 34 35  1  0  0  0
 35 36  1  0  0  0
 36 37  1  0  0  0
 37 38  1  0  0  0
 38 39  1  0  0  0
 39 40  1  0  0  0
 40 41  1  0  0  0
 41 42  1  0  0  0
 10  1  1  0  0  0
 42 37  1  0  0  0
  8  3  1  0  0  0
 19 14  1  0  0  0
 32 27  1  0  0  0
 21 25  1  0  0  0
 24 26  1  0  0  0
M  END
> <minimizedAffinity>
-7.64648

> <CNNscore>
0.1091784164

> <CNNaffinity>
6.3559541702

> <CNN_VS>
0.6939330101

> <CNNaffinity_variance>
0.0270013213

$$$$
[H]c1nc2c([H])c(OC([H])([H])C([H])([H])C([H])([H])N3C([H])([H])C([H])([H])OC([H])([H])C3([H])[H])c(OC([H])([H])[H])c([H])c2c(Oc2c([H])c([H])c(N([H])C(=O)N([H])c3c([H])c([H])c([H])c([H])c3[H])c([H])c2[H])c1[H]


 41 45  0  0  0  0  0  0  0  0999 V2000
  -18.8789   11.8425  -18.8941 C   0  0  0  0  0  0  0  0  0  0  0  0
  -18.4291   12.4000  -20.0674 C   0  0  0  0  0  0  0  0  0  0  0  0
  -17.3776   11.9367  -20.7954 C   0  0  0  0  0  0  0  0  0  0  0  0
  -16.9956   12.5563  -21.9580 C   0  0  0  0  0  0  0  0  0  0  0  0
  -15.9237   12.0546  -22.6674 C   0  0  0  0  0  0  0  0  0  0  0  0
  -15.2846   10.9396  -22.1621 C   0  0  0  0  0  0  0  0  0  0  0  0
  -15.6754   10.3496  -21.0222 N   0  0  0  0  0  0  0  0  0  0  0  0
  -16.7258   10.8210  -20.3028 C   0  0  0  0  0  0  0  0  0  0  0  0
  -17.1211   10.2082  -19.1321 C   0  0  0  0  0  0  0  0  0  0  0  0
  -18.1875   10.7112  -18.4286 C   0  0  0  0  0  0  0  0  0  0  0  0
  -19.7650   13.5774  -17.5069 C   0  0  0  0  0  0  0  0  0  0  0  0
  -19.9600   12.3477  -18.1806 O   0  0  0  0  0  0  0  0  0  0  0  0
  -17.6812   13.6903  -22.4272 O   0  0  0  0  0  0  0  0  0  0  0  0
  -17.8199   14.7944  -21.5600 C   0  0  0  0  0  0  0  0  0  0  0  0
  -19.0689   15.2172  -21.1796 C   0  0  0  0  0  0  0  0  0  0  0  0
  -19.2385   16.2894  -20.3320 C   0  0  0  0  0  0  0  0  0  0  0  0
  -18.1386   17.0028  -19.8162 C   0  0  0  0  0  0  0  0  0  0  0  0
  -16.9001   16.5629  -20.2104 C   0  0  0  0  0  0  0  0  0  0  0  0
  -16.7301   15.4681  -21.0757 C   0  0  0  0  0  0  0  0  0  0  0  0
  -18.4063   18.0652  -18.9329 N   0  0  0  0  0  0  0  0  0  0  0  0
  -19.0933   18.0196  -17.6994 C   0  0  0  0  0  0  0  0  0  0  0  0
  -19.5216   16.9309  -17.2694 O   0  0  0  0  0  0  0  0  0  0  0  0
  -19.3239   19.1676  -16.9159 N   0  0  0  0  0  0  0  0  0  0  0  0
  -18.0597   19.0478  -19.1971 H   0  0  0  0  0  0  0  0  0  0  0  0
  -18.9543   20.0804  -17.3443 H   0  0  0  0  0  0  0  0  0  0  0  0
  -19.9644   19.2331  -15.6708 C   0  0  0  0  0  0  0  0  0  0  0  0
  -21.2119   19.8884  -15.6336 C   0  0  0  0  0  0  0  0  0  0  0  0
  -21.8963   20.0164  -14.4480 C   0  0  0  0  0  0  0  0  0  0  0  0
  -21.3689   19.5050  -13.2786 C   0  0  0  0  0  0  0  0  0  0  0  0
  -20.1487   18.8626  -13.3020 C   0  0  0  0  0  0  0  0  0  0  0  0
  -19.4504   18.7322  -14.5096 C   0  0  0  0  0  0  0  0  0  0  0  0
  -18.6303   10.1556  -17.2503 O   0  0  0  0  0  0  0  0  0  0  0  0
  -18.6267    8.7831  -17.0266 C   0  0  0  0  0  0  0  0  0  0  0  0
  -19.0213    8.3752  -15.6324 C   0  0  0  0  0  0  0  0  0  0  0  0
  -20.5346    8.2167  -15.5830 C   0  0  0  0  0  0  0  0  0  0  0  0
  -21.1348    9.2387  -14.7568 N   0  0  0  0  0  0  0  0  0  0  0  0
  -20.1494    9.7559  -13.8556 C   0  0  0  0  0  0  0  0  0  0  0  0
  -20.2865   11.2100  -13.5243 C   0  0  0  0  0  0  0  0  0  0  0  0
  -20.6704   11.9907  -14.6168 O   0  0  0  0  0  0  0  0  0  0  0  0
  -21.9485   11.5649  -14.9586 C   0  0  0  0  0  0  0  0  0  0  0  0
  -21.7850   10.1959  -15.5912 C   0  0  0  0  0  0  0  0  0  0  0  0
 11 12  1  0  0  0
 12  1  1  0  0  0
  1  2  2  0  0  0
  2  3  1  0  0  0
  3  4  2  0  0  0
  4 13  1  0  0  0
 13 14  1  0  0  0
 14 15  2  0  0  0
 15 16  1  0  0  0
 16 17  2  0  0  0
 17 20  1  0  0  0
 20 21  1  0  0  0
 21 22  2  0  0  0
 21 23  1  0  0  0
 23 26  1  0  0  0
 26 27  2  0  0  0
 27 28  1  0  0  0
 28 29  2  0  0  0
 29 30  1  0  0  0
 30 31  2  0  0  0
 17 18  1  0  0  0
 18 19  2  0  0  0
  4  5  1  0  0  0
  5  6  2  0  0  0
  6  7  1  0  0  0
  7  8  2  0  0  0
  8  9  1  0  0  0
  9 10  2  0  0  0
 10 32  1  0  0  0
 32 33  1  0  0  0
 33 34  1  0  0  0
 34 35  1  0  0  0
 35 36  1  0  0  0
 36 37  1  0  0  0
 37 38  1  0  0  0
 38 39  1  0  0  0
 39 40  1  0  0  0
 40 41  1  0  0  0
 10  1  1  0  0  0
 41 36  1  0  0  0
  8  3  1  0  0  0
 19 14  1  0  0  0
 31 26  1  0  0  0
 20 24  1  0  0  0
 23 25  1  0  0  0
M  END
> <minimizedAffinity>
-8.02803

> <CNNscore>
0.8217548728

> <CNNaffinity>
7.2742552757

> <CNN_VS>
5.9776549339

> <CNNaffinity_variance>
0.0444153473

$$$$
[H]c1nc2c([H])c(OC([H])([H])C([H])([H])C([H])([H])N3C([H])([H])C([H])([H])OC([H])([H])C3([H])[H])c(OC([H])([H])[H])c([H])c2c(Oc2c([H])c([H])c(N([H])C(=O)N([H])c3c([H])c([H])c([H])c([H])c3[H])c([H])c2[H])c1[H]


 41 45  0  0  0  0  0  0  0  0999 V2000
  -19.2713   11.6799  -18.2948 C   0  0  0  0  0  0  0  0  0  0  0  0
  -18.8402   12.2353  -19.4761 C   0  0  0  0  0  0  0  0  0  0  0  0
  -17.7832   11.7875  -20.2057 C   0  0  0  0  0  0  0  0  0  0  0  0
  -17.4211   12.4036  -21.3765 C   0  0  0  0  0  0  0  0  0  0  0  0
  -16.3428   11.9180  -22.0873 C   0  0  0  0  0  0  0  0  0  0  0  0
  -15.6771   10.8220  -21.5750 C   0  0  0  0  0  0  0  0  0  0  0  0
  -16.0486   10.2350  -20.4271 N   0  0  0  0  0  0  0  0  0  0  0  0
  -17.1048   10.6908  -19.7062 C   0  0  0  0  0  0  0  0  0  0  0  0
  -17.4802   10.0812  -18.5273 C   0  0  0  0  0  0  0  0  0  0  0  0
  -18.5532   10.5682  -17.8225 C   0  0  0  0  0  0  0  0  0  0  0  0
  -20.4065   13.5667  -17.3619 C   0  0  0  0  0  0  0  0  0  0  0  0
  -20.3589   12.1687  -17.5799 O   0  0  0  0  0  0  0  0  0  0  0  0
  -18.1336   13.5181  -21.8527 O   0  0  0  0  0  0  0  0  0  0  0  0
  -18.2446   14.6483  -21.0157 C   0  0  0  0  0  0  0  0  0  0  0  0
  -19.4827   15.1366  -20.6806 C   0  0  0  0  0  0  0  0  0  0  0  0
  -19.6255   16.2359  -19.8633 C   0  0  0  0  0  0  0  0  0  0  0  0
  -18.5083   16.9111  -19.3337 C   0  0  0  0  0  0  0  0  0  0  0  0
  -17.2812   16.4060  -19.6826 C   0  0  0  0  0  0  0  0  0  0  0  0
  -17.1384   15.2836  -20.5169 C   0  0  0  0  0  0  0  0  0  0  0  0
  -18.7505   18.0061  -18.4833 N   0  0  0  0  0  0  0  0  0  0  0  0
  -19.4055   18.0078  -17.2316 C   0  0  0  0  0  0  0  0  0  0  0  0
  -19.8250   16.9371  -16.7511 O   0  0  0  0  0  0  0  0  0  0  0  0
  -19.6130   19.1846  -16.4851 N   0  0  0  0  0  0  0  0  0  0  0  0
  -18.4086   18.9772  -18.7922 H   0  0  0  0  0  0  0  0  0  0  0  0
  -19.2524   20.0799  -16.9561 H   0  0  0  0  0  0  0  0  0  0  0  0
  -20.2208   19.2976  -15.2271 C   0  0  0  0  0  0  0  0  0  0  0  0
  -19.5546   18.6883  -14.1444 C   0  0  0  0  0  0  0  0  0  0  0  0
  -20.0942   18.7330  -12.8805 C   0  0  0  0  0  0  0  0  0  0  0  0
  -21.2963   19.3749  -12.6568 C   0  0  0  0  0  0  0  0  0  0  0  0
  -21.9581   19.9739  -13.7081 C   0  0  0  0  0  0  0  0  0  0  0  0
  -21.4093   19.9284  -14.9964 C   0  0  0  0  0  0  0  0  0  0  0  0
  -18.9772   10.0149  -16.6363 O   0  0  0  0  0  0  0  0  0  0  0  0
  -18.7253    8.6890  -16.3010 C   0  0  0  0  0  0  0  0  0  0  0  0
  -19.4456    8.2070  -15.0702 C   0  0  0  0  0  0  0  0  0  0  0  0
  -20.8921    7.9092  -15.4397 C   0  0  0  0  0  0  0  0  0  0  0  0
  -21.2744    6.5851  -15.0060 N   0  0  0  0  0  0  0  0  0  0  0  0
  -21.9272    5.9055  -16.0844 C   0  0  0  0  0  0  0  0  0  0  0  0
  -21.6934    4.4274  -16.1433 C   0  0  0  0  0  0  0  0  0  0  0  0
  -20.3859    4.0623  -15.8153 O   0  0  0  0  0  0  0  0  0  0  0  0
  -20.2162    4.4129  -14.4811 C   0  0  0  0  0  0  0  0  0  0  0  0
  -20.1388    5.9275  -14.4466 C   0  0  0  0  0  0  0  0  0  0  0  0
 11 12  1  0  0  0
 12  1  1  0  0  0
  1  2  2  0  0  0
  2  3  1  0  0  0
  3  4  2  0  0  0
  4 13  1  0  0  0
 13 14  1  0  0  0
 14 15  2  0  0  0
 15 16  1  0  0  0
 16 17  2  0  0  0
 17 20  1  0  0  0
 20 21  1  0  0  0
 21 22  2  0  0  0
 21 23  1  0  0  0
 23 26  1  0  0  0
 26 27  2  0  0  0
 27 28  1  0  0  0
 28 29  2  0  0  0
 29 30  1  0  0  0
 30 31  2  0  0  0
 17 18  1  0  0  0
 18 19  2  0  0  0
  4  5  1  0  0  0
  5  6  2  0  0  0
  6  7  1  0  0  0
  7  8  2  0  0  0
  8  9  1  0  0  0
  9 10  2  0  0  0
 10 32  1  0  0  0
 32 33  1  0  0  0
 33 34  1  0  0  0
 34 35  1  0  0  0
 35 36  1  0  0  0
 36 37  1  0  0  0
 37 38  1  0  0  0
 38 39  1  0  0  0
 39 40  1  0  0  0
 40 41  1  0  0  0
 10  1  1  0  0  0
 41 36  1  0  0  0
  8  3  1  0  0  0
 19 14  1  0  0  0
 31 26  1  0  0  0
 20 24  1  0  0  0
 23 25  1  0  0  0
M  END
> <minimizedAffinity>
-7.93451

> <CNNscore>
0.8016468883

> <CNNaffinity>
7.2064194679

> <CNN_VS>
5.7770037651

> <CNNaffinity_variance>
0.0399390198

$$$$
[H]c1nc2c([H])c(OC([H])([H])C([H])([H])C([H])([H])N3C([H])([H])C([H])([H])OC([H])([H])C3([H])[H])c(OC([H])([H])[H])c([H])c2c(Oc2c([H])c([H])c(N([H])C(=O)N([H])c3c([H])c([H])c([H])c([H])c3[H])c([H])c2[H])c1[H]


 41 45  0  0  0  0  0  0  0  0999 V2000
  -18.9635   12.1847  -19.1399 C   0  0  0  0  0  0  0  0  0  0  0  0
  -18.5249   12.7267  -20.3247 C   0  0  0  0  0  0  0  0  0  0  0  0
  -17.4655   12.2685  -21.0442 C   0  0  0  0  0  0  0  0  0  0  0  0
  -17.0958   12.8715  -22.2195 C   0  0  0  0  0  0  0  0  0  0  0  0
  -16.0152   12.3756  -22.9197 C   0  0  0  0  0  0  0  0  0  0  0  0
  -15.3551   11.2832  -22.3926 C   0  0  0  0  0  0  0  0  0  0  0  0
  -15.7341   10.7091  -21.2407 N   0  0  0  0  0  0  0  0  0  0  0  0
  -16.7927   11.1752  -20.5299 C   0  0  0  0  0  0  0  0  0  0  0  0
  -17.1757   10.5788  -19.3467 C   0  0  0  0  0  0  0  0  0  0  0  0
  -18.2509   11.0760  -18.6524 C   0  0  0  0  0  0  0  0  0  0  0  0
  -20.6072   13.9041  -18.8924 C   0  0  0  0  0  0  0  0  0  0  0  0
  -20.0534   12.6839  -18.4356 O   0  0  0  0  0  0  0  0  0  0  0  0
  -17.8027   13.9829  -22.7107 O   0  0  0  0  0  0  0  0  0  0  0  0
  -17.7320   15.1929  -21.9888 C   0  0  0  0  0  0  0  0  0  0  0  0
  -18.8029   16.0511  -21.9790 C   0  0  0  0  0  0  0  0  0  0  0  0
  -18.7673   17.2383  -21.2818 C   0  0  0  0  0  0  0  0  0  0  0  0
  -17.6302   17.6280  -20.5470 C   0  0  0  0  0  0  0  0  0  0  0  0
  -16.5718   16.7552  -20.5718 C   0  0  0  0  0  0  0  0  0  0  0  0
  -16.6111   15.5439  -21.2842 C   0  0  0  0  0  0  0  0  0  0  0  0
  -17.6950   18.8435  -19.8405 N   0  0  0  0  0  0  0  0  0  0  0  0
  -18.8297   19.4541  -19.2613 C   0  0  0  0  0  0  0  0  0  0  0  0
  -19.9383   18.8884  -19.3270 O   0  0  0  0  0  0  0  0  0  0  0  0
  -18.7686   20.6969  -18.6003 N   0  0  0  0  0  0  0  0  0  0  0  0
  -16.7879   19.4039  -19.7053 H   0  0  0  0  0  0  0  0  0  0  0  0
  -17.7949   21.1499  -18.5933 H   0  0  0  0  0  0  0  0  0  0  0  0
  -19.8190   21.3766  -17.9684 C   0  0  0  0  0  0  0  0  0  0  0  0
  -20.5026   22.3411  -18.7364 C   0  0  0  0  0  0  0  0  0  0  0  0
  -21.5309   23.0688  -18.1855 C   0  0  0  0  0  0  0  0  0  0  0  0
  -21.9060   22.8641  -16.8723 C   0  0  0  0  0  0  0  0  0  0  0  0
  -21.2443   21.9240  -16.1105 C   0  0  0  0  0  0  0  0  0  0  0  0
  -20.1959   21.1824  -16.6708 C   0  0  0  0  0  0  0  0  0  0  0  0
  -18.6825   10.5362  -17.4627 O   0  0  0  0  0  0  0  0  0  0  0  0
  -18.7604    9.1637  -17.2526 C   0  0  0  0  0  0  0  0  0  0  0  0
  -18.8443    8.7558  -15.8061 C   0  0  0  0  0  0  0  0  0  0  0  0
  -19.9540    9.5569  -15.1394 C   0  0  0  0  0  0  0  0  0  0  0  0
  -21.2482    8.9784  -15.4180 N   0  0  0  0  0  0  0  0  0  0  0  0
  -21.6152    8.1042  -14.3448 C   0  0  0  0  0  0  0  0  0  0  0  0
  -23.0800    8.0489  -14.0376 C   0  0  0  0  0  0  0  0  0  0  0  0
  -23.7112    9.2908  -14.1355 O   0  0  0  0  0  0  0  0  0  0  0  0
  -23.6252    9.6572  -15.4734 C   0  0  0  0  0  0  0  0  0  0  0  0
  -22.1735   10.0209  -15.7216 C   0  0  0  0  0  0  0  0  0  0  0  0
 11 12  1  0  0  0
 12  1  1  0  0  0
  1  2  2  0  0  0
  2  3  1  0  0  0
  3  4  2  0  0  0
  4 13  1  0  0  0
 13 14  1  0  0  0
 14 15  2  0  0  0
 15 16  1  0  0  0
 16 17  2  0  0  0
 17 20  1  0  0  0
 20 21  1  0  0  0
 21 22  2  0  0  0
 21 23  1  0  0  0
 23 26  1  0  0  0
 26 27  2  0  0  0
 27 28  1  0  0  0
 28 29  2  0  0  0
 29 30  1  0  0  0
 30 31  2  0  0  0
 17 18  1  0  0  0
 18 19  2  0  0  0
  4  5  1  0  0  0
  5  6  2  0  0  0
  6  7  1  0  0  0
  7  8  2  0  0  0
  8  9  1  0  0  0
  9 10  2  0  0  0
 10 32  1  0  0  0
 32 33  1  0  0  0
 33 34  1  0  0  0
 34 35  1  0  0  0
 35 36  1  0  0  0
 36 37  1  0  0  0
 37 38  1  0  0  0
 38 39  1  0  0  0
 39 40  1  0  0  0
 40 41  1  0  0  0
 10  1  1  0  0  0
 41 36  1  0  0  0
  8  3  1  0  0  0
 19 14  1  0  0  0
 31 26  1  0  0  0
 20 24  1  0  0  0
 23 25  1  0  0  0
M  END
> <minimizedAffinity>
-7.78722

> <CNNscore>
0.7604075670

> <CNNaffinity>
7.1321434975

> <CNN_VS>
5.4233360291

> <CNNaffinity_variance>
0.0306686852

$$$$
[H]c1nc2c([H])c(OC([H])([H])C([H])([H])C([H])([H])N3C([H])([H])C([H])([H])OC([H])([H])C3([H])[H])c(OC([H])([H])[H])c([H])c2c(Oc2c([H])c([H])c(N([H])C(=O)N([H])c3c([H])c([H])c([H])c([H])c3[H])c([H])c2[H])c1[H]


 41 45  0  0  0  0  0  0  0  0999 V2000
  -19.3474   12.6385  -19.3688 C   0  0  0  0  0  0  0  0  0  0  0  0
  -18.6347   12.6869  -20.5434 C   0  0  0  0  0  0  0  0  0  0  0  0
  -17.5185   11.9555  -20.8063 C   0  0  0  0  0  0  0  0  0  0  0  0
  -16.8679   12.0668  -22.0087 C   0  0  0  0  0  0  0  0  0  0  0  0
  -15.7390   11.3067  -22.2361 C   0  0  0  0  0  0  0  0  0  0  0  0
  -15.3193   10.4625  -21.2271 C   0  0  0  0  0  0  0  0  0  0  0  0
  -15.9712   10.3698  -20.0582 N   0  0  0  0  0  0  0  0  0  0  0  0
  -17.0841   11.1054  -19.8058 C   0  0  0  0  0  0  0  0  0  0  0  0
  -17.7485   11.0037  -18.6014 C   0  0  0  0  0  0  0  0  0  0  0  0
  -18.8708   11.7626  -18.3787 C   0  0  0  0  0  0  0  0  0  0  0  0
  -20.6101   14.6037  -19.8813 C   0  0  0  0  0  0  0  0  0  0  0  0
  -20.4858   13.4034  -19.1409 O   0  0  0  0  0  0  0  0  0  0  0  0
  -17.3378   12.9436  -23.0020 O   0  0  0  0  0  0  0  0  0  0  0  0
  -17.3888   14.3223  -22.7074 C   0  0  0  0  0  0  0  0  0  0  0  0
  -16.4196   14.8938  -21.9217 C   0  0  0  0  0  0  0  0  0  0  0  0
  -16.4387   16.2370  -21.6182 C   0  0  0  0  0  0  0  0  0  0  0  0
  -17.4540   17.0872  -22.0990 C   0  0  0  0  0  0  0  0  0  0  0  0
  -18.4124   16.4942  -22.8815 C   0  0  0  0  0  0  0  0  0  0  0  0
  -18.3902   15.1228  -23.1899 C   0  0  0  0  0  0  0  0  0  0  0  0
  -17.3757   18.4516  -21.7630 N   0  0  0  0  0  0  0  0  0  0  0  0
  -18.4259   19.3945  -21.7015 C   0  0  0  0  0  0  0  0  0  0  0  0
  -19.5953   19.0349  -21.9397 O   0  0  0  0  0  0  0  0  0  0  0  0
  -18.2120   20.7491  -21.3785 N   0  0  0  0  0  0  0  0  0  0  0  0
  -16.4133   18.8620  -21.5168 H   0  0  0  0  0  0  0  0  0  0  0  0
  -17.1843   21.0085  -21.2054 H   0  0  0  0  0  0  0  0  0  0  0  0
  -19.1778   21.7582  -21.2611 C   0  0  0  0  0  0  0  0  0  0  0  0
  -19.8321   21.8675  -20.0172 C   0  0  0  0  0  0  0  0  0  0  0  0
  -20.8086   22.8162  -19.8249 C   0  0  0  0  0  0  0  0  0  0  0  0
  -21.1609   23.6731  -20.8489 C   0  0  0  0  0  0  0  0  0  0  0  0
  -20.5286   23.5755  -22.0708 C   0  0  0  0  0  0  0  0  0  0  0  0
  -19.5339   22.6087  -22.2678 C   0  0  0  0  0  0  0  0  0  0  0  0
  -19.5773   11.7176  -17.1989 O   0  0  0  0  0  0  0  0  0  0  0  0
  -20.1345   10.5415  -16.7090 C   0  0  0  0  0  0  0  0  0  0  0  0
  -19.6171   10.1181  -15.3602 C   0  0  0  0  0  0  0  0  0  0  0  0
  -20.4953    8.9907  -14.8354 C   0  0  0  0  0  0  0  0  0  0  0  0
  -20.5504    9.0075  -13.3918 N   0  0  0  0  0  0  0  0  0  0  0  0
  -19.3489    8.4316  -12.8671 C   0  0  0  0  0  0  0  0  0  0  0  0
  -18.8653    9.0240  -11.5794 C   0  0  0  0  0  0  0  0  0  0  0  0
  -19.0277   10.4096  -11.5146 O   0  0  0  0  0  0  0  0  0  0  0  0
  -20.3992   10.6336  -11.5352 C   0  0  0  0  0  0  0  0  0  0  0  0
  -20.8581   10.3280  -12.9485 C   0  0  0  0  0  0  0  0  0  0  0  0
 11 12  1  0  0  0
 12  1  1  0  0  0
  1  2  2  0  0  0
  2  3  1  0  0  0
  3  4  2  0  0  0
  4 13  1  0  0  0
 13 14  1  0  0  0
 14 15  2  0  0  0
 15 16  1  0  0  0
 16 17  2  0  0  0
 17 20  1  0  0  0
 20 21  1  0  0  0
 21 22  2  0  0  0
 21 23  1  0  0  0
 23 26  1  0  0  0
 26 27  2  0  0  0
 27 28  1  0  0  0
 28 29  2  0  0  0
 29 30  1  0  0  0
 30 31  2  0  0  0
 17 18  1  0  0  0
 18 19  2  0  0  0
  4  5  1  0  0  0
  5  6  2  0  0  0
  6  7  1  0  0  0
  7  8  2  0  0  0
  8  9  1  0  0  0
  9 10  2  0  0  0
 10 32  1  0  0  0
 32 33  1  0  0  0
 33 34  1  0  0  0
 34 35  1  0  0  0
 35 36  1  0  0  0
 36 37  1  0  0  0
 37 38  1  0  0  0
 38 39  1  0  0  0
 39 40  1  0  0  0
 40 41  1  0  0  0
 10  1  1  0  0  0
 41 36  1  0  0  0
  8  3  1  0  0  0
 19 14  1  0  0  0
 31 26  1  0  0  0
 20 24  1  0  0  0
 23 25  1  0  0  0
M  END
> <minimizedAffinity>
-7.80849

> <CNNscore>
0.4900392592

> <CNNaffinity>
6.8413991928

> <CNN_VS>
3.3525540829

> <CNNaffinity_variance>
0.0525264069

$$$$
[H]c1nc2c([H])c(OC([H])([H])C([H])([H])C([H])([H])N3C([H])([H])C([H])([H])OC([H])([H])C3([H])[H])c(OC([H])([H])[H])c([H])c2c(Oc2c([H])c([H])c(N([H])C(=O)N([H])c3c([H])c([H])c([H])c([H])c3[H])c([H])c2[H])c1[H]


 41 45  0  0  0  0  0  0  0  0999 V2000
  -20.3482   11.5701  -16.9963 C   0  0  0  0  0  0  0  0  0  0  0  0
  -19.9183   12.2640  -18.1024 C   0  0  0  0  0  0  0  0  0  0  0  0
  -18.8927   11.8817  -18.9099 C   0  0  0  0  0  0  0  0  0  0  0  0
  -18.5292   12.6367  -19.9959 C   0  0  0  0  0  0  0  0  0  0  0  0
  -17.4834   12.2137  -20.7902 C   0  0  0  0  0  0  0  0  0  0  0  0
  -16.8502   11.0361  -20.4448 C   0  0  0  0  0  0  0  0  0  0  0  0
  -17.2225   10.3133  -19.3775 N   0  0  0  0  0  0  0  0  0  0  0  0
  -18.2472   10.7047  -18.5776 C   0  0  0  0  0  0  0  0  0  0  0  0
  -18.6235    9.9555  -17.4824 C   0  0  0  0  0  0  0  0  0  0  0  0
  -19.6641   10.3806  -16.6938 C   0  0  0  0  0  0  0  0  0  0  0  0
  -21.4039   13.3576  -15.8089 C   0  0  0  0  0  0  0  0  0  0  0  0
  -21.4032   11.9962  -16.1972 O   0  0  0  0  0  0  0  0  0  0  0  0
  -19.2076   13.8294  -20.3018 O   0  0  0  0  0  0  0  0  0  0  0  0
  -19.1542   14.8872  -19.3699 C   0  0  0  0  0  0  0  0  0  0  0  0
  -20.2817   15.6203  -19.0966 C   0  0  0  0  0  0  0  0  0  0  0  0
  -20.2638   16.6569  -18.1900 C   0  0  0  0  0  0  0  0  0  0  0  0
  -19.0878   17.0140  -17.5014 C   0  0  0  0  0  0  0  0  0  0  0  0
  -17.9731   16.2682  -17.7910 C   0  0  0  0  0  0  0  0  0  0  0  0
  -17.9944   15.2105  -18.7168 C   0  0  0  0  0  0  0  0  0  0  0  0
  -19.1708   18.0668  -16.5711 N   0  0  0  0  0  0  0  0  0  0  0  0
  -20.0036   18.1597  -15.4338 C   0  0  0  0  0  0  0  0  0  0  0  0
  -20.7673   17.2173  -15.1472 O   0  0  0  0  0  0  0  0  0  0  0  0
  -20.0143   19.2886  -14.5909 N   0  0  0  0  0  0  0  0  0  0  0  0
  -18.5362   18.9229  -16.7116 H   0  0  0  0  0  0  0  0  0  0  0  0
  -19.3547   20.0790  -14.8970 H   0  0  0  0  0  0  0  0  0  0  0  0
  -20.7738   19.4743  -13.4276 C   0  0  0  0  0  0  0  0  0  0  0  0
  -20.3862   18.7333  -12.2927 C   0  0  0  0  0  0  0  0  0  0  0  0
  -21.0915   18.8398  -11.1172 C   0  0  0  0  0  0  0  0  0  0  0  0
  -22.1892   19.6736  -11.0346 C   0  0  0  0  0  0  0  0  0  0  0  0
  -22.5789   20.4030  -12.1383 C   0  0  0  0  0  0  0  0  0  0  0  0
  -21.8612   20.2947  -13.3367 C   0  0  0  0  0  0  0  0  0  0  0  0
  -20.0868    9.6879  -15.5828 O   0  0  0  0  0  0  0  0  0  0  0  0
  -19.6346    9.9868  -14.3022 C   0  0  0  0  0  0  0  0  0  0  0  0
  -19.9650    8.9486  -13.2634 C   0  0  0  0  0  0  0  0  0  0  0  0
  -18.6894    8.5879  -12.5147 C   0  0  0  0  0  0  0  0  0  0  0  0
  -18.8488    8.7924  -11.0934 N   0  0  0  0  0  0  0  0  0  0  0  0
  -17.7721    8.1509  -10.4008 C   0  0  0  0  0  0  0  0  0  0  0  0
  -17.3142    8.8400   -9.1524 C   0  0  0  0  0  0  0  0  0  0  0  0
  -17.3042   10.2322   -9.2631 O   0  0  0  0  0  0  0  0  0  0  0  0
  -18.6311   10.6102   -9.4315 C   0  0  0  0  0  0  0  0  0  0  0  0
  -19.0189   10.1850  -10.8350 C   0  0  0  0  0  0  0  0  0  0  0  0
 11 12  1  0  0  0
 12  1  1  0  0  0
  1  2  2  0  0  0
  2  3  1  0  0  0
  3  4  2  0  0  0
  4 13  1  0  0  0
 13 14  1  0  0  0
 14 15  2  0  0  0
 15 16  1  0  0  0
 16 17  2  0  0  0
 17 20  1  0  0  0
 20 21  1  0  0  0
 21 22  2  0  0  0
 21 23  1  0  0  0
 23 26  1  0  0  0
 26 27  2  0  0  0
 27 28  1  0  0  0
 28 29  2  0  0  0
 29 30  1  0  0  0
 30 31  2  0  0  0
 17 18  1  0  0  0
 18 19  2  0  0  0
  4  5  1  0  0  0
  5  6  2  0  0  0
  6  7  1  0  0  0
  7  8  2  0  0  0
  8  9  1  0  0  0
  9 10  2  0  0  0
 10 32  1  0  0  0
 32 33  1  0  0  0
 33 34  1  0  0  0
 34 35  1  0  0  0
 35 36  1  0  0  0
 36 37  1  0  0  0
 37 38  1  0  0  0
 38 39  1  0  0  0
 39 40  1  0  0  0
 40 41  1  0  0  0
 10  1  1  0  0  0
 41 36  1  0  0  0
  8  3  1  0  0  0
 19 14  1  0  0  0
 31 26  1  0  0  0
 20 24  1  0  0  0
 23 25  1  0  0  0
M  END
> <minimizedAffinity>
-7.31716

> <CNNscore>
0.3398979008

> <CNNaffinity>
6.5634355545

> <CNN_VS>
2.2308979034

> <CNNaffinity_variance>
0.1408181041

$$$$
[H]c1nc2c([H])c(OC([H])([H])C([H])([H])C([H])([H])N3C([H])([H])C([H])([H])OC([H])([H])C3([H])[H])c(OC([H])([H])[H])c([H])c2c(Oc2c([H])c([H])c(N([H])C(=O)N([H])c3c([H])c([H])c([H])c([H])c3[H])c([H])c2[H])c1[H]


 41 45  0  0  0  0  0  0  0  0999 V2000
  -20.7200    9.9982  -15.5784 C   0  0  0  0  0  0  0  0  0  0  0  0
  -20.2298   11.0819  -16.2676 C   0  0  0  0  0  0  0  0  0  0  0  0
  -19.2247   11.0315  -17.1827 C   0  0  0  0  0  0  0  0  0  0  0  0
  -18.7967   12.1653  -17.8252 C   0  0  0  0  0  0  0  0  0  0  0  0
  -17.7745   12.0714  -18.7471 C   0  0  0  0  0  0  0  0  0  0  0  0
  -17.2301   10.8234  -18.9773 C   0  0  0  0  0  0  0  0  0  0  0  0
  -17.6644    9.7273  -18.3370 N   0  0  0  0  0  0  0  0  0  0  0  0
  -18.6678    9.7891  -17.4246 C   0  0  0  0  0  0  0  0  0  0  0  0
  -19.1084    8.6572  -16.7710 C   0  0  0  0  0  0  0  0  0  0  0  0
  -20.1251    8.7552  -15.8534 C   0  0  0  0  0  0  0  0  0  0  0  0
  -23.0708   10.1368  -15.1614 C   0  0  0  0  0  0  0  0  0  0  0  0
  -21.7512   10.0932  -14.6506 O   0  0  0  0  0  0  0  0  0  0  0  0
  -19.3856   13.4122  -17.5520 O   0  0  0  0  0  0  0  0  0  0  0  0
  -19.4614   14.3590  -18.5952 C   0  0  0  0  0  0  0  0  0  0  0  0
  -20.1828   14.0773  -19.7282 C   0  0  0  0  0  0  0  0  0  0  0  0
  -20.2794   14.9809  -20.7630 C   0  0  0  0  0  0  0  0  0  0  0  0
  -19.6419   16.2360  -20.7078 C   0  0  0  0  0  0  0  0  0  0  0  0
  -18.9260   16.4956  -19.5664 C   0  0  0  0  0  0  0  0  0  0  0  0
  -18.8293   15.5713  -18.5116 C   0  0  0  0  0  0  0  0  0  0  0  0
  -19.8209   17.1072  -21.7986 N   0  0  0  0  0  0  0  0  0  0  0  0
  -21.0080   17.7522  -22.2116 C   0  0  0  0  0  0  0  0  0  0  0  0
  -22.0584   17.5918  -21.5601 O   0  0  0  0  0  0  0  0  0  0  0  0
  -21.0644   18.5838  -23.3475 N   0  0  0  0  0  0  0  0  0  0  0  0
  -18.9707   17.3328  -22.4161 H   0  0  0  0  0  0  0  0  0  0  0  0
  -20.1377   18.6682  -23.8837 H   0  0  0  0  0  0  0  0  0  0  0  0
  -22.1741   19.2919  -23.8290 C   0  0  0  0  0  0  0  0  0  0  0  0
  -22.9837   18.6332  -24.7765 C   0  0  0  0  0  0  0  0  0  0  0  0
  -24.0790   19.2653  -25.3162 C   0  0  0  0  0  0  0  0  0  0  0  0
  -24.3987   20.5541  -24.9369 C   0  0  0  0  0  0  0  0  0  0  0  0
  -23.6137   21.2095  -24.0114 C   0  0  0  0  0  0  0  0  0  0  0  0
  -22.4971   20.5663  -23.4614 C   0  0  0  0  0  0  0  0  0  0  0  0
  -20.6082    7.6697  -15.1595 O   0  0  0  0  0  0  0  0  0  0  0  0
  -19.8885    7.0582  -14.1387 C   0  0  0  0  0  0  0  0  0  0  0  0
  -20.0473    7.7030  -12.7878 C   0  0  0  0  0  0  0  0  0  0  0  0
  -18.6815    8.1812  -12.3148 C   0  0  0  0  0  0  0  0  0  0  0  0
  -18.7303    8.5991  -10.9326 N   0  0  0  0  0  0  0  0  0  0  0  0
  -17.4566    8.3614  -10.3226 C   0  0  0  0  0  0  0  0  0  0  0  0
  -17.0541    9.3537   -9.2756 C   0  0  0  0  0  0  0  0  0  0  0  0
  -17.4097   10.6662   -9.5940 O   0  0  0  0  0  0  0  0  0  0  0  0
  -18.7992   10.6899   -9.6144 C   0  0  0  0  0  0  0  0  0  0  0  0
  -19.2184    9.9378  -10.8633 C   0  0  0  0  0  0  0  0  0  0  0  0
 11 12  1  0  0  0
 12  1  1  0  0  0
  1  2  2  0  0  0
  2  3  1  0  0  0
  3  4  2  0  0  0
  4 13  1  0  0  0
 13 14  1  0  0  0
 14 15  2  0  0  0
 15 16  1  0  0  0
 16 17  2  0  0  0
 17 20  1  0  0  0
 20 21  1  0  0  0
 21 22  2  0  0  0
 21 23  1  0  0  0
 23 26  1  0  0  0
 26 27  2  0  0  0
 27 28  1  0  0  0
 28 29  2  0  0  0
 29 30  1  0  0  0
 30 31  2  0  0  0
 17 18  1  0  0  0
 18 19  2  0  0  0
  4  5  1  0  0  0
  5  6  2  0  0  0
  6  7  1  0  0  0
  7  8  2  0  0  0
  8  9  1  0  0  0
  9 10  2  0  0  0
 10 32  1  0  0  0
 32 33  1  0  0  0
 33 34  1  0  0  0
 34 35  1  0  0  0
 35 36  1  0  0  0
 36 37  1  0  0  0
 37 38  1  0  0  0
 38 39  1  0  0  0
 39 40  1  0  0  0
 40 41  1  0  0  0
 10  1  1  0  0  0
 41 36  1  0  0  0
  8  3  1  0  0  0
 19 14  1  0  0  0
 31 26  1  0  0  0
 20 24  1  0  0  0
 23 25  1  0  0  0
M  END
> <minimizedAffinity>
-7.98699

> <CNNscore>
0.2330031842

> <CNNaffinity>
6.3038854599

> <CNN_VS>
1.4688253403

> <CNNaffinity_variance>
0.0484836325

$$$$
[H]c1nc2c([H])c(OC([H])([H])C([H])([H])C([H])([H])N3C([H])([H])C([H])([H])OC([H])([H])C3([H])[H])c(OC([H])([H])[H])c([H])c2c(Oc2c([H])c([H])c(N([H])C(=O)N([H])c3c([H])c([H])c([H])c([H])c3[H])c([H])c2[H])c1[H]


 41 45  0  0  0  0  0  0  0  0999 V2000
  -20.1578   13.2678  -19.6688 C   0  0  0  0  0  0  0  0  0  0  0  0
  -19.2248   12.9550  -20.6287 C   0  0  0  0  0  0  0  0  0  0  0  0
  -18.1061   12.2121  -20.4126 C   0  0  0  0  0  0  0  0  0  0  0  0
  -17.2260   11.9477  -21.4310 C   0  0  0  0  0  0  0  0  0  0  0  0
  -16.1030   11.1896  -21.1703 C   0  0  0  0  0  0  0  0  0  0  0  0
  -15.9232   10.7308  -19.8803 C   0  0  0  0  0  0  0  0  0  0  0  0
  -16.7973   11.0019  -18.8992 N   0  0  0  0  0  0  0  0  0  0  0  0
  -17.9105   11.7453  -19.1257 C   0  0  0  0  0  0  0  0  0  0  0  0
  -18.8041   12.0190  -18.1113 C   0  0  0  0  0  0  0  0  0  0  0  0
  -19.9198   12.7747  -18.3746 C   0  0  0  0  0  0  0  0  0  0  0  0
  -21.1035   15.4266  -20.0745 C   0  0  0  0  0  0  0  0  0  0  0  0
  -21.2901   14.0305  -19.9324 O   0  0  0  0  0  0  0  0  0  0  0  0
  -17.4569   12.4409  -22.7270 O   0  0  0  0  0  0  0  0  0  0  0  0
  -17.4469   13.8381  -22.9226 C   0  0  0  0  0  0  0  0  0  0  0  0
  -18.2181   14.3997  -23.9092 C   0  0  0  0  0  0  0  0  0  0  0  0
  -18.2333   15.7600  -24.1238 C   0  0  0  0  0  0  0  0  0  0  0  0
  -17.4580   16.6386  -23.3418 C   0  0  0  0  0  0  0  0  0  0  0  0
  -16.6946   16.0551  -22.3624 C   0  0  0  0  0  0  0  0  0  0  0  0
  -16.6812   14.6662  -22.1454 C   0  0  0  0  0  0  0  0  0  0  0  0
  -17.5600   18.0159  -23.6129 N   0  0  0  0  0  0  0  0  0  0  0  0
  -18.6122   18.8945  -23.2714 C   0  0  0  0  0  0  0  0  0  0  0  0
  -19.5917   18.4674  -22.6298 O   0  0  0  0  0  0  0  0  0  0  0  0
  -18.6093   20.2574  -23.6287 N   0  0  0  0  0  0  0  0  0  0  0  0
  -16.7559   18.4922  -24.1437 H   0  0  0  0  0  0  0  0  0  0  0  0
  -17.7536   20.5660  -24.1996 H   0  0  0  0  0  0  0  0  0  0  0  0
  -19.5803   21.2198  -23.3194 C   0  0  0  0  0  0  0  0  0  0  0  0
  -20.6142   21.4021  -24.2602 C   0  0  0  0  0  0  0  0  0  0  0  0
  -21.5943   22.3419  -24.0445 C   0  0  0  0  0  0  0  0  0  0  0  0
  -21.5771   23.1196  -22.9034 C   0  0  0  0  0  0  0  0  0  0  0  0
  -20.5703   22.9513  -21.9760 C   0  0  0  0  0  0  0  0  0  0  0  0
  -19.5708   21.9943  -22.1952 C   0  0  0  0  0  0  0  0  0  0  0  0
  -20.8477   13.0927  -17.4098 O   0  0  0  0  0  0  0  0  0  0  0  0
  -20.6009   12.9170  -16.0526 C   0  0  0  0  0  0  0  0  0  0  0  0
  -21.8184   12.5815  -15.2333 C   0  0  0  0  0  0  0  0  0  0  0  0
  -21.7840   11.0968  -14.8984 C   0  0  0  0  0  0  0  0  0  0  0  0
  -20.4303   10.5925  -14.9229 N   0  0  0  0  0  0  0  0  0  0  0  0
  -20.0201   10.2772  -13.5876 C   0  0  0  0  0  0  0  0  0  0  0  0
  -19.0925    9.1080  -13.4630 C   0  0  0  0  0  0  0  0  0  0  0  0
  -19.4054    8.0608  -14.3325 O   0  0  0  0  0  0  0  0  0  0  0  0
  -19.2065    8.5584  -15.6148 C   0  0  0  0  0  0  0  0  0  0  0  0
  -20.3407    9.5322  -15.8730 C   0  0  0  0  0  0  0  0  0  0  0  0
 11 12  1  0  0  0
 12  1  1  0  0  0
  1  2  2  0  0  0
  2  3  1  0  0  0
  3  4  2  0  0  0
  4 13  1  0  0  0
 13 14  1  0  0  0
 14 15  2  0  0  0
 15 16  1  0  0  0
 16 17  2  0  0  0
 17 20  1  0  0  0
 20 21  1  0  0  0
 21 22  2  0  0  0
 21 23  1  0  0  0
 23 26  1  0  0  0
 26 27  2  0  0  0
 27 28  1  0  0  0
 28 29  2  0  0  0
 29 30  1  0  0  0
 30 31  2  0  0  0
 17 18  1  0  0  0
 18 19  2  0  0  0
  4  5  1  0  0  0
  5  6  2  0  0  0
  6  7  1  0  0  0
  7  8  2  0  0  0
  8  9  1  0  0  0
  9 10  2  0  0  0
 10 32  1  0  0  0
 32 33  1  0  0  0
 33 34  1  0  0  0
 34 35  1  0  0  0
 35 36  1  0  0  0
 36 37  1  0  0  0
 37 38  1  0  0  0
 38 39  1  0  0  0
 39 40  1  0  0  0
 40 41  1  0  0  0
 10  1  1  0  0  0
 41 36  1  0  0  0
  8  3  1  0  0  0
 19 14  1  0  0  0
 31 26  1  0  0  0
 20 24  1  0  0  0
 23 25  1  0  0  0
M  END
> <minimizedAffinity>
-7.90877

> <CNNscore>
0.2216198146

> <CNNaffinity>
6.3390874863

> <CNN_VS>
1.4048674107

> <CNNaffinity_variance>
0.3561162055

$$$$
[H]c1nc2c([H])c(OC([H])([H])C([H])([H])C([H])([H])N3C([H])([H])C([H])([H])OC([H])([H])C3([H])[H])c(OC([H])([H])[H])c([H])c2c(Oc2c([H])c([H])c(N([H])C(=O)N([H])c3c([H])c([H])c([H])c([H])c3[H])c([H])c2[H])c1[H]


 41 45  0  0  0  0  0  0  0  0999 V2000
  -17.9222   10.8851  -18.7924 C   0  0  0  0  0  0  0  0  0  0  0  0
  -17.9288   12.2338  -19.0587 C   0  0  0  0  0  0  0  0  0  0  0  0
  -18.6612   13.1569  -18.3792 C   0  0  0  0  0  0  0  0  0  0  0  0
  -18.6078   14.4862  -18.7132 C   0  0  0  0  0  0  0  0  0  0  0  0
  -19.3660   15.3908  -17.9987 C   0  0  0  0  0  0  0  0  0  0  0  0
  -20.1484   14.9025  -16.9709 C   0  0  0  0  0  0  0  0  0  0  0  0
  -20.1855   13.5975  -16.6616 N   0  0  0  0  0  0  0  0  0  0  0  0
  -19.4510   12.6844  -17.3471 C   0  0  0  0  0  0  0  0  0  0  0  0
  -19.4949   11.3446  -17.0223 C   0  0  0  0  0  0  0  0  0  0  0  0
  -18.7397   10.4475  -17.7366 C   0  0  0  0  0  0  0  0  0  0  0  0
  -16.1096   10.5025  -20.3048 C   0  0  0  0  0  0  0  0  0  0  0  0
  -17.1567    9.9743  -19.5118 O   0  0  0  0  0  0  0  0  0  0  0  0
  -17.7943   14.9297  -19.7705 O   0  0  0  0  0  0  0  0  0  0  0  0
  -18.0621   16.1946  -20.3351 C   0  0  0  0  0  0  0  0  0  0  0  0
  -17.1498   17.2118  -20.2067 C   0  0  0  0  0  0  0  0  0  0  0  0
  -17.3793   18.4569  -20.7488 C   0  0  0  0  0  0  0  0  0  0  0  0
  -18.5610   18.7452  -21.4595 C   0  0  0  0  0  0  0  0  0  0  0  0
  -19.4586   17.7139  -21.5745 C   0  0  0  0  0  0  0  0  0  0  0  0
  -19.2216   16.4439  -21.0203 C   0  0  0  0  0  0  0  0  0  0  0  0
  -18.6961   20.0358  -22.0043 N   0  0  0  0  0  0  0  0  0  0  0  0
  -19.0735   20.3905  -23.3187 C   0  0  0  0  0  0  0  0  0  0  0  0
  -19.3586   19.4998  -24.1425 O   0  0  0  0  0  0  0  0  0  0  0  0
  -19.1438   21.7289  -23.7532 N   0  0  0  0  0  0  0  0  0  0  0  0
  -18.4955   20.8806  -21.3708 H   0  0  0  0  0  0  0  0  0  0  0  0
  -18.8660   22.4532  -23.0105 H   0  0  0  0  0  0  0  0  0  0  0  0
  -19.5316   22.1934  -25.0176 C   0  0  0  0  0  0  0  0  0  0  0  0
  -20.8889   22.0324  -25.3629 C   0  0  0  0  0  0  0  0  0  0  0  0
  -21.3476   22.4404  -26.5932 C   0  0  0  0  0  0  0  0  0  0  0  0
  -20.4835   23.0123  -27.5061 C   0  0  0  0  0  0  0  0  0  0  0  0
  -19.1532   23.1744  -27.1803 C   0  0  0  0  0  0  0  0  0  0  0  0
  -18.6848   22.7583  -25.9271 C   0  0  0  0  0  0  0  0  0  0  0  0
  -18.7414    9.0972  -17.4727 O   0  0  0  0  0  0  0  0  0  0  0  0
  -19.5540    8.5302  -16.4970 C   0  0  0  0  0  0  0  0  0  0  0  0
  -18.9173    8.4226  -15.1372 C   0  0  0  0  0  0  0  0  0  0  0  0
  -19.7800    9.1785  -14.1361 C   0  0  0  0  0  0  0  0  0  0  0  0
  -19.0227    9.5175  -12.9533 N   0  0  0  0  0  0  0  0  0  0  0  0
  -19.7158   10.5379  -12.2257 C   0  0  0  0  0  0  0  0  0  0  0  0
  -19.5779   10.4667  -10.7362 C   0  0  0  0  0  0  0  0  0  0  0  0
  -19.5985    9.1605  -10.2423 O   0  0  0  0  0  0  0  0  0  0  0  0
  -18.4620    8.5431  -10.7511 C   0  0  0  0  0  0  0  0  0  0  0  0
  -18.7228    8.3254  -12.2295 C   0  0  0  0  0  0  0  0  0  0  0  0
 11 12  1  0  0  0
 12  1  1  0  0  0
  1  2  2  0  0  0
  2  3  1  0  0  0
  3  4  2  0  0  0
  4 13  1  0  0  0
 13 14  1  0  0  0
 14 15  2  0  0  0
 15 16  1  0  0  0
 16 17  2  0  0  0
 17 20  1  0  0  0
 20 21  1  0  0  0
 21 22  2  0  0  0
 21 23  1  0  0  0
 23 26  1  0  0  0
 26 27  2  0  0  0
 27 28  1  0  0  0
 28 29  2  0  0  0
 29 30  1  0  0  0
 30 31  2  0  0  0
 17 18  1  0  0  0
 18 19  2  0  0  0
  4  5  1  0  0  0
  5  6  2  0  0  0
  6  7  1  0  0  0
  7  8  2  0  0  0
  8  9  1  0  0  0
  9 10  2  0  0  0
 10 32  1  0  0  0
 32 33  1  0  0  0
 33 34  1  0  0  0
 34 35  1  0  0  0
 35 36  1  0  0  0
 36 37  1  0  0  0
 37 38  1  0  0  0
 38 39  1  0  0  0
 39 40  1  0  0  0
 40 41  1  0  0  0
 10  1  1  0  0  0
 41 36  1  0  0  0
  8  3  1  0  0  0
 19 14  1  0  0  0
 31 26  1  0  0  0
 20 24  1  0  0  0
 23 25  1  0  0  0
M  END
> <minimizedAffinity>
-7.86970

> <CNNscore>
0.1898958534

> <CNNaffinity>
6.2894449234

> <CNN_VS>
1.1943395138

> <CNNaffinity_variance>
0.0463676229

$$$$
[H]c1nc2c([H])c(OC([H])([H])C([H])([H])C([H])([H])N3C([H])([H])C([H])([H])OC([H])([H])C3([H])[H])c(OC([H])([H])[H])c([H])c2c(Oc2c([H])c([H])c(N([H])C(=O)N([H])c3c([H])c([H])c([H])c([H])c3[H])c([H])c2[H])c1[H]


 41 45  0  0  0  0  0  0  0  0999 V2000
  -16.7394   16.6749  -22.3553 C   0  0  0  0  0  0  0  0  0  0  0  0
  -16.4532   15.3402  -22.5182 C   0  0  0  0  0  0  0  0  0  0  0  0
  -17.0047   14.5370  -23.4673 C   0  0  0  0  0  0  0  0  0  0  0  0
  -16.6610   13.2122  -23.5584 C   0  0  0  0  0  0  0  0  0  0  0  0
  -17.2430   12.4315  -24.5359 C   0  0  0  0  0  0  0  0  0  0  0  0
  -18.1525   13.0343  -25.3822 C   0  0  0  0  0  0  0  0  0  0  0  0
  -18.4741   14.3324  -25.2747 N   0  0  0  0  0  0  0  0  0  0  0  0
  -17.9183   15.1249  -24.3229 C   0  0  0  0  0  0  0  0  0  0  0  0
  -18.2544   16.4587  -24.2196 C   0  0  0  0  0  0  0  0  0  0  0  0
  -17.6738   17.2319  -23.2448 C   0  0  0  0  0  0  0  0  0  0  0  0
  -16.4260   17.1164  -20.0258 C   0  0  0  0  0  0  0  0  0  0  0  0
  -16.1514   17.4615  -21.3711 O   0  0  0  0  0  0  0  0  0  0  0  0
  -15.7293   12.6484  -22.6694 O   0  0  0  0  0  0  0  0  0  0  0  0
  -16.2118   11.8385  -21.6199 C   0  0  0  0  0  0  0  0  0  0  0  0
  -15.6781   10.5911  -21.4130 C   0  0  0  0  0  0  0  0  0  0  0  0
  -16.1243    9.7772  -20.3956 C   0  0  0  0  0  0  0  0  0  0  0  0
  -17.1497   10.1860  -19.5202 C   0  0  0  0  0  0  0  0  0  0  0  0
  -17.6686   11.4358  -19.7463 C   0  0  0  0  0  0  0  0  0  0  0  0
  -17.2110   12.2646  -20.7855 C   0  0  0  0  0  0  0  0  0  0  0  0
  -17.5201    9.3006  -18.4908 N   0  0  0  0  0  0  0  0  0  0  0  0
  -18.4539    9.5148  -17.4526 C   0  0  0  0  0  0  0  0  0  0  0  0
  -19.0802   10.5910  -17.3957 O   0  0  0  0  0  0  0  0  0  0  0  0
  -18.7166    8.5527  -16.4574 N   0  0  0  0  0  0  0  0  0  0  0  0
  -17.0554    8.3319  -18.4593 H   0  0  0  0  0  0  0  0  0  0  0  0
  -18.1333    7.6549  -16.5413 H   0  0  0  0  0  0  0  0  0  0  0  0
  -19.6373    8.6475  -15.4047 C   0  0  0  0  0  0  0  0  0  0  0  0
  -20.8962    8.0466  -15.6078 C   0  0  0  0  0  0  0  0  0  0  0  0
  -21.8649    8.1130  -14.6343 C   0  0  0  0  0  0  0  0  0  0  0  0
  -21.6162    8.7705  -13.4456 C   0  0  0  0  0  0  0  0  0  0  0  0
  -20.3888    9.3632  -13.2354 C   0  0  0  0  0  0  0  0  0  0  0  0
  -19.4013    9.2965  -14.2271 C   0  0  0  0  0  0  0  0  0  0  0  0
  -17.9683   18.5657  -23.0794 O   0  0  0  0  0  0  0  0  0  0  0  0
  -19.1423   18.9994  -22.4733 C   0  0  0  0  0  0  0  0  0  0  0  0
  -20.2902   19.2232  -23.4209 C   0  0  0  0  0  0  0  0  0  0  0  0
  -21.3940   18.2284  -23.0898 C   0  0  0  0  0  0  0  0  0  0  0  0
  -22.6323   18.5956  -23.7373 N   0  0  0  0  0  0  0  0  0  0  0  0
  -22.6433   20.0090  -23.9675 C   0  0  0  0  0  0  0  0  0  0  0  0
  -23.3495   20.4484  -25.2129 C   0  0  0  0  0  0  0  0  0  0  0  0
  -23.1370   19.5948  -26.2977 O   0  0  0  0  0  0  0  0  0  0  0  0
  -23.7195   18.3824  -25.9478 C   0  0  0  0  0  0  0  0  0  0  0  0
  -22.8244   17.7719  -24.8861 C   0  0  0  0  0  0  0  0  0  0  0  0
 11 12  1  0  0  0
 12  1  1  0  0  0
  1  2  2  0  0  0
  2  3  1  0  0  0
  3  4  2  0  0  0
  4 13  1  0  0  0
 13 14  1  0  0  0
 14 15  2  0  0  0
 15 16  1  0  0  0
 16 17  2  0  0  0
 17 20  1  0  0  0
 20 21  1  0  0  0
 21 22  2  0  0  0
 21 23  1  0  0  0
 23 26  1  0  0  0
 26 27  2  0  0  0
 27 28  1  0  0  0
 28 29  2  0  0  0
 29 30  1  0  0  0
 30 31  2  0  0  0
 17 18  1  0  0  0
 18 19  2  0  0  0
  4  5  1  0  0  0
  5  6  2  0  0  0
  6  7  1  0  0  0
  7  8  2  0  0  0
  8  9  1  0  0  0
  9 10  2  0  0  0
 10 32  1  0  0  0
 32 33  1  0  0  0
 33 34  1  0  0  0
 34 35  1  0  0  0
 35 36  1  0  0  0
 36 37  1  0  0  0
 37 38  1  0  0  0
 38 39  1  0  0  0
 39 40  1  0  0  0
 40 41  1  0  0  0
 10  1  1  0  0  0
 41 36  1  0  0  0
  8  3  1  0  0  0
 19 14  1  0  0  0
 31 26  1  0  0  0
 20 24  1  0  0  0
 23 25  1  0  0  0
M  END
> <minimizedAffinity>
-8.39865

> <CNNscore>
0.1664782166

> <CNNaffinity>
6.5019102097

> <CNN_VS>
1.0824264288

> <CNNaffinity_variance>
0.2815763354

$$$$
[H]C([H])=C([H])C(=O)N([H])c1c([H])c([H])c(Oc2c([H])c([H])nc3c([H])c(OC([H])([H])C([H])([H])C([H])([H])N4C([H])([H])C([H])([H])N(C([H])([H])[H])C([H])([H])C4([H])[H])c(OC([H])([H])[H])c([H])c23)c([H])c1[H]


 36 39  0  0  0  0  0  0  0  0999 V2000
  -19.2961   12.0270  -17.8302 C   0  0  0  0  0  0  0  0  0  0  0  0
  -18.6364   12.4600  -18.9484 C   0  0  0  0  0  0  0  0  0  0  0  0
  -17.7189   11.6404  -19.5760 C   0  0  0  0  0  0  0  0  0  0  0  0
  -17.0616   12.1009  -20.7313 C   0  0  0  0  0  0  0  0  0  0  0  0
  -16.1551   11.2923  -21.3777 C   0  0  0  0  0  0  0  0  0  0  0  0
  -15.9321   10.0314  -20.8386 C   0  0  0  0  0  0  0  0  0  0  0  0
  -16.5802    9.6258  -19.7291 N   0  0  0  0  0  0  0  0  0  0  0  0
  -17.4686   10.3960  -19.0815 C   0  0  0  0  0  0  0  0  0  0  0  0
  -18.1333    9.9533  -17.9472 C   0  0  0  0  0  0  0  0  0  0  0  0
  -19.0743   10.7424  -17.2705 C   0  0  0  0  0  0  0  0  0  0  0  0
  -19.8702   14.1827  -16.9110 C   0  0  0  0  0  0  0  0  0  0  0  0
  -20.2346   12.8231  -17.1592 O   0  0  0  0  0  0  0  0  0  0  0  0
  -17.3745   13.3500  -21.1346 O   0  0  0  0  0  0  0  0  0  0  0  0
  -17.1839   13.9164  -22.3429 C   0  0  0  0  0  0  0  0  0  0  0  0
  -18.2125   14.3960  -23.1235 C   0  0  0  0  0  0  0  0  0  0  0  0
  -17.9984   14.9580  -24.3629 C   0  0  0  0  0  0  0  0  0  0  0  0
  -16.7356   15.0571  -24.8605 C   0  0  0  0  0  0  0  0  0  0  0  0
  -15.6746   14.5779  -24.0842 C   0  0  0  0  0  0  0  0  0  0  0  0
  -15.8812   14.0242  -22.8655 C   0  0  0  0  0  0  0  0  0  0  0  0
  -16.4693   15.6067  -26.1180 N   0  0  0  0  0  0  0  0  0  0  0  0
  -16.5409   14.9022  -27.3279 C   0  0  0  0  0  0  0  0  0  0  0  0
  -16.8962   13.6830  -27.3094 O   0  0  0  0  0  0  0  0  0  0  0  0
  -16.1885   16.6437  -26.1226 H   0  0  0  0  0  0  0  0  0  0  0  0
  -16.2204   15.5340  -28.5832 C   0  0  0  0  0  0  0  0  0  0  0  0
  -15.0122   15.8716  -28.9230 C   0  0  0  0  0  0  0  0  0  0  0  0
  -19.7174   10.3947  -16.2234 O   0  0  0  0  0  0  0  0  0  0  0  0
  -20.3768   10.0397  -15.1426 C   0  0  0  0  0  0  0  0  0  0  0  0
  -20.2561   11.0979  -14.0851 C   0  0  0  0  0  0  0  0  0  0  0  0
  -21.4202   11.7975  -13.5605 C   0  0  0  0  0  0  0  0  0  0  0  0
  -22.6190   11.0256  -13.3652 N   0  0  0  0  0  0  0  0  0  0  0  0
  -23.7321   11.7191  -14.0197 C   0  0  0  0  0  0  0  0  0  0  0  0
  -25.0821   11.2370  -13.7563 C   0  0  0  0  0  0  0  0  0  0  0  0
  -25.2569   10.5985  -12.4677 N   0  0  0  0  0  0  0  0  0  0  0  0
  -25.4264    9.1892  -12.5196 C   0  0  0  0  0  0  0  0  0  0  0  0
  -24.3012   11.0761  -11.5197 C   0  0  0  0  0  0  0  0  0  0  0  0
  -22.9306   10.7216  -11.9948 C   0  0  0  0  0  0  0  0  0  0  0  0
 11 12  1  0  0  0
 12  1  1  0  0  0
  1  2  2  0  0  0
  2  3  1  0  0  0
  3  4  2  0  0  0
  4 13  1  0  0  0
 13 14  1  0  0  0
 14 15  2  0  0  0
 15 16  1  0  0  0
 16 17  2  0  0  0
 17 20  1  0  0  0
 20 21  1  0  0  0
 21 22  2  0  0  0
 21 24  1  0  0  0
 24 25  2  0  0  0
 17 18  1  0  0  0
 18 19  2  0  0  0
  4  5  1  0  0  0
  5  6  2  0  0  0
  6  7  1  0  0  0
  7  8  2  0  0  0
  8  9  1  0  0  0
  9 10  2  0  0  0
 10 26  1  0  0  0
 26 27  1  0  0  0
 27 28  1  0  0  0
 28 29  1  0  0  0
 29 30  1  0  0  0
 30 31  1  0  0  0
 31 32  1  0  0  0
 32 33  1  0  0  0
 33 34  1  0  0  0
 33 35  1  0  0  0
 35 36  1  0  0  0
 10  1  1  0  0  0
 36 30  1  0  0  0
  8  3  1  0  0  0
 19 14  1  0  0  0
 20 23  1  0  0  0
M  END
> <minimizedAffinity>
-6.88238

> <CNNscore>
0.8132602572

> <CNNaffinity>
6.9093704224

> <CNN_VS>
5.6191163063

> <CNNaffinity_variance>
0.0798503757

$$$$
[H]C([H])=C([H])C(=O)N([H])c1c([H])c([H])c(Oc2c([H])c([H])nc3c([H])c(OC([H])([H])C([H])([H])C([H])([H])N4C([H])([H])C([H])([H])N(C([H])([H])[H])C([H])([H])C4([H])[H])c(OC([H])([H])[H])c([H])c23)c([H])c1[H]


 36 39  0  0  0  0  0  0  0  0999 V2000
  -19.1451   11.4387  -18.1908 C   0  0  0  0  0  0  0  0  0  0  0  0
  -19.0823   12.3962  -19.1666 C   0  0  0  0  0  0  0  0  0  0  0  0
  -18.1581   12.2898  -20.1873 C   0  0  0  0  0  0  0  0  0  0  0  0
  -18.1195   13.2789  -21.1869 C   0  0  0  0  0  0  0  0  0  0  0  0
  -17.2149   13.1814  -22.2192 C   0  0  0  0  0  0  0  0  0  0  0  0
  -16.3656   12.0819  -22.2169 C   0  0  0  0  0  0  0  0  0  0  0  0
  -16.4315   11.1553  -21.2411 N   0  0  0  0  0  0  0  0  0  0  0  0
  -17.3050   11.2283  -20.2245 C   0  0  0  0  0  0  0  0  0  0  0  0
  -17.3634   10.2562  -19.2366 C   0  0  0  0  0  0  0  0  0  0  0  0
  -18.2812   10.3134  -18.1780 C   0  0  0  0  0  0  0  0  0  0  0  0
  -20.0842   12.7100  -16.3677 C   0  0  0  0  0  0  0  0  0  0  0  0
  -20.0651   11.5044  -17.1354 O   0  0  0  0  0  0  0  0  0  0  0  0
  -19.0009   14.2920  -21.0543 O   0  0  0  0  0  0  0  0  0  0  0  0
  -19.0687   15.2267  -20.0854 C   0  0  0  0  0  0  0  0  0  0  0  0
  -20.2555   15.7511  -19.6229 C   0  0  0  0  0  0  0  0  0  0  0  0
  -20.3031   16.7172  -18.6420 C   0  0  0  0  0  0  0  0  0  0  0  0
  -19.1521   17.1899  -18.0906 C   0  0  0  0  0  0  0  0  0  0  0  0
  -17.9344   16.6705  -18.5438 C   0  0  0  0  0  0  0  0  0  0  0  0
  -17.8836   15.7211  -19.5083 C   0  0  0  0  0  0  0  0  0  0  0  0
  -19.1485   18.1792  -17.1029 N   0  0  0  0  0  0  0  0  0  0  0  0
  -19.3674   17.9448  -15.7382 C   0  0  0  0  0  0  0  0  0  0  0  0
  -19.5594   16.7535  -15.3420 O   0  0  0  0  0  0  0  0  0  0  0  0
  -18.9659   19.1802  -17.4477 H   0  0  0  0  0  0  0  0  0  0  0  0
  -19.3783   19.0255  -14.7844 C   0  0  0  0  0  0  0  0  0  0  0  0
  -20.0077   18.9674  -13.6489 C   0  0  0  0  0  0  0  0  0  0  0  0
  -18.3844    9.4537  -17.2392 O   0  0  0  0  0  0  0  0  0  0  0  0
  -18.4897    8.5722  -16.2694 C   0  0  0  0  0  0  0  0  0  0  0  0
  -19.1637    9.1850  -15.0765 C   0  0  0  0  0  0  0  0  0  0  0  0
  -19.8660    8.3767  -14.0900 C   0  0  0  0  0  0  0  0  0  0  0  0
  -20.3712    9.0530  -12.9245 N   0  0  0  0  0  0  0  0  0  0  0  0
  -20.7140   10.4289  -13.2955 C   0  0  0  0  0  0  0  0  0  0  0  0
  -21.0291   11.3636  -12.2225 C   0  0  0  0  0  0  0  0  0  0  0  0
  -20.3883   11.0713  -10.9565 N   0  0  0  0  0  0  0  0  0  0  0  0
  -21.2588   10.5777   -9.9484 C   0  0  0  0  0  0  0  0  0  0  0  0
  -19.1772   10.3383  -11.1467 C   0  0  0  0  0  0  0  0  0  0  0  0
  -19.5013    9.0254  -11.7799 C   0  0  0  0  0  0  0  0  0  0  0  0
 11 12  1  0  0  0
 12  1  1  0  0  0
  1  2  2  0  0  0
  2  3  1  0  0  0
  3  4  2  0  0  0
  4 13  1  0  0  0
 13 14  1  0  0  0
 14 15  2  0  0  0
 15 16  1  0  0  0
 16 17  2  0  0  0
 17 20  1  0  0  0
 20 21  1  0  0  0
 21 22  2  0  0  0
 21 24  1  0  0  0
 24 25  2  0  0  0
 17 18  1  0  0  0
 18 19  2  0  0  0
  4  5  1  0  0  0
  5  6  2  0  0  0
  6  7  1  0  0  0
  7  8  2  0  0  0
  8  9  1  0  0  0
  9 10  2  0  0  0
 10 26  1  0  0  0
 26 27  1  0  0  0
 27 28  1  0  0  0
 28 29  1  0  0  0
 29 30  1  0  0  0
 30 31  1  0  0  0
 31 32  1  0  0  0
 32 33  1  0  0  0
 33 34  1  0  0  0
 33 35  1  0  0  0
 35 36  1  0  0  0
 10  1  1  0  0  0
 36 30  1  0  0  0
  8  3  1  0  0  0
 19 14  1  0  0  0
 20 23  1  0  0  0
M  END
> <minimizedAffinity>
-7.05020

> <CNNscore>
0.6194902658

> <CNNaffinity>
6.9230470657

> <CNN_VS>
4.2887601852

> <CNNaffinity_variance>
0.0823300928

$$$$
[H]C([H])=C([H])C(=O)N([H])c1c([H])c([H])c(Oc2c([H])c([H])nc3c([H])c(OC([H])([H])C([H])([H])C([H])([H])N4C([H])([H])C([H])([H])N(C([H])([H])[H])C([H])([H])C4([H])[H])c(OC([H])([H])[H])c([H])c23)c([H])c1[H]


 36 39  0  0  0  0  0  0  0  0999 V2000
  -18.7077   11.7407  -18.1555 C   0  0  0  0  0  0  0  0  0  0  0  0
  -18.5861   12.7632  -19.0570 C   0  0  0  0  0  0  0  0  0  0  0  0
  -17.8180   12.6013  -20.1933 C   0  0  0  0  0  0  0  0  0  0  0  0
  -17.7170   13.6611  -21.1127 C   0  0  0  0  0  0  0  0  0  0  0  0
  -16.9679   13.5123  -22.2573 C   0  0  0  0  0  0  0  0  0  0  0  0
  -16.3343   12.2905  -22.4466 C   0  0  0  0  0  0  0  0  0  0  0  0
  -16.4535   11.2987  -21.5424 N   0  0  0  0  0  0  0  0  0  0  0  0
  -17.1784   11.4199  -20.4192 C   0  0  0  0  0  0  0  0  0  0  0  0
  -17.2970   10.3811  -19.5075 C   0  0  0  0  0  0  0  0  0  0  0  0
  -18.0633   10.4900  -18.3382 C   0  0  0  0  0  0  0  0  0  0  0  0
  -20.5603   12.7883  -17.0189 C   0  0  0  0  0  0  0  0  0  0  0  0
  -19.4750   11.8586  -16.9884 O   0  0  0  0  0  0  0  0  0  0  0  0
  -18.3821   14.7907  -20.7924 O   0  0  0  0  0  0  0  0  0  0  0  0
  -18.4496   15.9500  -21.4769 C   0  0  0  0  0  0  0  0  0  0  0  0
  -19.1208   16.0840  -22.6722 C   0  0  0  0  0  0  0  0  0  0  0  0
  -19.1654   17.2743  -23.3644 C   0  0  0  0  0  0  0  0  0  0  0  0
  -18.5333   18.3752  -22.8739 C   0  0  0  0  0  0  0  0  0  0  0  0
  -17.8463   18.2631  -21.6600 C   0  0  0  0  0  0  0  0  0  0  0  0
  -17.7997   17.0945  -20.9771 C   0  0  0  0  0  0  0  0  0  0  0  0
  -18.5384   19.6009  -23.5462 N   0  0  0  0  0  0  0  0  0  0  0  0
  -19.5588   20.5576  -23.4531 C   0  0  0  0  0  0  0  0  0  0  0  0
  -20.5479   20.3294  -22.6897 O   0  0  0  0  0  0  0  0  0  0  0  0
  -17.6874   19.7908  -24.1739 H   0  0  0  0  0  0  0  0  0  0  0  0
  -19.5046   21.7868  -24.2040 C   0  0  0  0  0  0  0  0  0  0  0  0
  -20.3679   22.7477  -24.0614 C   0  0  0  0  0  0  0  0  0  0  0  0
  -18.2112    9.5739  -17.4608 O   0  0  0  0  0  0  0  0  0  0  0  0
  -18.3590    8.6289  -16.5586 C   0  0  0  0  0  0  0  0  0  0  0  0
  -19.8110    8.4470  -16.2249 C   0  0  0  0  0  0  0  0  0  0  0  0
  -20.2464    7.9625  -14.9228 C   0  0  0  0  0  0  0  0  0  0  0  0
  -20.6333    8.9493  -13.9493 N   0  0  0  0  0  0  0  0  0  0  0  0
  -21.4653    9.9574  -14.6124 C   0  0  0  0  0  0  0  0  0  0  0  0
  -21.7803   11.1725  -13.8717 C   0  0  0  0  0  0  0  0  0  0  0  0
  -20.7899   11.5552  -12.8859 N   0  0  0  0  0  0  0  0  0  0  0  0
  -21.1890   11.3651  -11.5360 C   0  0  0  0  0  0  0  0  0  0  0  0
  -19.4973   11.0539  -13.2295 C   0  0  0  0  0  0  0  0  0  0  0  0
  -19.5443    9.5614  -13.2373 C   0  0  0  0  0  0  0  0  0  0  0  0
 11 12  1  0  0  0
 12  1  1  0  0  0
  1  2  2  0  0  0
  2  3  1  0  0  0
  3  4  2  0  0  0
  4 13  1  0  0  0
 13 14  1  0  0  0
 14 15  2  0  0  0
 15 16  1  0  0  0
 16 17  2  0  0  0
 17 20  1  0  0  0
 20 21  1  0  0  0
 21 22  2  0  0  0
 21 24  1  0  0  0
 24 25  2  0  0  0
 17 18  1  0  0  0
 18 19  2  0  0  0
  4  5  1  0  0  0
  5  6  2  0  0  0
  6  7  1  0  0  0
  7  8  2  0  0  0
  8  9  1  0  0  0
  9 10  2  0  0  0
 10 26  1  0  0  0
 26 27  1  0  0  0
 27 28  1  0  0  0
 28 29  1  0  0  0
 29 30  1  0  0  0
 30 31  1  0  0  0
 31 32  1  0  0  0
 32 33  1  0  0  0
 33 34  1  0  0  0
 33 35  1  0  0  0
 35 36  1  0  0  0
 10  1  1  0  0  0
 36 30  1  0  0  0
  8  3  1  0  0  0
 19 14  1  0  0  0
 20 23  1  0  0  0
M  END
> <minimizedAffinity>
-7.06267

> <CNNscore>
0.5847792029

> <CNNaffinity>
6.7603578568

> <CNN_VS>
3.9533166885

> <CNNaffinity_variance>
0.0300000794

$$$$
[H]C([H])=C([H])C(=O)N([H])c1c([H])c([H])c(Oc2c([H])c([H])nc3c([H])c(OC([H])([H])C([H])([H])C([H])([H])N4C([H])([H])C([H])([H])N(C([H])([H])[H])C([H])([H])C4([H])[H])c(OC([H])([H])[H])c([H])c23)c([H])c1[H]


 36 39  0  0  0  0  0  0  0  0999 V2000
  -19.1502   11.9227  -18.2312 C   0  0  0  0  0  0  0  0  0  0  0  0
  -19.1285   12.9485  -19.1368 C   0  0  0  0  0  0  0  0  0  0  0  0
  -18.3204   12.8731  -20.2543 C   0  0  0  0  0  0  0  0  0  0  0  0
  -18.3231   13.9334  -21.1787 C   0  0  0  0  0  0  0  0  0  0  0  0
  -17.5352   13.8687  -22.3048 C   0  0  0  0  0  0  0  0  0  0  0  0
  -16.7583   12.7291  -22.4712 C   0  0  0  0  0  0  0  0  0  0  0  0
  -16.7812   11.7341  -21.5629 N   0  0  0  0  0  0  0  0  0  0  0  0
  -17.5414   11.7740  -20.4573 C   0  0  0  0  0  0  0  0  0  0  0  0
  -17.5585   10.7325  -19.5412 C   0  0  0  0  0  0  0  0  0  0  0  0
  -18.3593   10.7557  -18.3904 C   0  0  0  0  0  0  0  0  0  0  0  0
  -20.8230   13.0789  -16.9325 C   0  0  0  0  0  0  0  0  0  0  0  0
  -19.9531   11.9547  -17.0826 O   0  0  0  0  0  0  0  0  0  0  0  0
  -19.1235   14.9784  -20.8815 O   0  0  0  0  0  0  0  0  0  0  0  0
  -18.8634   16.2962  -20.9947 C   0  0  0  0  0  0  0  0  0  0  0  0
  -18.0700   16.9889  -20.1070 C   0  0  0  0  0  0  0  0  0  0  0  0
  -17.8284   18.3395  -20.2314 C   0  0  0  0  0  0  0  0  0  0  0  0
  -18.3794   19.0414  -21.2589 C   0  0  0  0  0  0  0  0  0  0  0  0
  -19.1877   18.3580  -22.1742 C   0  0  0  0  0  0  0  0  0  0  0  0
  -19.4280   17.0305  -22.0547 C   0  0  0  0  0  0  0  0  0  0  0  0
  -18.1748   20.4149  -21.4195 N   0  0  0  0  0  0  0  0  0  0  0  0
  -19.0509   21.4105  -20.9651 C   0  0  0  0  0  0  0  0  0  0  0  0
  -20.0996   21.0666  -20.3367 O   0  0  0  0  0  0  0  0  0  0  0  0
  -17.2749   20.6941  -21.9357 H   0  0  0  0  0  0  0  0  0  0  0  0
  -18.7832   22.8076  -21.1976 C   0  0  0  0  0  0  0  0  0  0  0  0
  -19.4287   23.5211  -22.0712 C   0  0  0  0  0  0  0  0  0  0  0  0
  -18.4190    9.8323  -17.5101 O   0  0  0  0  0  0  0  0  0  0  0  0
  -18.4763    8.8799  -16.6055 C   0  0  0  0  0  0  0  0  0  0  0  0
  -19.8094    8.8930  -15.9159 C   0  0  0  0  0  0  0  0  0  0  0  0
  -20.5488    7.6679  -15.6476 C   0  0  0  0  0  0  0  0  0  0  0  0
  -20.9622    7.4330  -14.2893 N   0  0  0  0  0  0  0  0  0  0  0  0
  -19.9261    6.6447  -13.6160 C   0  0  0  0  0  0  0  0  0  0  0  0
  -20.2366    6.0953  -12.3022 C   0  0  0  0  0  0  0  0  0  0  0  0
  -21.6421    5.8281  -12.0737 N   0  0  0  0  0  0  0  0  0  0  0  0
  -22.2787    6.7203  -11.1702 C   0  0  0  0  0  0  0  0  0  0  0  0
  -22.3300    5.5907  -13.3028 C   0  0  0  0  0  0  0  0  0  0  0  0
  -22.2558    6.8224  -14.1438 C   0  0  0  0  0  0  0  0  0  0  0  0
 11 12  1  0  0  0
 12  1  1  0  0  0
  1  2  2  0  0  0
  2  3  1  0  0  0
  3  4  2  0  0  0
  4 13  1  0  0  0
 13 14  1  0  0  0
 14 15  2  0  0  0
 15 16  1  0  0  0
 16 17  2  0  0  0
 17 20  1  0  0  0
 20 21  1  0  0  0
 21 22  2  0  0  0
 21 24  1  0  0  0
 24 25  2  0  0  0
 17 18  1  0  0  0
 18 19  2  0  0  0
  4  5  1  0  0  0
  5  6  2  0  0  0
  6  7  1  0  0  0
  7  8  2  0  0  0
  8  9  1  0  0  0
  9 10  2  0  0  0
 10 26  1  0  0  0
 26 27  1  0  0  0
 27 28  1  0  0  0
 28 29  1  0  0  0
 29 30  1  0  0  0
 30 31  1  0  0  0
 31 32  1  0  0  0
 32 33  1  0  0  0
 33 34  1  0  0  0
 33 35  1  0  0  0
 35 36  1  0  0  0
 10  1  1  0  0  0
 36 30  1  0  0  0
  8  3  1  0  0  0
 19 14  1  0  0  0
 20 23  1  0  0  0
M  END
> <minimizedAffinity>
-6.69343

> <CNNscore>
0.4694203436

> <CNNaffinity>
6.5477952957

> <CNN_VS>
3.0736682415

> <CNNaffinity_variance>
0.1383793801

$$$$
[H]C([H])=C([H])C(=O)N([H])c1c([H])c([H])c(Oc2c([H])c([H])nc3c([H])c(OC([H])([H])C([H])([H])C([H])([H])N4C([H])([H])C([H])([H])N(C([H])([H])[H])C([H])([H])C4([H])[H])c(OC([H])([H])[H])c([H])c23)c([H])c1[H]


 36 39  0  0  0  0  0  0  0  0999 V2000
  -19.7977   10.5962  -16.2261 C   0  0  0  0  0  0  0  0  0  0  0  0
  -19.4887   11.6798  -17.0027 C   0  0  0  0  0  0  0  0  0  0  0  0
  -18.6325   11.5439  -18.0778 C   0  0  0  0  0  0  0  0  0  0  0  0
  -18.3386   12.6684  -18.8701 C   0  0  0  0  0  0  0  0  0  0  0  0
  -17.4990   12.5483  -19.9537 C   0  0  0  0  0  0  0  0  0  0  0  0
  -16.9727   11.2888  -20.2122 C   0  0  0  0  0  0  0  0  0  0  0  0
  -17.2766   10.2350  -19.4294 N   0  0  0  0  0  0  0  0  0  0  0  0
  -18.0928   10.3272  -18.3677 C   0  0  0  0  0  0  0  0  0  0  0  0
  -18.4015    9.2261  -17.5824 C   0  0  0  0  0  0  0  0  0  0  0  0
  -19.2642    9.3063  -16.4800 C   0  0  0  0  0  0  0  0  0  0  0  0
  -21.2170   11.9714  -14.8419 C   0  0  0  0  0  0  0  0  0  0  0  0
  -20.6605   10.6856  -15.1250 O   0  0  0  0  0  0  0  0  0  0  0  0
  -18.9178   13.8277  -18.4943 O   0  0  0  0  0  0  0  0  0  0  0  0
  -19.5226   14.7544  -19.2641 C   0  0  0  0  0  0  0  0  0  0  0  0
  -18.8531   15.8096  -19.8433 C   0  0  0  0  0  0  0  0  0  0  0  0
  -19.4922   16.7553  -20.6147 C   0  0  0  0  0  0  0  0  0  0  0  0
  -20.8332   16.6697  -20.8307 C   0  0  0  0  0  0  0  0  0  0  0  0
  -21.5340   15.6049  -20.2535 C   0  0  0  0  0  0  0  0  0  0  0  0
  -20.9091   14.6737  -19.4940 C   0  0  0  0  0  0  0  0  0  0  0  0
  -21.5283   17.6120  -21.5943 N   0  0  0  0  0  0  0  0  0  0  0  0
  -22.1082   18.7817  -21.0836 C   0  0  0  0  0  0  0  0  0  0  0  0
  -21.9847   19.0395  -19.8462 O   0  0  0  0  0  0  0  0  0  0  0  0
  -21.6096   17.3925  -22.6428 H   0  0  0  0  0  0  0  0  0  0  0  0
  -22.8370   19.6897  -21.9334 C   0  0  0  0  0  0  0  0  0  0  0  0
  -23.4427   19.3168  -23.0211 C   0  0  0  0  0  0  0  0  0  0  0  0
  -19.5865    8.3330  -15.7185 O   0  0  0  0  0  0  0  0  0  0  0  0
  -19.9155    7.3328  -14.9310 C   0  0  0  0  0  0  0  0  0  0  0  0
  -21.2355    6.7519  -15.3470 C   0  0  0  0  0  0  0  0  0  0  0  0
  -22.2947    6.4821  -14.3852 C   0  0  0  0  0  0  0  0  0  0  0  0
  -23.3807    7.4242  -14.3211 N   0  0  0  0  0  0  0  0  0  0  0  0
  -23.2837    8.3270  -15.4716 C   0  0  0  0  0  0  0  0  0  0  0  0
  -24.1449    9.5028  -15.4873 C   0  0  0  0  0  0  0  0  0  0  0  0
  -24.5133   10.0017  -14.1780 N   0  0  0  0  0  0  0  0  0  0  0  0
  -25.8675    9.7754  -13.8139 C   0  0  0  0  0  0  0  0  0  0  0  0
  -23.5374    9.6488  -13.1965 C   0  0  0  0  0  0  0  0  0  0  0  0
  -23.4756    8.1607  -13.0898 C   0  0  0  0  0  0  0  0  0  0  0  0
 11 12  1  0  0  0
 12  1  1  0  0  0
  1  2  2  0  0  0
  2  3  1  0  0  0
  3  4  2  0  0  0
  4 13  1  0  0  0
 13 14  1  0  0  0
 14 15  2  0  0  0
 15 16  1  0  0  0
 16 17  2  0  0  0
 17 20  1  0  0  0
 20 21  1  0  0  0
 21 22  2  0  0  0
 21 24  1  0  0  0
 24 25  2  0  0  0
 17 18  1  0  0  0
 18 19  2  0  0  0
  4  5  1  0  0  0
  5  6  2  0  0  0
  6  7  1  0  0  0
  7  8  2  0  0  0
  8  9  1  0  0  0
  9 10  2  0  0  0
 10 26  1  0  0  0
 26 27  1  0  0  0
 27 28  1  0  0  0
 28 29  1  0  0  0
 29 30  1  0  0  0
 30 31  1  0  0  0
 31 32  1  0  0  0
 32 33  1  0  0  0
 33 34  1  0  0  0
 33 35  1  0  0  0
 35 36  1  0  0  0
 10  1  1  0  0  0
 36 30  1  0  0  0
  8  3  1  0  0  0
 19 14  1  0  0  0
 20 23  1  0  0  0
M  END
> <minimizedAffinity>
-6.30809

> <CNNscore>
0.4279580414

> <CNNaffinity>
6.3669924736

> <CNN_VS>
2.7248055935

> <CNNaffinity_variance>
0.0511323325

$$$$
[H]C([H])=C([H])C(=O)N([H])c1c([H])c([H])c(Oc2c([H])c([H])nc3c([H])c(OC([H])([H])C([H])([H])C([H])([H])N4C([H])([H])C([H])([H])N(C([H])([H])[H])C([H])([H])C4([H])[H])c(OC([H])([H])[H])c([H])c23)c([H])c1[H]


 36 39  0  0  0  0  0  0  0  0999 V2000
  -19.1732   12.0850  -18.0059 C   0  0  0  0  0  0  0  0  0  0  0  0
  -19.1045   13.1730  -18.8332 C   0  0  0  0  0  0  0  0  0  0  0  0
  -18.3772   13.1107  -20.0056 C   0  0  0  0  0  0  0  0  0  0  0  0
  -18.3305   14.2368  -20.8474 C   0  0  0  0  0  0  0  0  0  0  0  0
  -17.6227   14.1878  -22.0264 C   0  0  0  0  0  0  0  0  0  0  0  0
  -16.9748   12.9966  -22.3285 C   0  0  0  0  0  0  0  0  0  0  0  0
  -17.0416   11.9391  -21.4962 N   0  0  0  0  0  0  0  0  0  0  0  0
  -17.7255   11.9626  -20.3414 C   0  0  0  0  0  0  0  0  0  0  0  0
  -17.7905   10.8577  -19.5052 C   0  0  0  0  0  0  0  0  0  0  0  0
  -18.5136   10.8648  -18.3039 C   0  0  0  0  0  0  0  0  0  0  0  0
  -20.7027   13.2547  -16.5519 C   0  0  0  0  0  0  0  0  0  0  0  0
  -19.8977   12.1012  -16.8060 O   0  0  0  0  0  0  0  0  0  0  0  0
  -19.0033   15.3259  -20.4204 O   0  0  0  0  0  0  0  0  0  0  0  0
  -19.6692   16.2430  -21.1501 C   0  0  0  0  0  0  0  0  0  0  0  0
  -20.9338   16.6875  -20.8335 C   0  0  0  0  0  0  0  0  0  0  0  0
  -21.6041   17.6147  -21.6009 C   0  0  0  0  0  0  0  0  0  0  0  0
  -21.0208   18.1286  -22.7180 C   0  0  0  0  0  0  0  0  0  0  0  0
  -19.7353   17.6928  -23.0584 C   0  0  0  0  0  0  0  0  0  0  0  0
  -19.0736   16.7810  -22.3067 C   0  0  0  0  0  0  0  0  0  0  0  0
  -21.6658   19.0608  -23.5359 N   0  0  0  0  0  0  0  0  0  0  0  0
  -22.5256   18.7341  -24.5938 C   0  0  0  0  0  0  0  0  0  0  0  0
  -22.7728   17.5109  -24.8299 O   0  0  0  0  0  0  0  0  0  0  0  0
  -21.4640   20.0926  -23.3142 H   0  0  0  0  0  0  0  0  0  0  0  0
  -23.1291   19.7558  -25.4121 C   0  0  0  0  0  0  0  0  0  0  0  0
  -22.4405   20.6220  -26.0937 C   0  0  0  0  0  0  0  0  0  0  0  0
  -18.6115    9.8840  -17.4917 O   0  0  0  0  0  0  0  0  0  0  0  0
  -18.7074    8.8740  -16.6553 C   0  0  0  0  0  0  0  0  0  0  0  0
  -19.2947    9.3290  -15.3512 C   0  0  0  0  0  0  0  0  0  0  0  0
  -19.4181    8.4343  -14.2092 C   0  0  0  0  0  0  0  0  0  0  0  0
  -19.0751    8.9660  -12.9167 N   0  0  0  0  0  0  0  0  0  0  0  0
  -19.7447    8.1632  -11.8894 C   0  0  0  0  0  0  0  0  0  0  0  0
  -19.7245    8.6593  -10.5190 C   0  0  0  0  0  0  0  0  0  0  0  0
  -19.6351   10.1001  -10.3974 N   0  0  0  0  0  0  0  0  0  0  0  0
  -18.3806   10.5822   -9.9376 C   0  0  0  0  0  0  0  0  0  0  0  0
  -20.1667   10.7508  -11.5525 C   0  0  0  0  0  0  0  0  0  0  0  0
  -19.3503   10.3665  -12.7423 C   0  0  0  0  0  0  0  0  0  0  0  0
 11 12  1  0  0  0
 12  1  1  0  0  0
  1  2  2  0  0  0
  2  3  1  0  0  0
  3  4  2  0  0  0
  4 13  1  0  0  0
 13 14  1  0  0  0
 14 15  2  0  0  0
 15 16  1  0  0  0
 16 17  2  0  0  0
 17 20  1  0  0  0
 20 21  1  0  0  0
 21 22  2  0  0  0
 21 24  1  0  0  0
 24 25  2  0  0  0
 17 18  1  0  0  0
 18 19  2  0  0  0
  4  5  1  0  0  0
  5  6  2  0  0  0
  6  7  1  0  0  0
  7  8  2  0  0  0
  8  9  1  0  0  0
  9 10  2  0  0  0
 10 26  1  0  0  0
 26 27  1  0  0  0
 27 28  1  0  0  0
 28 29  1  0  0  0
 29 30  1  0  0  0
 30 31  1  0  0  0
 31 32  1  0  0  0
 32 33  1  0  0  0
 33 34  1  0  0  0
 33 35  1  0  0  0
 35 36  1  0  0  0
 10  1  1  0  0  0
 36 30  1  0  0  0
  8  3  1  0  0  0
 19 14  1  0  0  0
 20 23  1  0  0  0
M  END
> <minimizedAffinity>
-7.37875

> <CNNscore>
0.2743817270

> <CNNaffinity>
6.1878004074

> <CNN_VS>
1.6978193521

> <CNNaffinity_variance>
0.0597793162

$$$$
[H]C([H])=C([H])C(=O)N([H])c1c([H])c([H])c(Oc2c([H])c([H])nc3c([H])c(OC([H])([H])C([H])([H])C([H])([H])N4C([H])([H])C([H])([H])N(C([H])([H])[H])C([H])([H])C4([H])[H])c(OC([H])([H])[H])c([H])c23)c([H])c1[H]


 36 39  0  0  0  0  0  0  0  0999 V2000
  -20.1488   10.1379  -15.9746 C   0  0  0  0  0  0  0  0  0  0  0  0
  -19.8382   11.2545  -16.7023 C   0  0  0  0  0  0  0  0  0  0  0  0
  -18.8981   11.1878  -17.7119 C   0  0  0  0  0  0  0  0  0  0  0  0
  -18.6034   12.3449  -18.4556 C   0  0  0  0  0  0  0  0  0  0  0  0
  -17.6801   12.2934  -19.4746 C   0  0  0  0  0  0  0  0  0  0  0  0
  -17.0725   11.0681  -19.7190 C   0  0  0  0  0  0  0  0  0  0  0  0
  -17.3800    9.9815  -18.9841 N   0  0  0  0  0  0  0  0  0  0  0  0
  -18.2769   10.0068  -17.9858 C   0  0  0  0  0  0  0  0  0  0  0  0
  -18.5869    8.8726  -17.2497 C   0  0  0  0  0  0  0  0  0  0  0  0
  -19.5327    8.8826  -16.2146 C   0  0  0  0  0  0  0  0  0  0  0  0
  -21.2718   11.3953  -14.2485 C   0  0  0  0  0  0  0  0  0  0  0  0
  -21.0949   10.1572  -14.9406 O   0  0  0  0  0  0  0  0  0  0  0  0
  -19.2675   13.4646  -18.1003 O   0  0  0  0  0  0  0  0  0  0  0  0
  -19.6887   14.4773  -18.8839 C   0  0  0  0  0  0  0  0  0  0  0  0
  -20.8986   14.4707  -19.5423 C   0  0  0  0  0  0  0  0  0  0  0  0
  -21.3045   15.5095  -20.3511 C   0  0  0  0  0  0  0  0  0  0  0  0
  -20.5026   16.5952  -20.5247 C   0  0  0  0  0  0  0  0  0  0  0  0
  -19.2693   16.6247  -19.8641 C   0  0  0  0  0  0  0  0  0  0  0  0
  -18.8666   15.6051  -19.0687 C   0  0  0  0  0  0  0  0  0  0  0  0
  -20.8644   17.6673  -21.3457 N   0  0  0  0  0  0  0  0  0  0  0  0
  -20.3818   17.8751  -22.6454 C   0  0  0  0  0  0  0  0  0  0  0  0
  -19.5771   17.0290  -23.1451 O   0  0  0  0  0  0  0  0  0  0  0  0
  -21.5603   18.3658  -20.9191 H   0  0  0  0  0  0  0  0  0  0  0  0
  -20.7806   19.0247  -23.4181 C   0  0  0  0  0  0  0  0  0  0  0  0
  -21.1556   20.1479  -22.8827 C   0  0  0  0  0  0  0  0  0  0  0  0
  -19.8610    7.8759  -15.5006 O   0  0  0  0  0  0  0  0  0  0  0  0
  -20.1957    6.8367  -14.7679 C   0  0  0  0  0  0  0  0  0  0  0  0
  -21.0513    7.2657  -13.6117 C   0  0  0  0  0  0  0  0  0  0  0  0
  -20.9067    6.6775  -12.2878 C   0  0  0  0  0  0  0  0  0  0  0  0
  -20.2031    7.4498  -11.2980 N   0  0  0  0  0  0  0  0  0  0  0  0
  -20.0768    8.8268  -11.7840 C   0  0  0  0  0  0  0  0  0  0  0  0
  -19.2001    9.7294  -11.0484 C   0  0  0  0  0  0  0  0  0  0  0  0
  -18.1052    9.0804  -10.3563 N   0  0  0  0  0  0  0  0  0  0  0  0
  -18.2332    9.0432   -8.9422 C   0  0  0  0  0  0  0  0  0  0  0  0
  -17.7572    7.8447  -10.9826 C   0  0  0  0  0  0  0  0  0  0  0  0
  -18.9258    6.9183  -10.9064 C   0  0  0  0  0  0  0  0  0  0  0  0
 11 12  1  0  0  0
 12  1  1  0  0  0
  1  2  2  0  0  0
  2  3  1  0  0  0
  3  4  2  0  0  0
  4 13  1  0  0  0
 13 14  1  0  0  0
 14 15  2  0  0  0
 15 16  1  0  0  0
 16 17  2  0  0  0
 17 20  1  0  0  0
 20 21  1  0  0  0
 21 22  2  0  0  0
 21 24  1  0  0  0
 24 25  2  0  0  0
 17 18  1  0  0  0
 18 19  2  0  0  0
  4  5  1  0  0  0
  5  6  2  0  0  0
  6  7  1  0  0  0
  7  8  2  0  0  0
  8  9  1  0  0  0
  9 10  2  0  0  0
 10 26  1  0  0  0
 26 27  1  0  0  0
 27 28  1  0  0  0
 28 29  1  0  0  0
 29 30  1  0  0  0
 30 31  1  0  0  0
 31 32  1  0  0  0
 32 33  1  0  0  0
 33 34  1  0  0  0
 33 35  1  0  0  0
 35 36  1  0  0  0
 10  1  1  0  0  0
 36 30  1  0  0  0
  8  3  1  0  0  0
 19 14  1  0  0  0
 20 23  1  0  0  0
M  END
> <minimizedAffinity>
-6.47117

> <CNNscore>
0.2696799338

> <CNNaffinity>
6.2168512344

> <CNN_VS>
1.6765600443

> <CNNaffinity_variance>
0.0789903253

$$$$
[H]C([H])=C([H])C(=O)N([H])c1c([H])c([H])c(Oc2c([H])c([H])nc3c([H])c(OC([H])([H])C([H])([H])C([H])([H])N4C([H])([H])C([H])([H])N(C([H])([H])[H])C([H])([H])C4([H])[H])c(OC([H])([H])[H])c([H])c23)c([H])c1[H]


 36 39  0  0  0  0  0  0  0  0999 V2000
  -20.1411   13.3039  -17.2313 C   0  0  0  0  0  0  0  0  0  0  0  0
  -19.3080   13.3259  -18.3169 C   0  0  0  0  0  0  0  0  0  0  0  0
  -18.5954   12.1968  -18.6700 C   0  0  0  0  0  0  0  0  0  0  0  0
  -17.7546   12.2380  -19.7971 C   0  0  0  0  0  0  0  0  0  0  0  0
  -17.0483   11.1182  -20.1719 C   0  0  0  0  0  0  0  0  0  0  0  0
  -17.2080    9.9776  -19.3950 C   0  0  0  0  0  0  0  0  0  0  0  0
  -18.0220    9.9769  -18.3212 N   0  0  0  0  0  0  0  0  0  0  0  0
  -18.7212   11.0561  -17.9361 C   0  0  0  0  0  0  0  0  0  0  0  0
  -19.5628   11.0294  -16.8337 C   0  0  0  0  0  0  0  0  0  0  0  0
  -20.3098   12.1453  -16.4301 C   0  0  0  0  0  0  0  0  0  0  0  0
  -21.7926   14.9711  -17.7924 C   0  0  0  0  0  0  0  0  0  0  0  0
  -20.8834   14.4247  -16.8343 O   0  0  0  0  0  0  0  0  0  0  0  0
  -17.6947   13.4170  -20.4507 O   0  0  0  0  0  0  0  0  0  0  0  0
  -17.4321   13.6444  -21.7531 C   0  0  0  0  0  0  0  0  0  0  0  0
  -16.6242   12.8293  -22.5148 C   0  0  0  0  0  0  0  0  0  0  0  0
  -16.3557   13.0875  -23.8412 C   0  0  0  0  0  0  0  0  0  0  0  0
  -16.8946   14.1796  -24.4485 C   0  0  0  0  0  0  0  0  0  0  0  0
  -17.7201   15.0213  -23.6946 C   0  0  0  0  0  0  0  0  0  0  0  0
  -17.9857   14.7711  -22.3903 C   0  0  0  0  0  0  0  0  0  0  0  0
  -16.6407   14.4910  -25.7875 N   0  0  0  0  0  0  0  0  0  0  0  0
  -15.5669   15.2733  -26.2349 C   0  0  0  0  0  0  0  0  0  0  0  0
  -14.7365   15.7215  -25.3848 O   0  0  0  0  0  0  0  0  0  0  0  0
  -17.3391   14.0903  -26.4988 H   0  0  0  0  0  0  0  0  0  0  0  0
  -15.3912   15.5754  -27.6333 C   0  0  0  0  0  0  0  0  0  0  0  0
  -16.3680   15.5760  -28.4905 C   0  0  0  0  0  0  0  0  0  0  0  0
  -21.0990   12.1856  -15.4269 O   0  0  0  0  0  0  0  0  0  0  0  0
  -21.9135   12.2229  -14.3954 C   0  0  0  0  0  0  0  0  0  0  0  0
  -21.2146   11.7371  -13.1593 C   0  0  0  0  0  0  0  0  0  0  0  0
  -20.5253   10.4553  -13.1187 C   0  0  0  0  0  0  0  0  0  0  0  0
  -19.5141   10.2837  -12.1092 N   0  0  0  0  0  0  0  0  0  0  0  0
  -19.0501    8.8939  -12.1453 C   0  0  0  0  0  0  0  0  0  0  0  0
  -18.1922    8.4355  -11.0598 C   0  0  0  0  0  0  0  0  0  0  0  0
  -18.3902    9.1222   -9.7996 N   0  0  0  0  0  0  0  0  0  0  0  0
  -17.3408   10.0059   -9.4317 C   0  0  0  0  0  0  0  0  0  0  0  0
  -19.7132    9.6515   -9.7011 C   0  0  0  0  0  0  0  0  0  0  0  0
  -19.9098   10.6646  -10.7804 C   0  0  0  0  0  0  0  0  0  0  0  0
 11 12  1  0  0  0
 12  1  1  0  0  0
  1  2  2  0  0  0
  2  3  1  0  0  0
  3  4  2  0  0  0
  4 13  1  0  0  0
 13 14  1  0  0  0
 14 15  2  0  0  0
 15 16  1  0  0  0
 16 17  2  0  0  0
 17 20  1  0  0  0
 20 21  1  0  0  0
 21 22  2  0  0  0
 21 24  1  0  0  0
 24 25  2  0  0  0
 17 18  1  0  0  0
 18 19  2  0  0  0
  4  5  1  0  0  0
  5  6  2  0  0  0
  6  7  1  0  0  0
  7  8  2  0  0  0
  8  9  1  0  0  0
  9 10  2  0  0  0
 10 26  1  0  0  0
 26 27  1  0  0  0
 27 28  1  0  0  0
 28 29  1  0  0  0
 29 30  1  0  0  0
 30 31  1  0  0  0
 31 32  1  0  0  0
 32 33  1  0  0  0
 33 34  1  0  0  0
 33 35  1  0  0  0
 35 36  1  0  0  0
 10  1  1  0  0  0
 36 30  1  0  0  0
  8  3  1  0  0  0
 19 14  1  0  0  0
 20 23  1  0  0  0
M  END
> <minimizedAffinity>
-8.28834

> <CNNscore>
0.2464971840

> <CNNaffinity>
6.3625473976

> <CNN_VS>
1.5683499575

> <CNNaffinity_variance>
0.1030209810

$$$$
[H]C([H])=C([H])C(=O)N([H])c1c([H])c([H])c(Oc2c([H])c([H])nc3c([H])c(OC([H])([H])C([H])([H])C([H])([H])N4C([H])([H])C([H])([H])N(C([H])([H])[H])C([H])([H])C4([H])[H])c(OC([H])([H])[H])c([H])c23)c([H])c1[H]


 36 39  0  0  0  0  0  0  0  0999 V2000
  -20.2299   13.3409  -17.4045 C   0  0  0  0  0  0  0  0  0  0  0  0
  -19.3166   13.3396  -18.4236 C   0  0  0  0  0  0  0  0  0  0  0  0
  -18.5623   12.2116  -18.6806 C   0  0  0  0  0  0  0  0  0  0  0  0
  -17.6383   12.2281  -19.7411 C   0  0  0  0  0  0  0  0  0  0  0  0
  -16.8888   11.1085  -20.0205 C   0  0  0  0  0  0  0  0  0  0  0  0
  -17.0908    9.9930  -19.2174 C   0  0  0  0  0  0  0  0  0  0  0  0
  -17.9846   10.0155  -18.2094 N   0  0  0  0  0  0  0  0  0  0  0  0
  -18.7271   11.0950  -17.9177 C   0  0  0  0  0  0  0  0  0  0  0  0
  -19.6503   11.0920  -16.8823 C   0  0  0  0  0  0  0  0  0  0  0  0
  -20.4424   12.2080  -16.5772 C   0  0  0  0  0  0  0  0  0  0  0  0
  -20.4346   15.7443  -17.3476 C   0  0  0  0  0  0  0  0  0  0  0  0
  -21.0171   14.4616  -17.1057 O   0  0  0  0  0  0  0  0  0  0  0  0
  -17.5459   13.3845  -20.4303 O   0  0  0  0  0  0  0  0  0  0  0  0
  -17.4551   13.5646  -21.7632 C   0  0  0  0  0  0  0  0  0  0  0  0
  -16.6554   12.7932  -22.5773 C   0  0  0  0  0  0  0  0  0  0  0  0
  -16.5647   13.0029  -23.9358 C   0  0  0  0  0  0  0  0  0  0  0  0
  -17.2797   14.0007  -24.5235 C   0  0  0  0  0  0  0  0  0  0  0  0
  -18.1004   14.7962  -23.7162 C   0  0  0  0  0  0  0  0  0  0  0  0
  -18.1917   14.5934  -22.3802 C   0  0  0  0  0  0  0  0  0  0  0  0
  -17.2104   14.2612  -25.8952 N   0  0  0  0  0  0  0  0  0  0  0  0
  -16.3424   15.1886  -26.4883 C   0  0  0  0  0  0  0  0  0  0  0  0
  -15.5331   15.8322  -25.7507 O   0  0  0  0  0  0  0  0  0  0  0  0
  -17.8863   13.6968  -26.5107 H   0  0  0  0  0  0  0  0  0  0  0  0
  -16.3534   15.4222  -27.9106 C   0  0  0  0  0  0  0  0  0  0  0  0
  -15.2723   15.5635  -28.6178 C   0  0  0  0  0  0  0  0  0  0  0  0
  -21.3068   12.2694  -15.6390 O   0  0  0  0  0  0  0  0  0  0  0  0
  -22.1994   12.3357  -14.6759 C   0  0  0  0  0  0  0  0  0  0  0  0
  -21.5998   11.8866  -13.3753 C   0  0  0  0  0  0  0  0  0  0  0  0
  -22.0437   10.6749  -12.7012 C   0  0  0  0  0  0  0  0  0  0  0  0
  -21.3521    9.4537  -13.0198 N   0  0  0  0  0  0  0  0  0  0  0  0
  -19.9600    9.7772  -13.3447 C   0  0  0  0  0  0  0  0  0  0  0  0
  -19.1337    8.7229  -13.9192 C   0  0  0  0  0  0  0  0  0  0  0  0
  -19.8630    7.7262  -14.6766 N   0  0  0  0  0  0  0  0  0  0  0  0
  -19.9634    6.4565  -14.0480 C   0  0  0  0  0  0  0  0  0  0  0  0
  -21.0808    8.2611  -15.1975 C   0  0  0  0  0  0  0  0  0  0  0  0
  -21.9577    8.6646  -14.0581 C   0  0  0  0  0  0  0  0  0  0  0  0
 11 12  1  0  0  0
 12  1  1  0  0  0
  1  2  2  0  0  0
  2  3  1  0  0  0
  3  4  2  0  0  0
  4 13  1  0  0  0
 13 14  1  0  0  0
 14 15  2  0  0  0
 15 16  1  0  0  0
 16 17  2  0  0  0
 17 20  1  0  0  0
 20 21  1  0  0  0
 21 22  2  0  0  0
 21 24  1  0  0  0
 24 25  2  0  0  0
 17 18  1  0  0  0
 18 19  2  0  0  0
  4  5  1  0  0  0
  5  6  2  0  0  0
  6  7  1  0  0  0
  7  8  2  0  0  0
  8  9  1  0  0  0
  9 10  2  0  0  0
 10 26  1  0  0  0
 26 27  1  0  0  0
 27 28  1  0  0  0
 28 29  1  0  0  0
 29 30  1  0  0  0
 30 31  1  0  0  0
 31 32  1  0  0  0
 32 33  1  0  0  0
 33 34  1  0  0  0
 33 35  1  0  0  0
 35 36  1  0  0  0
 10  1  1  0  0  0
 36 30  1  0  0  0
  8  3  1  0  0  0
 19 14  1  0  0  0
 20 23  1  0  0  0
M  END
> <minimizedAffinity>
-7.90352

> <CNNscore>
0.2374739945

> <CNNaffinity>
6.5245909691

> <CNN_VS>
1.5494207144

> <CNNaffinity_variance>
0.1213385090

$$$$
[H]C([H])=C([H])C(=O)N([H])c1c([H])c([H])c(Oc2c([H])c([H])nc3c([H])c(OC([H])([H])C([H])([H])C([H])([H])N4C([H])([H])C([H])([H])OC([H])([H])C4([H])[H])c(OC([H])([H])[H])c([H])c23)c(F)c1[H]


 36 39  0  0  0  0  0  0  0  0999 V2000
  -18.9469   12.0584  -18.5662 C   0  0  0  0  0  0  0  0  0  0  0  0
  -18.3616   12.5162  -19.7008 C   0  0  0  0  0  0  0  0  0  0  0  0
  -17.3786   11.8613  -20.4326 C   0  0  0  0  0  0  0  0  0  0  0  0
  -16.8346   12.4294  -21.5591 C   0  0  0  0  0  0  0  0  0  0  0  0
  -15.8009   11.6235  -22.1672 C   0  0  0  0  0  0  0  0  0  0  0  0
  -15.4371   10.4329  -21.6517 C   0  0  0  0  0  0  0  0  0  0  0  0
  -16.0263    9.9614  -20.5541 N   0  0  0  0  0  0  0  0  0  0  0  0
  -16.9870   10.6441  -19.9318 C   0  0  0  0  0  0  0  0  0  0  0  0
  -17.5551   10.1233  -18.7672 C   0  0  0  0  0  0  0  0  0  0  0  0
  -18.5289   10.7957  -18.0649 C   0  0  0  0  0  0  0  0  0  0  0  0
  -19.6484   14.0225  -17.3084 C   0  0  0  0  0  0  0  0  0  0  0  0
  -19.9277   12.7340  -17.8540 O   0  0  0  0  0  0  0  0  0  0  0  0
  -17.1095   13.5446  -22.1289 O   0  0  0  0  0  0  0  0  0  0  0  0
  -17.4199   14.6806  -22.6219 C   0  0  0  0  0  0  0  0  0  0  0  0
  -16.9149   15.7934  -21.8442 C   0  0  0  0  0  0  0  0  0  0  0  0
  -17.1211   17.0861  -22.1811 C   0  0  0  0  0  0  0  0  0  0  0  0
  -17.8282   17.4274  -23.2901 C   0  0  0  0  0  0  0  0  0  0  0  0
  -18.3276   16.3717  -24.0608 C   0  0  0  0  0  0  0  0  0  0  0  0
  -18.1230   15.0523  -23.7282 C   0  0  0  0  0  0  0  0  0  0  0  0
  -18.6685   14.1851  -24.6300 F   0  0  0  0  0  0  0  0  0  0  0  0
  -18.1141   18.7363  -23.6998 N   0  0  0  0  0  0  0  0  0  0  0  0
  -19.1876   19.5260  -23.2747 C   0  0  0  0  0  0  0  0  0  0  0  0
  -20.0261   19.0922  -22.4503 O   0  0  0  0  0  0  0  0  0  0  0  0
  -17.4596   19.1917  -24.3980 H   0  0  0  0  0  0  0  0  0  0  0  0
  -19.3535   20.9053  -23.7993 C   0  0  0  0  0  0  0  0  0  0  0  0
  -20.2558   21.6914  -23.2529 C   0  0  0  0  0  0  0  0  0  0  0  0
  -19.0719   10.3085  -16.9655 O   0  0  0  0  0  0  0  0  0  0  0  0
  -19.8340    9.5291  -16.2484 C   0  0  0  0  0  0  0  0  0  0  0  0
  -19.3518    8.2965  -15.5424 C   0  0  0  0  0  0  0  0  0  0  0  0
  -20.2853    7.7983  -14.4963 C   0  0  0  0  0  0  0  0  0  0  0  0
  -21.3369    8.8291  -14.3183 N   0  0  0  0  0  0  0  0  0  0  0  0
  -22.6399    8.2008  -14.4428 C   0  0  0  0  0  0  0  0  0  0  0  0
  -23.1963    7.6922  -13.1439 C   0  0  0  0  0  0  0  0  0  0  0  0
  -23.3117    8.6807  -12.1792 O   0  0  0  0  0  0  0  0  0  0  0  0
  -22.5050    9.7797  -12.4606 C   0  0  0  0  0  0  0  0  0  0  0  0
  -21.1551    9.3620  -12.9954 C   0  0  0  0  0  0  0  0  0  0  0  0
 11 12  1  0  0  0
 12  1  1  0  0  0
  1  2  2  0  0  0
  2  3  1  0  0  0
  3  4  2  0  0  0
  4 13  1  0  0  0
 13 14  1  0  0  0
 14 15  2  0  0  0
 15 16  1  0  0  0
 16 17  2  0  0  0
 17 21  1  0  0  0
 21 22  1  0  0  0
 22 23  2  0  0  0
 22 25  1  0  0  0
 25 26  2  0  0  0
 17 18  1  0  0  0
 18 19  2  0  0  0
 19 20  1  0  0  0
  4  5  1  0  0  0
  5  6  2  0  0  0
  6  7  1  0  0  0
  7  8  2  0  0  0
  8  9  1  0  0  0
  9 10  2  0  0  0
 10 27  1  0  0  0
 27 28  1  0  0  0
 28 29  1  0  0  0
 29 30  1  0  0  0
 30 31  1  0  0  0
 31 32  1  0  0  0
 32 33  1  0  0  0
 33 34  1  0  0  0
 34 35  1  0  0  0
 35 36  1  0  0  0
 10  1  1  0  0  0
 36 31  1  0  0  0
  8  3  1  0  0  0
 19 14  1  0  0  0
 21 24  1  0  0  0
M  END
> <minimizedAffinity>
-7.12598

> <CNNscore>
0.8164587021

> <CNNaffinity>
7.1791357994

> <CNN_VS>
5.8614678383

> <CNNaffinity_variance>
0.1203578711

$$$$
[H]C([H])=C([H])C(=O)N([H])c1c([H])c([H])c(Oc2c([H])c([H])nc3c([H])c(OC([H])([H])C([H])([H])C([H])([H])N4C([H])([H])C([H])([H])OC([H])([H])C4([H])[H])c(OC([H])([H])[H])c([H])c23)c(F)c1[H]


 36 39  0  0  0  0  0  0  0  0999 V2000
  -19.3984   11.6572  -17.8009 C   0  0  0  0  0  0  0  0  0  0  0  0
  -18.9040   12.1794  -18.9508 C   0  0  0  0  0  0  0  0  0  0  0  0
  -17.9032   11.6205  -19.7360 C   0  0  0  0  0  0  0  0  0  0  0  0
  -17.4588   12.2491  -20.8741 C   0  0  0  0  0  0  0  0  0  0  0  0
  -16.3894   11.5422  -21.5407 C   0  0  0  0  0  0  0  0  0  0  0  0
  -15.9050   10.3789  -21.0633 C   0  0  0  0  0  0  0  0  0  0  0  0
  -16.4037    9.8432  -19.9504 N   0  0  0  0  0  0  0  0  0  0  0  0
  -17.3896   10.4333  -19.2750 C   0  0  0  0  0  0  0  0  0  0  0  0
  -17.8602    9.8494  -18.0970 C   0  0  0  0  0  0  0  0  0  0  0  0
  -18.8547   10.4269  -17.3414 C   0  0  0  0  0  0  0  0  0  0  0  0
  -20.8655   13.5484  -17.3506 C   0  0  0  0  0  0  0  0  0  0  0  0
  -20.3997   12.2372  -17.0349 O   0  0  0  0  0  0  0  0  0  0  0  0
  -17.8507   13.3454  -21.4108 O   0  0  0  0  0  0  0  0  0  0  0  0
  -18.1606   14.4473  -21.9763 C   0  0  0  0  0  0  0  0  0  0  0  0
  -18.5921   15.4640  -21.0391 C   0  0  0  0  0  0  0  0  0  0  0  0
  -18.9651   16.7075  -21.4155 C   0  0  0  0  0  0  0  0  0  0  0  0
  -18.9586   17.0870  -22.7202 C   0  0  0  0  0  0  0  0  0  0  0  0
  -18.5453   16.1244  -23.6478 C   0  0  0  0  0  0  0  0  0  0  0  0
  -18.1624   14.8561  -23.2761 C   0  0  0  0  0  0  0  0  0  0  0  0
  -17.7679   14.0878  -24.3329 F   0  0  0  0  0  0  0  0  0  0  0  0
  -19.3541   18.3414  -23.2029 N   0  0  0  0  0  0  0  0  0  0  0  0
  -20.6560   18.7351  -23.5294 C   0  0  0  0  0  0  0  0  0  0  0  0
  -21.6218   17.9450  -23.4121 O   0  0  0  0  0  0  0  0  0  0  0  0
  -18.6059   19.0802  -23.3358 H   0  0  0  0  0  0  0  0  0  0  0  0
  -20.9178   20.1098  -24.0264 C   0  0  0  0  0  0  0  0  0  0  0  0
  -22.0925   20.3860  -24.5500 C   0  0  0  0  0  0  0  0  0  0  0  0
  -19.3060    9.8794  -16.2289 O   0  0  0  0  0  0  0  0  0  0  0  0
  -19.3006    9.0785  -15.1989 C   0  0  0  0  0  0  0  0  0  0  0  0
  -19.3005    9.5409  -13.7718 C   0  0  0  0  0  0  0  0  0  0  0  0
  -18.9765    8.4690  -12.7921 C   0  0  0  0  0  0  0  0  0  0  0  0
  -19.4437    8.9323  -11.4627 N   0  0  0  0  0  0  0  0  0  0  0  0
  -18.6845    8.2490  -10.4309 C   0  0  0  0  0  0  0  0  0  0  0  0
  -17.4312    8.9679  -10.0213 C   0  0  0  0  0  0  0  0  0  0  0  0
  -17.6685   10.2556   -9.5665 O   0  0  0  0  0  0  0  0  0  0  0  0
  -18.9024   10.7391   -9.9924 C   0  0  0  0  0  0  0  0  0  0  0  0
  -19.1948   10.3478  -11.4221 C   0  0  0  0  0  0  0  0  0  0  0  0
 11 12  1  0  0  0
 12  1  1  0  0  0
  1  2  2  0  0  0
  2  3  1  0  0  0
  3  4  2  0  0  0
  4 13  1  0  0  0
 13 14  1  0  0  0
 14 15  2  0  0  0
 15 16  1  0  0  0
 16 17  2  0  0  0
 17 21  1  0  0  0
 21 22  1  0  0  0
 22 23  2  0  0  0
 22 25  1  0  0  0
 25 26  2  0  0  0
 17 18  1  0  0  0
 18 19  2  0  0  0
 19 20  1  0  0  0
  4  5  1  0  0  0
  5  6  2  0  0  0
  6  7  1  0  0  0
  7  8  2  0  0  0
  8  9  1  0  0  0
  9 10  2  0  0  0
 10 27  1  0  0  0
 27 28  1  0  0  0
 28 29  1  0  0  0
 29 30  1  0  0  0
 30 31  1  0  0  0
 31 32  1  0  0  0
 32 33  1  0  0  0
 33 34  1  0  0  0
 34 35  1  0  0  0
 35 36  1  0  0  0
 10  1  1  0  0  0
 36 31  1  0  0  0
  8  3  1  0  0  0
 19 14  1  0  0  0
 21 24  1  0  0  0
M  END
> <minimizedAffinity>
-7.94514

> <CNNscore>
0.7565485239

> <CNNaffinity>
6.9338569641

> <CNN_VS>
5.2457990646

> <CNNaffinity_variance>
0.1707221121

$$$$
[H]C([H])=C([H])C(=O)N([H])c1c([H])c([H])c(Oc2c([H])c([H])nc3c([H])c(OC([H])([H])C([H])([H])C([H])([H])N4C([H])([H])C([H])([H])OC([H])([H])C4([H])[H])c(OC([H])([H])[H])c([H])c23)c(F)c1[H]


 36 39  0  0  0  0  0  0  0  0999 V2000
  -18.7959   11.7267  -18.4998 C   0  0  0  0  0  0  0  0  0  0  0  0
  -18.5669   12.5008  -19.5897 C   0  0  0  0  0  0  0  0  0  0  0  0
  -17.6548   12.2329  -20.6031 C   0  0  0  0  0  0  0  0  0  0  0  0
  -17.4852   13.1014  -21.6541 C   0  0  0  0  0  0  0  0  0  0  0  0
  -16.4688   12.6791  -22.5902 C   0  0  0  0  0  0  0  0  0  0  0  0
  -15.7787   11.5349  -22.4165 C   0  0  0  0  0  0  0  0  0  0  0  0
  -16.0164   10.7533  -21.3645 N   0  0  0  0  0  0  0  0  0  0  0  0
  -16.9361   11.0722  -20.4541 C   0  0  0  0  0  0  0  0  0  0  0  0
  -17.1298   10.2367  -19.3520 C   0  0  0  0  0  0  0  0  0  0  0  0
  -18.0429   10.5287  -18.3648 C   0  0  0  0  0  0  0  0  0  0  0  0
  -20.5078   13.2007  -17.5898 C   0  0  0  0  0  0  0  0  0  0  0  0
  -19.7141   12.0184  -17.5011 O   0  0  0  0  0  0  0  0  0  0  0  0
  -18.0871   14.2037  -21.9115 O   0  0  0  0  0  0  0  0  0  0  0  0
  -18.7131   15.3028  -22.0852 C   0  0  0  0  0  0  0  0  0  0  0  0
  -18.4674   15.8963  -23.3835 C   0  0  0  0  0  0  0  0  0  0  0  0
  -19.0282   17.0591  -23.7841 C   0  0  0  0  0  0  0  0  0  0  0  0
  -19.8717   17.7559  -22.9784 C   0  0  0  0  0  0  0  0  0  0  0  0
  -20.1276   17.2051  -21.7179 C   0  0  0  0  0  0  0  0  0  0  0  0
  -19.5634   16.0217  -21.2999 C   0  0  0  0  0  0  0  0  0  0  0  0
  -19.9693   15.6502  -20.0509 F   0  0  0  0  0  0  0  0  0  0  0  0
  -20.4748   18.9793  -23.2986 N   0  0  0  0  0  0  0  0  0  0  0  0
  -21.6876   19.1586  -23.9720 C   0  0  0  0  0  0  0  0  0  0  0  0
  -22.3619   18.1787  -24.3669 O   0  0  0  0  0  0  0  0  0  0  0  0
  -19.9789   19.8687  -23.0048 H   0  0  0  0  0  0  0  0  0  0  0  0
  -22.2012   20.5272  -24.2333 C   0  0  0  0  0  0  0  0  0  0  0  0
  -23.4978   20.7083  -24.3622 C   0  0  0  0  0  0  0  0  0  0  0  0
  -18.2330    9.7426  -17.3223 O   0  0  0  0  0  0  0  0  0  0  0  0
  -18.6687    8.6992  -16.6712 C   0  0  0  0  0  0  0  0  0  0  0  0
  -19.2616    8.7523  -15.2942 C   0  0  0  0  0  0  0  0  0  0  0  0
  -20.6377    9.3167  -15.2531 C   0  0  0  0  0  0  0  0  0  0  0  0
  -20.7425   10.1305  -14.0174 N   0  0  0  0  0  0  0  0  0  0  0  0
  -21.7238    9.5250  -13.1351 C   0  0  0  0  0  0  0  0  0  0  0  0
  -21.1462    8.5155  -12.1850 C   0  0  0  0  0  0  0  0  0  0  0  0
  -20.1442    9.0375  -11.3820 O   0  0  0  0  0  0  0  0  0  0  0  0
  -19.6047   10.2048  -11.9152 C   0  0  0  0  0  0  0  0  0  0  0  0
  -19.4377   10.1116  -13.4139 C   0  0  0  0  0  0  0  0  0  0  0  0
 11 12  1  0  0  0
 12  1  1  0  0  0
  1  2  2  0  0  0
  2  3  1  0  0  0
  3  4  2  0  0  0
  4 13  1  0  0  0
 13 14  1  0  0  0
 14 15  2  0  0  0
 15 16  1  0  0  0
 16 17  2  0  0  0
 17 21  1  0  0  0
 21 22  1  0  0  0
 22 23  2  0  0  0
 22 25  1  0  0  0
 25 26  2  0  0  0
 17 18  1  0  0  0
 18 19  2  0  0  0
 19 20  1  0  0  0
  4  5  1  0  0  0
  5  6  2  0  0  0
  6  7  1  0  0  0
  7  8  2  0  0  0
  8  9  1  0  0  0
  9 10  2  0  0  0
 10 27  1  0  0  0
 27 28  1  0  0  0
 28 29  1  0  0  0
 29 30  1  0  0  0
 30 31  1  0  0  0
 31 32  1  0  0  0
 32 33  1  0  0  0
 33 34  1  0  0  0
 34 35  1  0  0  0
 35 36  1  0  0  0
 10  1  1  0  0  0
 36 31  1  0  0  0
  8  3  1  0  0  0
 19 14  1  0  0  0
 21 24  1  0  0  0
M  END
> <minimizedAffinity>
-7.33747

> <CNNscore>
0.6401200891

> <CNNaffinity>
6.8630013466

> <CNN_VS>
4.3931450844

> <CNNaffinity_variance>
0.0587882288

$$$$
[H]C([H])=C([H])C(=O)N([H])c1c([H])c([H])c(Oc2c([H])c([H])nc3c([H])c(OC([H])([H])C([H])([H])C([H])([H])N4C([H])([H])C([H])([H])OC([H])([H])C4([H])[H])c(OC([H])([H])[H])c([H])c23)c(F)c1[H]


 36 39  0  0  0  0  0  0  0  0999 V2000
  -18.6928   11.5700  -18.4769 C   0  0  0  0  0  0  0  0  0  0  0  0
  -18.4497   12.3520  -19.5580 C   0  0  0  0  0  0  0  0  0  0  0  0
  -17.5358   12.0835  -20.5696 C   0  0  0  0  0  0  0  0  0  0  0  0
  -17.3511   12.9602  -21.6113 C   0  0  0  0  0  0  0  0  0  0  0  0
  -16.3349   12.5355  -22.5466 C   0  0  0  0  0  0  0  0  0  0  0  0
  -15.6588   11.3818  -22.3808 C   0  0  0  0  0  0  0  0  0  0  0  0
  -15.9106   10.5928  -21.3376 N   0  0  0  0  0  0  0  0  0  0  0  0
  -16.8310   10.9133  -20.4286 C   0  0  0  0  0  0  0  0  0  0  0  0
  -17.0397   10.0694  -19.3356 C   0  0  0  0  0  0  0  0  0  0  0  0
  -17.9542   10.3622  -18.3500 C   0  0  0  0  0  0  0  0  0  0  0  0
  -20.3961   13.0519  -17.5634 C   0  0  0  0  0  0  0  0  0  0  0  0
  -19.6126   11.8624  -17.4798 O   0  0  0  0  0  0  0  0  0  0  0  0
  -17.9391   14.0718  -21.8607 O   0  0  0  0  0  0  0  0  0  0  0  0
  -18.5814   15.1595  -22.0464 C   0  0  0  0  0  0  0  0  0  0  0  0
  -18.3750   15.7219  -23.3652 C   0  0  0  0  0  0  0  0  0  0  0  0
  -18.9585   16.8681  -23.7809 C   0  0  0  0  0  0  0  0  0  0  0  0
  -19.7892   17.5766  -22.9720 C   0  0  0  0  0  0  0  0  0  0  0  0
  -20.0072   17.0558  -21.6918 C   0  0  0  0  0  0  0  0  0  0  0  0
  -19.4196   15.8894  -21.2583 C   0  0  0  0  0  0  0  0  0  0  0  0
  -19.7899   15.5459  -19.9904 F   0  0  0  0  0  0  0  0  0  0  0  0
  -20.4136   18.7850  -23.3078 N   0  0  0  0  0  0  0  0  0  0  0  0
  -21.6576   18.9347  -23.9296 C   0  0  0  0  0  0  0  0  0  0  0  0
  -22.3439   17.9383  -24.2566 O   0  0  0  0  0  0  0  0  0  0  0  0
  -19.9096   19.6866  -23.0701 H   0  0  0  0  0  0  0  0  0  0  0  0
  -22.1907   20.2907  -24.2161 C   0  0  0  0  0  0  0  0  0  0  0  0
  -22.7026   20.5374  -25.4026 C   0  0  0  0  0  0  0  0  0  0  0  0
  -18.1584    9.5682  -17.3162 O   0  0  0  0  0  0  0  0  0  0  0  0
  -18.7445    8.6332  -16.6199 C   0  0  0  0  0  0  0  0  0  0  0  0
  -19.6096    8.8918  -15.4219 C   0  0  0  0  0  0  0  0  0  0  0  0
  -20.9395    8.2274  -15.4855 C   0  0  0  0  0  0  0  0  0  0  0  0
  -20.7052    6.7653  -15.4004 N   0  0  0  0  0  0  0  0  0  0  0  0
  -20.8207    6.3485  -14.0144 C   0  0  0  0  0  0  0  0  0  0  0  0
  -22.2119    5.9492  -13.6135 C   0  0  0  0  0  0  0  0  0  0  0  0
  -22.7273    4.9240  -14.3910 O   0  0  0  0  0  0  0  0  0  0  0  0
  -22.0541    4.8010  -15.6033 C   0  0  0  0  0  0  0  0  0  0  0  0
  -21.7270    6.1489  -16.2023 C   0  0  0  0  0  0  0  0  0  0  0  0
 11 12  1  0  0  0
 12  1  1  0  0  0
  1  2  2  0  0  0
  2  3  1  0  0  0
  3  4  2  0  0  0
  4 13  1  0  0  0
 13 14  1  0  0  0
 14 15  2  0  0  0
 15 16  1  0  0  0
 16 17  2  0  0  0
 17 21  1  0  0  0
 21 22  1  0  0  0
 22 23  2  0  0  0
 22 25  1  0  0  0
 25 26  2  0  0  0
 17 18  1  0  0  0
 18 19  2  0  0  0
 19 20  1  0  0  0
  4  5  1  0  0  0
  5  6  2  0  0  0
  6  7  1  0  0  0
  7  8  2  0  0  0
  8  9  1  0  0  0
  9 10  2  0  0  0
 10 27  1  0  0  0
 27 28  1  0  0  0
 28 29  1  0  0  0
 29 30  1  0  0  0
 30 31  1  0  0  0
 31 32  1  0  0  0
 32 33  1  0  0  0
 33 34  1  0  0  0
 34 35  1  0  0  0
 35 36  1  0  0  0
 10  1  1  0  0  0
 36 31  1  0  0  0
  8  3  1  0  0  0
 19 14  1  0  0  0
 21 24  1  0  0  0
M  END
> <minimizedAffinity>
-7.57746

> <CNNscore>
0.6385073662

> <CNNaffinity>
6.8745641708

> <CNN_VS>
4.3894600868

> <CNNaffinity_variance>
0.0687326342

$$$$
[H]C([H])=C([H])C(=O)N([H])c1c([H])c([H])c(Oc2c([H])c([H])nc3c([H])c(OC([H])([H])C([H])([H])C([H])([H])N4C([H])([H])C([H])([H])OC([H])([H])C4([H])[H])c(OC([H])([H])[H])c([H])c23)c(F)c1[H]


 36 39  0  0  0  0  0  0  0  0999 V2000
  -19.7998   11.5926  -17.0270 C   0  0  0  0  0  0  0  0  0  0  0  0
  -19.1961   12.2022  -18.0774 C   0  0  0  0  0  0  0  0  0  0  0  0
  -18.2485   11.6304  -18.9176 C   0  0  0  0  0  0  0  0  0  0  0  0
  -17.6808   12.3495  -19.9415 C   0  0  0  0  0  0  0  0  0  0  0  0
  -16.6895   11.6061  -20.6849 C   0  0  0  0  0  0  0  0  0  0  0  0
  -16.3828   10.3310  -20.3758 C   0  0  0  0  0  0  0  0  0  0  0  0
  -16.9911    9.7140  -19.3641 N   0  0  0  0  0  0  0  0  0  0  0  0
  -17.9154   10.3301  -18.6277 C   0  0  0  0  0  0  0  0  0  0  0  0
  -18.5048    9.6527  -17.5581 C   0  0  0  0  0  0  0  0  0  0  0  0
  -19.4425   10.2461  -16.7444 C   0  0  0  0  0  0  0  0  0  0  0  0
  -21.1110   13.5507  -16.4123 C   0  0  0  0  0  0  0  0  0  0  0  0
  -20.7442   12.1879  -16.2028 O   0  0  0  0  0  0  0  0  0  0  0  0
  -17.9025   13.5550  -20.3174 O   0  0  0  0  0  0  0  0  0  0  0  0
  -18.2081   14.7373  -20.6897 C   0  0  0  0  0  0  0  0  0  0  0  0
  -17.0520   15.5423  -21.0271 C   0  0  0  0  0  0  0  0  0  0  0  0
  -17.1395   16.8236  -21.4484 C   0  0  0  0  0  0  0  0  0  0  0  0
  -18.3393   17.4471  -21.5831 C   0  0  0  0  0  0  0  0  0  0  0  0
  -19.4737   16.6924  -21.2644 C   0  0  0  0  0  0  0  0  0  0  0  0
  -19.3967   15.3872  -20.8357 C   0  0  0  0  0  0  0  0  0  0  0  0
  -20.6210   14.8282  -20.6089 F   0  0  0  0  0  0  0  0  0  0  0  0
  -18.5229   18.7766  -21.9851 N   0  0  0  0  0  0  0  0  0  0  0  0
  -18.7275   19.8786  -21.1482 C   0  0  0  0  0  0  0  0  0  0  0  0
  -18.7696   19.7486  -19.9023 O   0  0  0  0  0  0  0  0  0  0  0  0
  -18.5030   18.9882  -23.0234 H   0  0  0  0  0  0  0  0  0  0  0  0
  -18.9009   21.2345  -21.7282 C   0  0  0  0  0  0  0  0  0  0  0  0
  -19.0397   22.2619  -20.9185 C   0  0  0  0  0  0  0  0  0  0  0  0
  -20.0054    9.6112  -15.7339 O   0  0  0  0  0  0  0  0  0  0  0  0
  -20.0514    8.8998  -14.6411 C   0  0  0  0  0  0  0  0  0  0  0  0
  -20.9823    7.7429  -14.4273 C   0  0  0  0  0  0  0  0  0  0  0  0
  -20.3015    6.4978  -13.9798 C   0  0  0  0  0  0  0  0  0  0  0  0
  -20.2838    5.5670  -15.1345 N   0  0  0  0  0  0  0  0  0  0  0  0
  -20.1958    4.2043  -14.6412 C   0  0  0  0  0  0  0  0  0  0  0  0
  -21.5296    3.5595  -14.3947 C   0  0  0  0  0  0  0  0  0  0  0  0
  -22.3358    3.5330  -15.5219 O   0  0  0  0  0  0  0  0  0  0  0  0
  -21.9334    4.4674  -16.4721 C   0  0  0  0  0  0  0  0  0  0  0  0
  -21.5226    5.7740  -15.8345 C   0  0  0  0  0  0  0  0  0  0  0  0
 11 12  1  0  0  0
 12  1  1  0  0  0
  1  2  2  0  0  0
  2  3  1  0  0  0
  3  4  2  0  0  0
  4 13  1  0  0  0
 13 14  1  0  0  0
 14 15  2  0  0  0
 15 16  1  0  0  0
 16 17  2  0  0  0
 17 21  1  0  0  0
 21 22  1  0  0  0
 22 23  2  0  0  0
 22 25  1  0  0  0
 25 26  2  0  0  0
 17 18  1  0  0  0
 18 19  2  0  0  0
 19 20  1  0  0  0
  4  5  1  0  0  0
  5  6  2  0  0  0
  6  7  1  0  0  0
  7  8  2  0  0  0
  8  9  1  0  0  0
  9 10  2  0  0  0
 10 27  1  0  0  0
 27 28  1  0  0  0
 28 29  1  0  0  0
 29 30  1  0  0  0
 30 31  1  0  0  0
 31 32  1  0  0  0
 32 33  1  0  0  0
 33 34  1  0  0  0
 34 35  1  0  0  0
 35 36  1  0  0  0
 10  1  1  0  0  0
 36 31  1  0  0  0
  8  3  1  0  0  0
 19 14  1  0  0  0
 21 24  1  0  0  0
M  END
> <minimizedAffinity>
-6.92279

> <CNNscore>
0.5904564857

> <CNNaffinity>
6.7980527878

> <CNN_VS>
4.0139541626

> <CNNaffinity_variance>
0.1054151431

$$$$
[H]C([H])=C([H])C(=O)N([H])c1c([H])c([H])c(Oc2c([H])c([H])nc3c([H])c(OC([H])([H])C([H])([H])C([H])([H])N4C([H])([H])C([H])([H])OC([H])([H])C4([H])[H])c(OC([H])([H])[H])c([H])c23)c(F)c1[H]


 36 39  0  0  0  0  0  0  0  0999 V2000
  -19.7715   11.5172  -17.1372 C   0  0  0  0  0  0  0  0  0  0  0  0
  -19.1925   12.1460  -18.1902 C   0  0  0  0  0  0  0  0  0  0  0  0
  -18.2380   11.6016  -19.0406 C   0  0  0  0  0  0  0  0  0  0  0  0
  -17.6974   12.3386  -20.0664 C   0  0  0  0  0  0  0  0  0  0  0  0
  -16.6940   11.6235  -20.8211 C   0  0  0  0  0  0  0  0  0  0  0  0
  -16.3525   10.3553  -20.5197 C   0  0  0  0  0  0  0  0  0  0  0  0
  -16.9362    9.7194  -19.5053 N   0  0  0  0  0  0  0  0  0  0  0  0
  -17.8695   10.3090  -18.7587 C   0  0  0  0  0  0  0  0  0  0  0  0
  -18.4324    9.6128  -17.6869 C   0  0  0  0  0  0  0  0  0  0  0  0
  -19.3779   10.1792  -16.8630 C   0  0  0  0  0  0  0  0  0  0  0  0
  -21.0535   13.4667  -16.4390 C   0  0  0  0  0  0  0  0  0  0  0  0
  -20.7237   12.0853  -16.3027 O   0  0  0  0  0  0  0  0  0  0  0  0
  -17.9528   13.5395  -20.4357 O   0  0  0  0  0  0  0  0  0  0  0  0
  -18.2915   14.7164  -20.7962 C   0  0  0  0  0  0  0  0  0  0  0  0
  -17.1769   15.5032  -21.2832 C   0  0  0  0  0  0  0  0  0  0  0  0
  -17.3040   16.7760  -21.7199 C   0  0  0  0  0  0  0  0  0  0  0  0
  -18.5070   17.4076  -21.7286 C   0  0  0  0  0  0  0  0  0  0  0  0
  -19.6019   16.6706  -21.2639 C   0  0  0  0  0  0  0  0  0  0  0  0
  -19.4846   15.3741  -20.8181 C   0  0  0  0  0  0  0  0  0  0  0  0
  -20.6781   14.8315  -20.4386 F   0  0  0  0  0  0  0  0  0  0  0  0
  -18.7270   18.7299  -22.1361 N   0  0  0  0  0  0  0  0  0  0  0  0
  -18.7778   19.8579  -21.3105 C   0  0  0  0  0  0  0  0  0  0  0  0
  -18.6264   19.7618  -20.0700 O   0  0  0  0  0  0  0  0  0  0  0  0
  -18.8662   18.9136  -23.1705 H   0  0  0  0  0  0  0  0  0  0  0  0
  -19.0150   21.2017  -21.8961 C   0  0  0  0  0  0  0  0  0  0  0  0
  -19.0206   22.2514  -21.1032 C   0  0  0  0  0  0  0  0  0  0  0  0
  -19.9158    9.5264  -15.8503 O   0  0  0  0  0  0  0  0  0  0  0  0
  -19.9526    8.7047  -14.8374 C   0  0  0  0  0  0  0  0  0  0  0  0
  -19.0852    8.8288  -13.6198 C   0  0  0  0  0  0  0  0  0  0  0  0
  -19.6459    8.1657  -12.4116 C   0  0  0  0  0  0  0  0  0  0  0  0
  -20.1984    9.2321  -11.5411 N   0  0  0  0  0  0  0  0  0  0  0  0
  -20.8039    8.6205  -10.3717 C   0  0  0  0  0  0  0  0  0  0  0  0
  -19.8575    8.4438   -9.2191 C   0  0  0  0  0  0  0  0  0  0  0  0
  -19.2807    9.6337   -8.8035 O   0  0  0  0  0  0  0  0  0  0  0  0
  -19.3523   10.6179   -9.7853 C   0  0  0  0  0  0  0  0  0  0  0  0
  -19.0834   10.0570  -11.1621 C   0  0  0  0  0  0  0  0  0  0  0  0
 11 12  1  0  0  0
 12  1  1  0  0  0
  1  2  2  0  0  0
  2  3  1  0  0  0
  3  4  2  0  0  0
  4 13  1  0  0  0
 13 14  1  0  0  0
 14 15  2  0  0  0
 15 16  1  0  0  0
 16 17  2  0  0  0
 17 21  1  0  0  0
 21 22  1  0  0  0
 22 23  2  0  0  0
 22 25  1  0  0  0
 25 26  2  0  0  0
 17 18  1  0  0  0
 18 19  2  0  0  0
 19 20  1  0  0  0
  4  5  1  0  0  0
  5  6  2  0  0  0
  6  7  1  0  0  0
  7  8  2  0  0  0
  8  9  1  0  0  0
  9 10  2  0  0  0
 10 27  1  0  0  0
 27 28  1  0  0  0
 28 29  1  0  0  0
 29 30  1  0  0  0
 30 31  1  0  0  0
 31 32  1  0  0  0
 32 33  1  0  0  0
 33 34  1  0  0  0
 34 35  1  0  0  0
 35 36  1  0  0  0
 10  1  1  0  0  0
 36 31  1  0  0  0
  8  3  1  0  0  0
 19 14  1  0  0  0
 21 24  1  0  0  0
M  END
> <minimizedAffinity>
-6.93346

> <CNNscore>
0.5892699957

> <CNNaffinity>
6.7586393356

> <CNN_VS>
3.9826633930

> <CNNaffinity_variance>
0.0696934238

$$$$
[H]C([H])=C([H])C(=O)N([H])c1c([H])c([H])c(Oc2c([H])c([H])nc3c([H])c(OC([H])([H])C([H])([H])C([H])([H])N4C([H])([H])C([H])([H])OC([H])([H])C4([H])[H])c(OC([H])([H])[H])c([H])c23)c(F)c1[H]


 36 39  0  0  0  0  0  0  0  0999 V2000
  -19.5078   11.5440  -17.5975 C   0  0  0  0  0  0  0  0  0  0  0  0
  -19.1050   12.2469  -18.6852 C   0  0  0  0  0  0  0  0  0  0  0  0
  -18.1545   11.8395  -19.6132 C   0  0  0  0  0  0  0  0  0  0  0  0
  -17.8024   12.6445  -20.6695 C   0  0  0  0  0  0  0  0  0  0  0  0
  -16.7728   12.0746  -21.5080 C   0  0  0  0  0  0  0  0  0  0  0  0
  -16.2379   10.8655  -21.2483 C   0  0  0  0  0  0  0  0  0  0  0  0
  -16.6474   10.1547  -20.1989 N   0  0  0  0  0  0  0  0  0  0  0  0
  -17.5912   10.6099  -19.3754 C   0  0  0  0  0  0  0  0  0  0  0  0
  -17.9674    9.8423  -18.2710 C   0  0  0  0  0  0  0  0  0  0  0  0
  -18.9139   10.2727  -17.3698 C   0  0  0  0  0  0  0  0  0  0  0  0
  -20.7351   13.3687  -16.5509 C   0  0  0  0  0  0  0  0  0  0  0  0
  -20.4604   11.9751  -16.6852 O   0  0  0  0  0  0  0  0  0  0  0  0
  -18.2484   13.7989  -21.0043 O   0  0  0  0  0  0  0  0  0  0  0  0
  -18.7641   14.9092  -21.3667 C   0  0  0  0  0  0  0  0  0  0  0  0
  -18.3521   15.3197  -22.6933 C   0  0  0  0  0  0  0  0  0  0  0  0
  -18.7770   16.4606  -23.2806 C   0  0  0  0  0  0  0  0  0  0  0  0
  -19.6318   17.3084  -22.6508 C   0  0  0  0  0  0  0  0  0  0  0  0
  -20.0470   16.9362  -21.3675 C   0  0  0  0  0  0  0  0  0  0  0  0
  -19.6220   15.7768  -20.7603 C   0  0  0  0  0  0  0  0  0  0  0  0
  -20.1705   15.5911  -19.5243 F   0  0  0  0  0  0  0  0  0  0  0  0
  -20.1012   18.5221  -23.1699 N   0  0  0  0  0  0  0  0  0  0  0  0
  -21.3298   18.7372  -23.8030 C   0  0  0  0  0  0  0  0  0  0  0  0
  -22.1481   17.8021  -23.9669 O   0  0  0  0  0  0  0  0  0  0  0  0
  -19.4782   19.3746  -23.0787 H   0  0  0  0  0  0  0  0  0  0  0  0
  -21.6883   20.0909  -24.2970 C   0  0  0  0  0  0  0  0  0  0  0  0
  -20.7727   21.0355  -24.2910 C   0  0  0  0  0  0  0  0  0  0  0  0
  -19.2761    9.5517  -16.3258 O   0  0  0  0  0  0  0  0  0  0  0  0
  -19.7125    8.5003  -15.6881 C   0  0  0  0  0  0  0  0  0  0  0  0
  -20.9937    8.4590  -14.9089 C   0  0  0  0  0  0  0  0  0  0  0  0
  -20.9671    9.2733  -13.6638 C   0  0  0  0  0  0  0  0  0  0  0  0
  -22.3646    9.3800  -13.1783 N   0  0  0  0  0  0  0  0  0  0  0  0
  -22.7235   10.7832  -13.0774 C   0  0  0  0  0  0  0  0  0  0  0  0
  -23.3252   11.3487  -14.3319 C   0  0  0  0  0  0  0  0  0  0  0  0
  -24.4595   10.6671  -14.7444 O   0  0  0  0  0  0  0  0  0  0  0  0
  -24.5318    9.3925  -14.1895 C   0  0  0  0  0  0  0  0  0  0  0  0
  -23.1807    8.7169  -14.1589 C   0  0  0  0  0  0  0  0  0  0  0  0
 11 12  1  0  0  0
 12  1  1  0  0  0
  1  2  2  0  0  0
  2  3  1  0  0  0
  3  4  2  0  0  0
  4 13  1  0  0  0
 13 14  1  0  0  0
 14 15  2  0  0  0
 15 16  1  0  0  0
 16 17  2  0  0  0
 17 21  1  0  0  0
 21 22  1  0  0  0
 22 23  2  0  0  0
 22 25  1  0  0  0
 25 26  2  0  0  0
 17 18  1  0  0  0
 18 19  2  0  0  0
 19 20  1  0  0  0
  4  5  1  0  0  0
  5  6  2  0  0  0
  6  7  1  0  0  0
  7  8  2  0  0  0
  8  9  1  0  0  0
  9 10  2  0  0  0
 10 27  1  0  0  0
 27 28  1  0  0  0
 28 29  1  0  0  0
 29 30  1  0  0  0
 30 31  1  0  0  0
 31 32  1  0  0  0
 32 33  1  0  0  0
 33 34  1  0  0  0
 34 35  1  0  0  0
 35 36  1  0  0  0
 10  1  1  0  0  0
 36 31  1  0  0  0
  8  3  1  0  0  0
 19 14  1  0  0  0
 21 24  1  0  0  0
M  END
> <minimizedAffinity>
-6.71680

> <CNNscore>
0.4146321714

> <CNNaffinity>
6.6328368187

> <CNN_VS>
2.7501876354

> <CNNaffinity_variance>
0.1337943375

$$$$
[H]C([H])=C([H])C(=O)N([H])c1c([H])c([H])c(Oc2c([H])c([H])nc3c([H])c(OC([H])([H])C([H])([H])C([H])([H])N4C([H])([H])C([H])([H])OC([H])([H])C4([H])[H])c(OC([H])([H])[H])c([H])c23)c(F)c1[H]


 36 39  0  0  0  0  0  0  0  0999 V2000
  -19.1865   14.0792  -20.6950 C   0  0  0  0  0  0  0  0  0  0  0  0
  -18.8907   12.9617  -19.9857 C   0  0  0  0  0  0  0  0  0  0  0  0
  -17.8768   12.0567  -20.2753 C   0  0  0  0  0  0  0  0  0  0  0  0
  -17.6792   10.9394  -19.5005 C   0  0  0  0  0  0  0  0  0  0  0  0
  -16.6068   10.0944  -19.9735 C   0  0  0  0  0  0  0  0  0  0  0  0
  -15.8900   10.4087  -21.0704 C   0  0  0  0  0  0  0  0  0  0  0  0
  -16.1540   11.5189  -21.7572 N   0  0  0  0  0  0  0  0  0  0  0  0
  -17.1279   12.3506  -21.3882 C   0  0  0  0  0  0  0  0  0  0  0  0
  -17.3876   13.4876  -22.1564 C   0  0  0  0  0  0  0  0  0  0  0  0
  -18.3986   14.3666  -21.8426 C   0  0  0  0  0  0  0  0  0  0  0  0
  -21.2348   14.5764  -19.4747 C   0  0  0  0  0  0  0  0  0  0  0  0
  -20.2064   14.9671  -20.3832 O   0  0  0  0  0  0  0  0  0  0  0  0
  -18.2977   10.5538  -18.4458 O   0  0  0  0  0  0  0  0  0  0  0  0
  -18.9874   10.1961  -17.4327 C   0  0  0  0  0  0  0  0  0  0  0  0
  -18.5632    8.9274  -16.8772 C   0  0  0  0  0  0  0  0  0  0  0  0
  -19.1495    8.3573  -15.8009 C   0  0  0  0  0  0  0  0  0  0  0  0
  -20.1924    8.9499  -15.1626 C   0  0  0  0  0  0  0  0  0  0  0  0
  -20.6228   10.1776  -15.6778 C   0  0  0  0  0  0  0  0  0  0  0  0
  -20.0329   10.7678  -16.7720 C   0  0  0  0  0  0  0  0  0  0  0  0
  -20.5863   11.9745  -17.0891 F   0  0  0  0  0  0  0  0  0  0  0  0
  -20.8768    8.4204  -14.0608 N   0  0  0  0  0  0  0  0  0  0  0  0
  -21.9813    7.5631  -14.1004 C   0  0  0  0  0  0  0  0  0  0  0  0
  -22.4727    7.1873  -15.1904 O   0  0  0  0  0  0  0  0  0  0  0  0
  -20.5345    8.6810  -13.0922 H   0  0  0  0  0  0  0  0  0  0  0  0
  -22.5967    7.0795  -12.8384 C   0  0  0  0  0  0  0  0  0  0  0  0
  -22.1657    7.5614  -11.6927 C   0  0  0  0  0  0  0  0  0  0  0  0
  -18.6479   15.4441  -22.5624 O   0  0  0  0  0  0  0  0  0  0  0  0
  -18.6415   16.2064  -23.6213 C   0  0  0  0  0  0  0  0  0  0  0  0
  -17.8286   17.4605  -23.7519 C   0  0  0  0  0  0  0  0  0  0  0  0
  -16.6715   17.3335  -24.6786 C   0  0  0  0  0  0  0  0  0  0  0  0
  -16.3025   15.8977  -24.7272 N   0  0  0  0  0  0  0  0  0  0  0  0
  -16.0013   15.5339  -26.1002 C   0  0  0  0  0  0  0  0  0  0  0  0
  -14.5581   15.7141  -26.4744 C   0  0  0  0  0  0  0  0  0  0  0  0
  -13.6937   14.9950  -25.6639 O   0  0  0  0  0  0  0  0  0  0  0  0
  -14.2876   14.6382  -24.4565 C   0  0  0  0  0  0  0  0  0  0  0  0
  -15.1368   15.7558  -23.8975 C   0  0  0  0  0  0  0  0  0  0  0  0
 11 12  1  0  0  0
 12  1  1  0  0  0
  1  2  2  0  0  0
  2  3  1  0  0  0
  3  4  2  0  0  0
  4 13  1  0  0  0
 13 14  1  0  0  0
 14 15  2  0  0  0
 15 16  1  0  0  0
 16 17  2  0  0  0
 17 21  1  0  0  0
 21 22  1  0  0  0
 22 23  2  0  0  0
 22 25  1  0  0  0
 25 26  2  0  0  0
 17 18  1  0  0  0
 18 19  2  0  0  0
 19 20  1  0  0  0
  4  5  1  0  0  0
  5  6  2  0  0  0
  6  7  1  0  0  0
  7  8  2  0  0  0
  8  9  1  0  0  0
  9 10  2  0  0  0
 10 27  1  0  0  0
 27 28  1  0  0  0
 28 29  1  0  0  0
 29 30  1  0  0  0
 30 31  1  0  0  0
 31 32  1  0  0  0
 32 33  1  0  0  0
 33 34  1  0  0  0
 34 35  1  0  0  0
 35 36  1  0  0  0
 10  1  1  0  0  0
 36 31  1  0  0  0
  8  3  1  0  0  0
 19 14  1  0  0  0
 21 24  1  0  0  0
M  END
> <minimizedAffinity>
-8.38987

> <CNNscore>
0.3159186840

> <CNNaffinity>
6.5940070152

> <CNN_VS>
2.0831699371

> <CNNaffinity_variance>
0.2340075225

$$$$
[H]C([H])=C([H])C(=O)N([H])c1c([H])c([H])c(Oc2c([H])c([H])nc3c([H])c(OC([H])([H])C([H])([H])C([H])([H])N4C([H])([H])C([H])([H])OC([H])([H])C4([H])[H])c(OC([H])([H])[H])c([H])c23)c(F)c1[H]


 36 39  0  0  0  0  0  0  0  0999 V2000
  -20.3419   14.0277  -17.9678 C   0  0  0  0  0  0  0  0  0  0  0  0
  -19.4620   13.2479  -18.6438 C   0  0  0  0  0  0  0  0  0  0  0  0
  -19.0903   11.9532  -18.3026 C   0  0  0  0  0  0  0  0  0  0  0  0
  -18.1676   11.2593  -19.0475 C   0  0  0  0  0  0  0  0  0  0  0  0
  -17.8761    9.9452  -18.5221 C   0  0  0  0  0  0  0  0  0  0  0  0
  -18.4757    9.4794  -17.4090 C   0  0  0  0  0  0  0  0  0  0  0  0
  -19.3629   10.2266  -16.7541 N   0  0  0  0  0  0  0  0  0  0  0  0
  -19.6856   11.4504  -17.1718 C   0  0  0  0  0  0  0  0  0  0  0  0
  -20.5991   12.2084  -16.4360 C   0  0  0  0  0  0  0  0  0  0  0  0
  -20.9485   13.4883  -16.8009 C   0  0  0  0  0  0  0  0  0  0  0  0
  -21.0103   15.6133  -19.6913 C   0  0  0  0  0  0  0  0  0  0  0  0
  -20.6956   15.3194  -18.3310 O   0  0  0  0  0  0  0  0  0  0  0  0
  -17.5468   11.6072  -20.1139 O   0  0  0  0  0  0  0  0  0  0  0  0
  -17.0022   11.9904  -21.2031 C   0  0  0  0  0  0  0  0  0  0  0  0
  -17.6616   13.1368  -21.7942 C   0  0  0  0  0  0  0  0  0  0  0  0
  -17.2537   13.7125  -22.9471 C   0  0  0  0  0  0  0  0  0  0  0  0
  -16.1807   13.2422  -23.6355 C   0  0  0  0  0  0  0  0  0  0  0  0
  -15.5238   12.1353  -23.0868 C   0  0  0  0  0  0  0  0  0  0  0  0
  -15.9294   11.5419  -21.9134 C   0  0  0  0  0  0  0  0  0  0  0  0
  -15.1329   10.4977  -21.5417 F   0  0  0  0  0  0  0  0  0  0  0  0
  -15.7053   13.7569  -24.8487 N   0  0  0  0  0  0  0  0  0  0  0  0
  -15.1301   15.0159  -25.0507 C   0  0  0  0  0  0  0  0  0  0  0  0
  -14.9947   15.8270  -24.1048 O   0  0  0  0  0  0  0  0  0  0  0  0
  -15.7760   13.1429  -25.7097 H   0  0  0  0  0  0  0  0  0  0  0  0
  -14.6664   15.4166  -26.4032 C   0  0  0  0  0  0  0  0  0  0  0  0
  -15.5454   15.5097  -27.3775 C   0  0  0  0  0  0  0  0  0  0  0  0
  -21.8127   14.2091  -16.1120 O   0  0  0  0  0  0  0  0  0  0  0  0
  -22.2175   15.0274  -15.1798 C   0  0  0  0  0  0  0  0  0  0  0  0
  -22.4059   16.5026  -15.3770 C   0  0  0  0  0  0  0  0  0  0  0  0
  -21.7077   17.3390  -14.3636 C   0  0  0  0  0  0  0  0  0  0  0  0
  -21.1415   18.5108  -15.0752 N   0  0  0  0  0  0  0  0  0  0  0  0
  -19.6923   18.4408  -15.0213 C   0  0  0  0  0  0  0  0  0  0  0  0
  -19.0764   17.6948  -16.1701 C   0  0  0  0  0  0  0  0  0  0  0  0
  -19.4125   18.2270  -17.4050 O   0  0  0  0  0  0  0  0  0  0  0  0
  -20.5544   19.0203  -17.3369 C   0  0  0  0  0  0  0  0  0  0  0  0
  -21.6037   18.4160  -16.4334 C   0  0  0  0  0  0  0  0  0  0  0  0
 11 12  1  0  0  0
 12  1  1  0  0  0
  1  2  2  0  0  0
  2  3  1  0  0  0
  3  4  2  0  0  0
  4 13  1  0  0  0
 13 14  1  0  0  0
 14 15  2  0  0  0
 15 16  1  0  0  0
 16 17  2  0  0  0
 17 21  1  0  0  0
 21 22  1  0  0  0
 22 23  2  0  0  0
 22 25  1  0  0  0
 25 26  2  0  0  0
 17 18  1  0  0  0
 18 19  2  0  0  0
 19 20  1  0  0  0
  4  5  1  0  0  0
  5  6  2  0  0  0
  6  7  1  0  0  0
  7  8  2  0  0  0
  8  9  1  0  0  0
  9 10  2  0  0  0
 10 27  1  0  0  0
 27 28  1  0  0  0
 28 29  1  0  0  0
 29 30  1  0  0  0
 30 31  1  0  0  0
 31 32  1  0  0  0
 32 33  1  0  0  0
 33 34  1  0  0  0
 34 35  1  0  0  0
 35 36  1  0  0  0
 10  1  1  0  0  0
 36 31  1  0  0  0
  8  3  1  0  0  0
 19 14  1  0  0  0
 21 24  1  0  0  0
M  END
> <minimizedAffinity>
-7.72105

> <CNNscore>
0.3027799129

> <CNNaffinity>
6.6070227623

> <CNN_VS>
2.0004737377

> <CNNaffinity_variance>
0.2654665112

$$$$
[H]c1nc2c([H])c(OC([H])([H])[H])c(OC([H])([H])[H])c([H])c2c(Oc2c([H])c([H])c(N([H])C(=O)N([H])c3c(Cl)c([H])c([H])c([H])c3Cl)c([H])c2F)c1[H]


 36 39  0  0  0  0  0  0  0  0999 V2000
  -18.6096   11.7344  -18.3078 C   0  0  0  0  0  0  0  0  0  0  0  0
  -17.4279   11.0601  -18.4130 C   0  0  0  0  0  0  0  0  0  0  0  0
  -16.7108   11.0586  -19.5844 C   0  0  0  0  0  0  0  0  0  0  0  0
  -17.1658   11.7383  -20.6878 C   0  0  0  0  0  0  0  0  0  0  0  0
  -18.3865   12.4349  -20.5774 C   0  0  0  0  0  0  0  0  0  0  0  0
  -19.0837   12.4233  -19.4005 C   0  0  0  0  0  0  0  0  0  0  0  0
  -20.2470   13.1467  -19.3873 F   0  0  0  0  0  0  0  0  0  0  0  0
  -16.4868   11.7554  -21.9323 N   0  0  0  0  0  0  0  0  0  0  0  0
  -16.5358   12.7641  -22.9006 C   0  0  0  0  0  0  0  0  0  0  0  0
  -17.2015   13.7965  -22.7629 O   0  0  0  0  0  0  0  0  0  0  0  0
  -15.7790   12.5901  -24.1063 N   0  0  0  0  0  0  0  0  0  0  0  0
  -15.8819   10.8914  -22.1321 H   0  0  0  0  0  0  0  0  0  0  0  0
  -15.2013   11.7330  -24.2668 H   0  0  0  0  0  0  0  0  0  0  0  0
  -15.8393   13.6212  -25.0774 C   0  0  0  0  0  0  0  0  0  0  0  0
  -14.9712   14.7022  -25.0236 C   0  0  0  0  0  0  0  0  0  0  0  0
  -13.8027   14.7359  -23.7080 Cl  0  0  0  0  0  0  0  0  0  0  0  0
  -15.0146   15.7148  -25.9593 C   0  0  0  0  0  0  0  0  0  0  0  0
  -15.9367   15.6848  -26.9945 C   0  0  0  0  0  0  0  0  0  0  0  0
  -16.8065   14.6169  -27.0616 C   0  0  0  0  0  0  0  0  0  0  0  0
  -16.7533   13.6097  -26.1195 C   0  0  0  0  0  0  0  0  0  0  0  0
  -17.8568   12.2583  -26.2079 Cl  0  0  0  0  0  0  0  0  0  0  0  0
  -19.3562   11.7547  -17.1323 O   0  0  0  0  0  0  0  0  0  0  0  0
  -21.9254   12.3431  -14.0189 C   0  0  0  0  0  0  0  0  0  0  0  0
  -21.0574   12.1420  -15.0692 C   0  0  0  0  0  0  0  0  0  0  0  0
  -20.6436   10.8560  -15.3632 C   0  0  0  0  0  0  0  0  0  0  0  0
  -19.7601   10.6561  -16.4330 C   0  0  0  0  0  0  0  0  0  0  0  0
  -19.3869    9.3648  -16.6744 C   0  0  0  0  0  0  0  0  0  0  0  0
  -19.8624    8.3255  -15.9001 C   0  0  0  0  0  0  0  0  0  0  0  0
  -20.7075    8.5459  -14.8823 N   0  0  0  0  0  0  0  0  0  0  0  0
  -21.0959    9.7964  -14.6140 C   0  0  0  0  0  0  0  0  0  0  0  0
  -21.9752   10.0411  -13.5573 C   0  0  0  0  0  0  0  0  0  0  0  0
  -22.3884   11.3005  -13.2592 C   0  0  0  0  0  0  0  0  0  0  0  0
  -23.0399   14.4110  -14.6927 C   0  0  0  0  0  0  0  0  0  0  0  0
  -22.3447   13.6263  -13.7175 O   0  0  0  0  0  0  0  0  0  0  0  0
  -23.2555   11.5622  -12.2208 O   0  0  0  0  0  0  0  0  0  0  0  0
  -24.6565   11.4751  -12.4157 C   0  0  0  0  0  0  0  0  0  0  0  0
 33 34  1  0  0  0
 34 23  1  0  0  0
 23 24  2  0  0  0
 24 25  1  0  0  0
 25 26  2  0  0  0
 26 22  1  0  0  0
 22  1  1  0  0  0
  1  2  2  0  0  0
  2  3  1  0  0  0
  3  4  2  0  0  0
  4  8  1  0  0  0
  8  9  1  0  0  0
  9 10  2  0  0  0
  9 11  1  0  0  0
 11 14  1  0  0  0
 14 15  2  0  0  0
 15 16  1  0  0  0
 15 17  1  0  0  0
 17 18  2  0  0  0
 18 19  1  0  0  0
 19 20  2  0  0  0
 20 21  1  0  0  0
  4  5  1  0  0  0
  5  6  2  0  0  0
  6  7  1  0  0  0
 26 27  1  0  0  0
 27 28  2  0  0  0
 28 29  1  0  0  0
 29 30  2  0  0  0
 30 31  1  0  0  0
 31 32  2  0  0  0
 32 35  1  0  0  0
 35 36  1  0  0  0
 32 23  1  0  0  0
 30 25  1  0  0  0
  6  1  1  0  0  0
 20 14  1  0  0  0
  8 12  1  0  0  0
 11 13  1  0  0  0
M  END
> <minimizedAffinity>
-9.11635

> <CNNscore>
0.3278013468

> <CNNaffinity>
7.0392980576

> <CNN_VS>
2.3074913025

> <CNNaffinity_variance>
0.0612731352

$$$$
[H]c1nc2c([H])c(OC([H])([H])[H])c(OC([H])([H])[H])c([H])c2c(Oc2c([H])c([H])c(N([H])C(=O)N([H])c3c(Cl)c([H])c([H])c([H])c3Cl)c([H])c2F)c1[H]


 36 39  0  0  0  0  0  0  0  0999 V2000
  -19.3542   14.4931  -18.8104 C   0  0  0  0  0  0  0  0  0  0  0  0
  -20.3805   13.9409  -19.5202 C   0  0  0  0  0  0  0  0  0  0  0  0
  -21.3097   14.7266  -20.1569 C   0  0  0  0  0  0  0  0  0  0  0  0
  -21.2317   16.0965  -20.0961 C   0  0  0  0  0  0  0  0  0  0  0  0
  -20.1704   16.6657  -19.3629 C   0  0  0  0  0  0  0  0  0  0  0  0
  -19.2559   15.8636  -18.7372 C   0  0  0  0  0  0  0  0  0  0  0  0
  -18.2511   16.5113  -18.0681 F   0  0  0  0  0  0  0  0  0  0  0  0
  -22.1720   16.9628  -20.7091 N   0  0  0  0  0  0  0  0  0  0  0  0
  -21.9700   17.7478  -21.8494 C   0  0  0  0  0  0  0  0  0  0  0  0
  -20.9036   17.7637  -22.4744 O   0  0  0  0  0  0  0  0  0  0  0  0
  -23.0500   18.5702  -22.3119 N   0  0  0  0  0  0  0  0  0  0  0  0
  -23.1302   17.0077  -20.2272 H   0  0  0  0  0  0  0  0  0  0  0  0
  -23.9703   18.5893  -21.8151 H   0  0  0  0  0  0  0  0  0  0  0  0
  -22.8292   19.3597  -23.4685 C   0  0  0  0  0  0  0  0  0  0  0  0
  -22.4027   20.6757  -23.3622 C   0  0  0  0  0  0  0  0  0  0  0  0
  -22.1502   21.3151  -21.7420 Cl  0  0  0  0  0  0  0  0  0  0  0  0
  -22.1825   21.4593  -24.4758 C   0  0  0  0  0  0  0  0  0  0  0  0
  -22.3825   20.9520  -25.7507 C   0  0  0  0  0  0  0  0  0  0  0  0
  -22.8065   19.6455  -25.8731 C   0  0  0  0  0  0  0  0  0  0  0  0
  -23.0233   18.8714  -24.7513 C   0  0  0  0  0  0  0  0  0  0  0  0
  -23.5604   17.2167  -24.9102 Cl  0  0  0  0  0  0  0  0  0  0  0  0
  -18.3971   13.7208  -18.1569 O   0  0  0  0  0  0  0  0  0  0  0  0
  -20.0872   10.7114  -15.9826 C   0  0  0  0  0  0  0  0  0  0  0  0
  -19.5148   11.7258  -16.7177 C   0  0  0  0  0  0  0  0  0  0  0  0
  -18.6371   11.4055  -17.7368 C   0  0  0  0  0  0  0  0  0  0  0  0
  -18.0569   12.4411  -18.4823 C   0  0  0  0  0  0  0  0  0  0  0  0
  -17.1984   12.0628  -19.4746 C   0  0  0  0  0  0  0  0  0  0  0  0
  -16.9281   10.7311  -19.7183 C   0  0  0  0  0  0  0  0  0  0  0  0
  -17.4981    9.7605  -18.9892 N   0  0  0  0  0  0  0  0  0  0  0  0
  -18.3439   10.0905  -18.0082 C   0  0  0  0  0  0  0  0  0  0  0  0
  -18.9447    9.0907  -17.2407 C   0  0  0  0  0  0  0  0  0  0  0  0
  -19.8084    9.3937  -16.2368 C   0  0  0  0  0  0  0  0  0  0  0  0
  -20.4769   11.3458  -13.6549 C   0  0  0  0  0  0  0  0  0  0  0  0
  -20.9664   11.0225  -14.9611 O   0  0  0  0  0  0  0  0  0  0  0  0
  -20.4112    8.4216  -15.4685 O   0  0  0  0  0  0  0  0  0  0  0  0
  -19.6340    7.5849  -14.6293 C   0  0  0  0  0  0  0  0  0  0  0  0
 33 34  1  0  0  0
 34 23  1  0  0  0
 23 24  2  0  0  0
 24 25  1  0  0  0
 25 26  2  0  0  0
 26 22  1  0  0  0
 22  1  1  0  0  0
  1  2  2  0  0  0
  2  3  1  0  0  0
  3  4  2  0  0  0
  4  8  1  0  0  0
  8  9  1  0  0  0
  9 10  2  0  0  0
  9 11  1  0  0  0
 11 14  1  0  0  0
 14 15  2  0  0  0
 15 16  1  0  0  0
 15 17  1  0  0  0
 17 18  2  0  0  0
 18 19  1  0  0  0
 19 20  2  0  0  0
 20 21  1  0  0  0
  4  5  1  0  0  0
  5  6  2  0  0  0
  6  7  1  0  0  0
 26 27  1  0  0  0
 27 28  2  0  0  0
 28 29  1  0  0  0
 29 30  2  0  0  0
 30 31  1  0  0  0
 31 32  2  0  0  0
 32 35  1  0  0  0
 35 36  1  0  0  0
 32 23  1  0  0  0
 30 25  1  0  0  0
  6  1  1  0  0  0
 20 14  1  0  0  0
  8 12  1  0  0  0
 11 13  1  0  0  0
M  END
> <minimizedAffinity>
-7.95553

> <CNNscore>
0.2474118024

> <CNNaffinity>
6.5809478760

> <CNN_VS>
1.6282042265

> <CNNaffinity_variance>
0.0634360611

$$$$
[H]c1nc2c([H])c(OC([H])([H])[H])c(OC([H])([H])[H])c([H])c2c(Oc2c([H])c([H])c(N([H])C(=O)N([H])c3c(Cl)c([H])c([H])c([H])c3Cl)c([H])c2F)c1[H]


 36 39  0  0  0  0  0  0  0  0999 V2000
  -19.3388   14.4397  -19.0434 C   0  0  0  0  0  0  0  0  0  0  0  0
  -20.5379   13.9968  -19.5212 C   0  0  0  0  0  0  0  0  0  0  0  0
  -21.4523   14.8653  -20.0650 C   0  0  0  0  0  0  0  0  0  0  0  0
  -21.1843   16.2102  -20.1428 C   0  0  0  0  0  0  0  0  0  0  0  0
  -19.9448   16.6662  -19.6493 C   0  0  0  0  0  0  0  0  0  0  0  0
  -19.0487   15.7829  -19.1124 C   0  0  0  0  0  0  0  0  0  0  0  0
  -17.8652   16.3203  -18.6797 F   0  0  0  0  0  0  0  0  0  0  0  0
  -22.0946   17.1614  -20.6688 N   0  0  0  0  0  0  0  0  0  0  0  0
  -21.9393   17.9136  -21.8381 C   0  0  0  0  0  0  0  0  0  0  0  0
  -20.9494   17.8180  -22.5725 O   0  0  0  0  0  0  0  0  0  0  0  0
  -22.9761   18.8363  -22.1989 N   0  0  0  0  0  0  0  0  0  0  0  0
  -22.9868   17.3056  -20.0893 H   0  0  0  0  0  0  0  0  0  0  0  0
  -23.8317   18.9510  -21.6082 H   0  0  0  0  0  0  0  0  0  0  0  0
  -22.8035   19.5909  -23.3866 C   0  0  0  0  0  0  0  0  0  0  0  0
  -22.3393   20.8975  -23.3394 C   0  0  0  0  0  0  0  0  0  0  0  0
  -21.9775   21.5700  -21.7537 Cl  0  0  0  0  0  0  0  0  0  0  0  0
  -22.1649   21.6473  -24.4840 C   0  0  0  0  0  0  0  0  0  0  0  0
  -22.4510   21.1140  -25.7316 C   0  0  0  0  0  0  0  0  0  0  0  0
  -22.9134   19.8164  -25.7952 C   0  0  0  0  0  0  0  0  0  0  0  0
  -23.0837   19.0762  -24.6429 C   0  0  0  0  0  0  0  0  0  0  0  0
  -23.6696   17.4326  -24.7274 Cl  0  0  0  0  0  0  0  0  0  0  0  0
  -18.3925   13.5814  -18.4890 O   0  0  0  0  0  0  0  0  0  0  0  0
  -16.9634   13.9241  -22.2943 C   0  0  0  0  0  0  0  0  0  0  0  0
  -17.4460   13.8058  -21.0098 C   0  0  0  0  0  0  0  0  0  0  0  0
  -17.4106   12.5710  -20.3889 C   0  0  0  0  0  0  0  0  0  0  0  0
  -17.9029   12.4552  -19.0815 C   0  0  0  0  0  0  0  0  0  0  0  0
  -17.8419   11.2112  -18.5215 C   0  0  0  0  0  0  0  0  0  0  0  0
  -17.3210   10.1380  -19.2164 C   0  0  0  0  0  0  0  0  0  0  0  0
  -16.8564   10.2778  -20.4667 N   0  0  0  0  0  0  0  0  0  0  0  0
  -16.8994   11.4798  -21.0497 C   0  0  0  0  0  0  0  0  0  0  0  0
  -16.4196   11.6403  -22.3511 C   0  0  0  0  0  0  0  0  0  0  0  0
  -16.4494   12.8488  -22.9712 C   0  0  0  0  0  0  0  0  0  0  0  0
  -18.2423   15.7400  -23.3138 C   0  0  0  0  0  0  0  0  0  0  0  0
  -16.9948   15.1556  -22.9233 O   0  0  0  0  0  0  0  0  0  0  0  0
  -15.9808   13.0273  -24.2546 O   0  0  0  0  0  0  0  0  0  0  0  0
  -16.8565   12.9057  -25.3623 C   0  0  0  0  0  0  0  0  0  0  0  0
 33 34  1  0  0  0
 34 23  1  0  0  0
 23 24  2  0  0  0
 24 25  1  0  0  0
 25 26  2  0  0  0
 26 22  1  0  0  0
 22  1  1  0  0  0
  1  2  2  0  0  0
  2  3  1  0  0  0
  3  4  2  0  0  0
  4  8  1  0  0  0
  8  9  1  0  0  0
  9 10  2  0  0  0
  9 11  1  0  0  0
 11 14  1  0  0  0
 14 15  2  0  0  0
 15 16  1  0  0  0
 15 17  1  0  0  0
 17 18  2  0  0  0
 18 19  1  0  0  0
 19 20  2  0  0  0
 20 21  1  0  0  0
  4  5  1  0  0  0
  5  6  2  0  0  0
  6  7  1  0  0  0
 26 27  1  0  0  0
 27 28  2  0  0  0
 28 29  1  0  0  0
 29 30  2  0  0  0
 30 31  1  0  0  0
 31 32  2  0  0  0
 32 35  1  0  0  0
 35 36  1  0  0  0
 32 23  1  0  0  0
 30 25  1  0  0  0
  6  1  1  0  0  0
 20 14  1  0  0  0
  8 12  1  0  0  0
 11 13  1  0  0  0
M  END
> <minimizedAffinity>
-8.49374

> <CNNscore>
0.2391732633

> <CNNaffinity>
6.9608635902

> <CNN_VS>
1.6648525000

> <CNNaffinity_variance>
0.0639330894

$$$$
[H]c1nc2c([H])c(OC([H])([H])[H])c(OC([H])([H])[H])c([H])c2c(Oc2c([H])c([H])c(N([H])C(=O)N([H])c3c(Cl)c([H])c([H])c([H])c3Cl)c([H])c2F)c1[H]


 36 39  0  0  0  0  0  0  0  0999 V2000
  -18.6071   12.2711  -19.8679 C   0  0  0  0  0  0  0  0  0  0  0  0
  -19.3727   12.3153  -18.7391 C   0  0  0  0  0  0  0  0  0  0  0  0
  -19.2917   11.3310  -17.7848 C   0  0  0  0  0  0  0  0  0  0  0  0
  -18.4343   10.2694  -17.9411 C   0  0  0  0  0  0  0  0  0  0  0  0
  -17.6435   10.2254  -19.1075 C   0  0  0  0  0  0  0  0  0  0  0  0
  -17.7401   11.2173  -20.0445 C   0  0  0  0  0  0  0  0  0  0  0  0
  -16.9159   11.0951  -21.1319 F   0  0  0  0  0  0  0  0  0  0  0  0
  -18.3217    9.2092  -17.0066 N   0  0  0  0  0  0  0  0  0  0  0  0
  -19.3003    8.7794  -16.1038 C   0  0  0  0  0  0  0  0  0  0  0  0
  -20.4195    9.2988  -16.0278 O   0  0  0  0  0  0  0  0  0  0  0  0
  -18.9886    7.6873  -15.2281 N   0  0  0  0  0  0  0  0  0  0  0  0
  -17.3760    8.7011  -17.0072 H   0  0  0  0  0  0  0  0  0  0  0  0
  -18.0547    7.2171  -15.2564 H   0  0  0  0  0  0  0  0  0  0  0  0
  -19.9909    7.2640  -14.3192 C   0  0  0  0  0  0  0  0  0  0  0  0
  -19.9577    7.6559  -12.9887 C   0  0  0  0  0  0  0  0  0  0  0  0
  -18.6280    8.6928  -12.4844 Cl  0  0  0  0  0  0  0  0  0  0  0  0
  -20.9237    7.2543  -12.0897 C   0  0  0  0  0  0  0  0  0  0  0  0
  -21.9700    6.4374  -12.4908 C   0  0  0  0  0  0  0  0  0  0  0  0
  -22.0169    6.0392  -13.8102 C   0  0  0  0  0  0  0  0  0  0  0  0
  -21.0445    6.4476  -14.7002 C   0  0  0  0  0  0  0  0  0  0  0  0
  -21.1073    5.9412  -16.3709 Cl  0  0  0  0  0  0  0  0  0  0  0  0
  -18.6673   13.2561  -20.8506 O   0  0  0  0  0  0  0  0  0  0  0  0
  -16.3461   13.6087  -24.1865 C   0  0  0  0  0  0  0  0  0  0  0  0
  -17.1283   13.4915  -23.0589 C   0  0  0  0  0  0  0  0  0  0  0  0
  -17.0477   14.4645  -22.0800 C   0  0  0  0  0  0  0  0  0  0  0  0
  -17.8456   14.3410  -20.9342 C   0  0  0  0  0  0  0  0  0  0  0  0
  -17.7219   15.3321  -20.0028 C   0  0  0  0  0  0  0  0  0  0  0  0
  -16.8560   16.3902  -20.1940 C   0  0  0  0  0  0  0  0  0  0  0  0
  -16.1044   16.4831  -21.3009 N   0  0  0  0  0  0  0  0  0  0  0  0
  -16.1966   15.5323  -22.2357 C   0  0  0  0  0  0  0  0  0  0  0  0
  -15.4200   15.6156  -23.3931 C   0  0  0  0  0  0  0  0  0  0  0  0
  -15.4909   14.6654  -24.3615 C   0  0  0  0  0  0  0  0  0  0  0  0
  -17.5776   12.5423  -26.0081 C   0  0  0  0  0  0  0  0  0  0  0  0
  -16.4201   12.6400  -25.1710 O   0  0  0  0  0  0  0  0  0  0  0  0
  -14.7328   14.7300  -25.5103 O   0  0  0  0  0  0  0  0  0  0  0  0
  -15.1068   15.5935  -26.5700 C   0  0  0  0  0  0  0  0  0  0  0  0
 33 34  1  0  0  0
 34 23  1  0  0  0
 23 24  2  0  0  0
 24 25  1  0  0  0
 25 26  2  0  0  0
 26 22  1  0  0  0
 22  1  1  0  0  0
  1  2  2  0  0  0
  2  3  1  0  0  0
  3  4  2  0  0  0
  4  8  1  0  0  0
  8  9  1  0  0  0
  9 10  2  0  0  0
  9 11  1  0  0  0
 11 14  1  0  0  0
 14 15  2  0  0  0
 15 16  1  0  0  0
 15 17  1  0  0  0
 17 18  2  0  0  0
 18 19  1  0  0  0
 19 20  2  0  0  0
 20 21  1  0  0  0
  4  5  1  0  0  0
  5  6  2  0  0  0
  6  7  1  0  0  0
 26 27  1  0  0  0
 27 28  2  0  0  0
 28 29  1  0  0  0
 29 30  2  0  0  0
 30 31  1  0  0  0
 31 32  2  0  0  0
 32 35  1  0  0  0
 35 36  1  0  0  0
 32 23  1  0  0  0
 30 25  1  0  0  0
  6  1  1  0  0  0
 20 14  1  0  0  0
  8 12  1  0  0  0
 11 13  1  0  0  0
M  END
> <minimizedAffinity>
-9.09279

> <CNNscore>
0.2016252875

> <CNNaffinity>
6.9389853477

> <CNN_VS>
1.3990749121

> <CNNaffinity_variance>
0.0744235292

$$$$
[H]c1nc2c([H])c(OC([H])([H])[H])c(OC([H])([H])[H])c([H])c2c(Oc2c([H])c([H])c(N([H])C(=O)N([H])c3c(Cl)c([H])c([H])c([H])c3Cl)c([H])c2F)c1[H]


 36 39  0  0  0  0  0  0  0  0999 V2000
  -18.5740   12.2902  -19.9152 C   0  0  0  0  0  0  0  0  0  0  0  0
  -19.3364   12.3383  -18.7845 C   0  0  0  0  0  0  0  0  0  0  0  0
  -19.2592   11.3528  -17.8311 C   0  0  0  0  0  0  0  0  0  0  0  0
  -18.4088   10.2860  -17.9903 C   0  0  0  0  0  0  0  0  0  0  0  0
  -17.6212   10.2379  -19.1587 C   0  0  0  0  0  0  0  0  0  0  0  0
  -17.7140   11.2311  -20.0948 C   0  0  0  0  0  0  0  0  0  0  0  0
  -16.8933   11.1046  -21.1843 F   0  0  0  0  0  0  0  0  0  0  0  0
  -18.3004    9.2244  -17.0568 N   0  0  0  0  0  0  0  0  0  0  0  0
  -19.2720    8.8129  -16.1381 C   0  0  0  0  0  0  0  0  0  0  0  0
  -20.3802    9.3525  -16.0447 O   0  0  0  0  0  0  0  0  0  0  0  0
  -18.9661    7.7158  -15.2667 N   0  0  0  0  0  0  0  0  0  0  0  0
  -17.3642    8.6993  -17.0723 H   0  0  0  0  0  0  0  0  0  0  0  0
  -18.0415    7.2287  -15.3096 H   0  0  0  0  0  0  0  0  0  0  0  0
  -19.9612    7.3111  -14.3415 C   0  0  0  0  0  0  0  0  0  0  0  0
  -21.0102    6.4930  -14.7358 C   0  0  0  0  0  0  0  0  0  0  0  0
  -21.0498    5.9848  -16.4204 Cl  0  0  0  0  0  0  0  0  0  0  0  0
  -21.9875    6.0889  -13.8504 C   0  0  0  0  0  0  0  0  0  0  0  0
  -21.9530    6.4913  -12.5238 C   0  0  0  0  0  0  0  0  0  0  0  0
  -20.9167    7.3047  -12.1165 C   0  0  0  0  0  0  0  0  0  0  0  0
  -19.9446    7.7024  -13.0118 C   0  0  0  0  0  0  0  0  0  0  0  0
  -18.6333    8.7329  -12.4920 Cl  0  0  0  0  0  0  0  0  0  0  0  0
  -18.6305   13.2762  -20.8970 O   0  0  0  0  0  0  0  0  0  0  0  0
  -16.3224   13.6828  -24.2359 C   0  0  0  0  0  0  0  0  0  0  0  0
  -17.1002   13.5473  -23.1073 C   0  0  0  0  0  0  0  0  0  0  0  0
  -17.0222   14.5089  -22.1170 C   0  0  0  0  0  0  0  0  0  0  0  0
  -17.8156   14.3670  -20.9702 C   0  0  0  0  0  0  0  0  0  0  0  0
  -17.6948   15.3475  -20.0274 C   0  0  0  0  0  0  0  0  0  0  0  0
  -16.8358   16.4130  -20.2087 C   0  0  0  0  0  0  0  0  0  0  0  0
  -16.0883   16.5237  -21.3167 N   0  0  0  0  0  0  0  0  0  0  0  0
  -16.1780   15.5836  -22.2626 C   0  0  0  0  0  0  0  0  0  0  0  0
  -15.4057   15.6855  -23.4214 C   0  0  0  0  0  0  0  0  0  0  0  0
  -15.4741   14.7466  -24.4009 C   0  0  0  0  0  0  0  0  0  0  0  0
  -17.6378   12.4482  -25.8845 C   0  0  0  0  0  0  0  0  0  0  0  0
  -16.3939   12.7255  -25.2317 O   0  0  0  0  0  0  0  0  0  0  0  0
  -14.7202   14.8295  -25.5513 O   0  0  0  0  0  0  0  0  0  0  0  0
  -15.1319   15.6626  -26.6213 C   0  0  0  0  0  0  0  0  0  0  0  0
 33 34  1  0  0  0
 34 23  1  0  0  0
 23 24  2  0  0  0
 24 25  1  0  0  0
 25 26  2  0  0  0
 26 22  1  0  0  0
 22  1  1  0  0  0
  1  2  2  0  0  0
  2  3  1  0  0  0
  3  4  2  0  0  0
  4  8  1  0  0  0
  8  9  1  0  0  0
  9 10  2  0  0  0
  9 11  1  0  0  0
 11 14  1  0  0  0
 14 15  2  0  0  0
 15 16  1  0  0  0
 15 17  1  0  0  0
 17 18  2  0  0  0
 18 19  1  0  0  0
 19 20  2  0  0  0
 20 21  1  0  0  0
  4  5  1  0  0  0
  5  6  2  0  0  0
  6  7  1  0  0  0
 26 27  1  0  0  0
 27 28  2  0  0  0
 28 29  1  0  0  0
 29 30  2  0  0  0
 30 31  1  0  0  0
 31 32  2  0  0  0
 32 35  1  0  0  0
 35 36  1  0  0  0
 32 23  1  0  0  0
 30 25  1  0  0  0
  6  1  1  0  0  0
 20 14  1  0  0  0
  8 12  1  0  0  0
 11 13  1  0  0  0
M  END
> <minimizedAffinity>
-9.07273

> <CNNscore>
0.1964987069

> <CNNaffinity>
6.9556565285

> <CNN_VS>
1.3667775393

> <CNNaffinity_variance>
0.0729266256

$$$$
[H]c1nc2c([H])c(OC([H])([H])[H])c(OC([H])([H])[H])c([H])c2c(Oc2c([H])c([H])c(N([H])C(=O)N([H])c3c(Cl)c([H])c([H])c([H])c3Cl)c([H])c2F)c1[H]


 36 39  0  0  0  0  0  0  0  0999 V2000
  -18.6277   11.1375  -18.1380 C   0  0  0  0  0  0  0  0  0  0  0  0
  -18.2103    9.8446  -18.0098 C   0  0  0  0  0  0  0  0  0  0  0  0
  -18.7584    9.0096  -17.0672 C   0  0  0  0  0  0  0  0  0  0  0  0
  -19.7460    9.4550  -16.2229 C   0  0  0  0  0  0  0  0  0  0  0  0
  -20.1767   10.7907  -16.3570 C   0  0  0  0  0  0  0  0  0  0  0  0
  -19.6171   11.6045  -17.3035 C   0  0  0  0  0  0  0  0  0  0  0  0
  -20.1174   12.8781  -17.3687 F   0  0  0  0  0  0  0  0  0  0  0  0
  -20.3345    8.6521  -15.2133 N   0  0  0  0  0  0  0  0  0  0  0  0
  -19.8023    8.3683  -13.9510 C   0  0  0  0  0  0  0  0  0  0  0  0
  -18.7164    8.8141  -13.5635 O   0  0  0  0  0  0  0  0  0  0  0  0
  -20.5520    7.5219  -13.0688 N   0  0  0  0  0  0  0  0  0  0  0  0
  -21.2854    8.2245  -15.4692 H   0  0  0  0  0  0  0  0  0  0  0  0
  -21.4755    7.1217  -13.3535 H   0  0  0  0  0  0  0  0  0  0  0  0
  -19.9990    7.2440  -11.7933 C   0  0  0  0  0  0  0  0  0  0  0  0
  -20.1724    8.1236  -10.7345 C   0  0  0  0  0  0  0  0  0  0  0  0
  -21.1013    9.5865  -11.0427 Cl  0  0  0  0  0  0  0  0  0  0  0  0
  -19.6421    7.8705   -9.4866 C   0  0  0  0  0  0  0  0  0  0  0  0
  -18.9109    6.7168   -9.2475 C   0  0  0  0  0  0  0  0  0  0  0  0
  -18.7296    5.8325  -10.2899 C   0  0  0  0  0  0  0  0  0  0  0  0
  -19.2652    6.0968  -11.5341 C   0  0  0  0  0  0  0  0  0  0  0  0
  -19.0334    4.9741  -12.8522 Cl  0  0  0  0  0  0  0  0  0  0  0  0
  -18.0912   12.0053  -19.0859 O   0  0  0  0  0  0  0  0  0  0  0  0
  -17.9940   14.3937  -22.3915 C   0  0  0  0  0  0  0  0  0  0  0  0
  -18.0256   13.5853  -21.2768 C   0  0  0  0  0  0  0  0  0  0  0  0
  -17.2107   12.4693  -21.2316 C   0  0  0  0  0  0  0  0  0  0  0  0
  -17.2462   11.6496  -20.0952 C   0  0  0  0  0  0  0  0  0  0  0  0
  -16.4199   10.5624  -20.1091 C   0  0  0  0  0  0  0  0  0  0  0  0
  -15.6009   10.2995  -21.1889 C   0  0  0  0  0  0  0  0  0  0  0  0
  -15.5871   11.1017  -22.2636 N   0  0  0  0  0  0  0  0  0  0  0  0
  -16.3822   12.1757  -22.2881 C   0  0  0  0  0  0  0  0  0  0  0  0
  -16.3787   13.0197  -23.4004 C   0  0  0  0  0  0  0  0  0  0  0  0
  -17.1752   14.1190  -23.4558 C   0  0  0  0  0  0  0  0  0  0  0  0
  -19.4477   16.0014  -21.2625 C   0  0  0  0  0  0  0  0  0  0  0  0
  -18.8058   15.5123  -22.4453 O   0  0  0  0  0  0  0  0  0  0  0  0
  -17.1860   14.9638  -24.5443 O   0  0  0  0  0  0  0  0  0  0  0  0
  -16.5567   14.5825  -25.7555 C   0  0  0  0  0  0  0  0  0  0  0  0
 33 34  1  0  0  0
 34 23  1  0  0  0
 23 24  2  0  0  0
 24 25  1  0  0  0
 25 26  2  0  0  0
 26 22  1  0  0  0
 22  1  1  0  0  0
  1  2  2  0  0  0
  2  3  1  0  0  0
  3  4  2  0  0  0
  4  8  1  0  0  0
  8  9  1  0  0  0
  9 10  2  0  0  0
  9 11  1  0  0  0
 11 14  1  0  0  0
 14 15  2  0  0  0
 15 16  1  0  0  0
 15 17  1  0  0  0
 17 18  2  0  0  0
 18 19  1  0  0  0
 19 20  2  0  0  0
 20 21  1  0  0  0
  4  5  1  0  0  0
  5  6  2  0  0  0
  6  7  1  0  0  0
 26 27  1  0  0  0
 27 28  2  0  0  0
 28 29  1  0  0  0
 29 30  2  0  0  0
 30 31  1  0  0  0
 31 32  2  0  0  0
 32 35  1  0  0  0
 35 36  1  0  0  0
 32 23  1  0  0  0
 30 25  1  0  0  0
  6  1  1  0  0  0
 20 14  1  0  0  0
  8 12  1  0  0  0
 11 13  1  0  0  0
M  END
> <minimizedAffinity>
-8.35482

> <CNNscore>
0.1802134514

> <CNNaffinity>
6.8004198074

> <CNN_VS>
1.2255271673

> <CNNaffinity_variance>
0.0995139405

$$$$
[H]c1nc2c([H])c(OC([H])([H])[H])c(OC([H])([H])[H])c([H])c2c(Oc2c([H])c([H])c(N([H])C(=O)N([H])c3c(Cl)c([H])c([H])c([H])c3Cl)c([H])c2F)c1[H]


 36 39  0  0  0  0  0  0  0  0999 V2000
  -17.7663   12.2826  -19.2622 C   0  0  0  0  0  0  0  0  0  0  0  0
  -18.9122   12.1342  -18.5362 C   0  0  0  0  0  0  0  0  0  0  0  0
  -19.1513   10.9945  -17.8081 C   0  0  0  0  0  0  0  0  0  0  0  0
  -18.2396    9.9673  -17.7909 C   0  0  0  0  0  0  0  0  0  0  0  0
  -17.0559   10.1223  -18.5410 C   0  0  0  0  0  0  0  0  0  0  0  0
  -16.8384   11.2666  -19.2584 C   0  0  0  0  0  0  0  0  0  0  0  0
  -15.6502   11.3301  -19.9371 F   0  0  0  0  0  0  0  0  0  0  0  0
  -18.4374    8.7561  -17.0811 N   0  0  0  0  0  0  0  0  0  0  0  0
  -19.3945    8.5111  -16.0905 C   0  0  0  0  0  0  0  0  0  0  0  0
  -20.2099    9.3624  -15.7184 O   0  0  0  0  0  0  0  0  0  0  0  0
  -19.4292    7.2136  -15.4808 N   0  0  0  0  0  0  0  0  0  0  0  0
  -17.7677    7.9597  -17.3453 H   0  0  0  0  0  0  0  0  0  0  0  0
  -18.7589    6.4619  -15.7634 H   0  0  0  0  0  0  0  0  0  0  0  0
  -20.4049    6.9815  -14.4789 C   0  0  0  0  0  0  0  0  0  0  0  0
  -20.2052    7.4148  -13.1760 C   0  0  0  0  0  0  0  0  0  0  0  0
  -18.7004    8.2578  -12.8261 Cl  0  0  0  0  0  0  0  0  0  0  0  0
  -21.1428    7.1984  -12.1877 C   0  0  0  0  0  0  0  0  0  0  0  0
  -22.3273    6.5338  -12.4671 C   0  0  0  0  0  0  0  0  0  0  0  0
  -22.5405    6.0968  -13.7575 C   0  0  0  0  0  0  0  0  0  0  0  0
  -21.5949    6.3194  -14.7378 C   0  0  0  0  0  0  0  0  0  0  0  0
  -21.8686    5.7643  -16.3714 Cl  0  0  0  0  0  0  0  0  0  0  0  0
  -17.4972   13.4277  -20.0077 O   0  0  0  0  0  0  0  0  0  0  0  0
  -19.0805   16.8280  -21.6112 C   0  0  0  0  0  0  0  0  0  0  0  0
  -18.5462   15.6787  -21.0721 C   0  0  0  0  0  0  0  0  0  0  0  0
  -18.0939   14.6849  -21.9203 C   0  0  0  0  0  0  0  0  0  0  0  0
  -17.5509   13.5170  -21.3672 C   0  0  0  0  0  0  0  0  0  0  0  0
  -17.1219   12.5718  -22.2547 C   0  0  0  0  0  0  0  0  0  0  0  0
  -17.2234   12.7705  -23.6171 C   0  0  0  0  0  0  0  0  0  0  0  0
  -17.7472   13.8986  -24.1187 N   0  0  0  0  0  0  0  0  0  0  0  0
  -18.1789   14.8476  -23.2823 C   0  0  0  0  0  0  0  0  0  0  0  0
  -18.7269   16.0271  -23.7902 C   0  0  0  0  0  0  0  0  0  0  0  0
  -19.1745   17.0103  -22.9663 C   0  0  0  0  0  0  0  0  0  0  0  0
  -20.7051   17.6262  -19.9692 C   0  0  0  0  0  0  0  0  0  0  0  0
  -19.5355   17.8275  -20.7702 O   0  0  0  0  0  0  0  0  0  0  0  0
  -19.7182   18.1811  -23.4482 O   0  0  0  0  0  0  0  0  0  0  0  0
  -21.1143   18.2877  -23.6679 C   0  0  0  0  0  0  0  0  0  0  0  0
 33 34  1  0  0  0
 34 23  1  0  0  0
 23 24  2  0  0  0
 24 25  1  0  0  0
 25 26  2  0  0  0
 26 22  1  0  0  0
 22  1  1  0  0  0
  1  2  2  0  0  0
  2  3  1  0  0  0
  3  4  2  0  0  0
  4  8  1  0  0  0
  8  9  1  0  0  0
  9 10  2  0  0  0
  9 11  1  0  0  0
 11 14  1  0  0  0
 14 15  2  0  0  0
 15 16  1  0  0  0
 15 17  1  0  0  0
 17 18  2  0  0  0
 18 19  1  0  0  0
 19 20  2  0  0  0
 20 21  1  0  0  0
  4  5  1  0  0  0
  5  6  2  0  0  0
  6  7  1  0  0  0
 26 27  1  0  0  0
 27 28  2  0  0  0
 28 29  1  0  0  0
 29 30  2  0  0  0
 30 31  1  0  0  0
 31 32  2  0  0  0
 32 35  1  0  0  0
 35 36  1  0  0  0
 32 23  1  0  0  0
 30 25  1  0  0  0
  6  1  1  0  0  0
 20 14  1  0  0  0
  8 12  1  0  0  0
 11 13  1  0  0  0
M  END
> <minimizedAffinity>
-8.39689

> <CNNscore>
0.1798791289

> <CNNaffinity>
6.4138054848

> <CNN_VS>
1.1537097692

> <CNNaffinity_variance>
0.3011518419

$$$$
[H]c1nc2c([H])c(OC([H])([H])[H])c(OC([H])([H])[H])c([H])c2c(Oc2c([H])c([H])c(N([H])C(=O)N([H])c3c(Cl)c([H])c([H])c([H])c3Cl)c([H])c2F)c1[H]


 36 39  0  0  0  0  0  0  0  0999 V2000
  -19.3701   12.6555  -18.5069 C   0  0  0  0  0  0  0  0  0  0  0  0
  -18.1273   12.1066  -18.3786 C   0  0  0  0  0  0  0  0  0  0  0  0
  -17.2979   11.9608  -19.4634 C   0  0  0  0  0  0  0  0  0  0  0  0
  -17.6984   12.3645  -20.7136 C   0  0  0  0  0  0  0  0  0  0  0  0
  -18.9824   12.9319  -20.8446 C   0  0  0  0  0  0  0  0  0  0  0  0
  -19.7915   13.0682  -19.7500 C   0  0  0  0  0  0  0  0  0  0  0  0
  -21.0111   13.6494  -19.9765 F   0  0  0  0  0  0  0  0  0  0  0  0
  -16.9010   12.2188  -21.8768 N   0  0  0  0  0  0  0  0  0  0  0  0
  -16.8187   13.1077  -22.9540 C   0  0  0  0  0  0  0  0  0  0  0  0
  -17.4570   14.1653  -23.0033 O   0  0  0  0  0  0  0  0  0  0  0  0
  -15.9546   12.7749  -24.0491 N   0  0  0  0  0  0  0  0  0  0  0  0
  -16.3110   11.3227  -21.9143 H   0  0  0  0  0  0  0  0  0  0  0  0
  -15.3953   11.8910  -24.0513 H   0  0  0  0  0  0  0  0  0  0  0  0
  -15.8824   13.6861  -25.1328 C   0  0  0  0  0  0  0  0  0  0  0  0
  -16.7493   13.5808  -26.2111 C   0  0  0  0  0  0  0  0  0  0  0  0
  -17.9314   12.2775  -26.1736 Cl  0  0  0  0  0  0  0  0  0  0  0  0
  -16.6944   14.4576  -27.2744 C   0  0  0  0  0  0  0  0  0  0  0  0
  -15.7616   15.4833  -27.3005 C   0  0  0  0  0  0  0  0  0  0  0  0
  -14.8929   15.6012  -26.2360 C   0  0  0  0  0  0  0  0  0  0  0  0
  -14.9576   14.7177  -25.1778 C   0  0  0  0  0  0  0  0  0  0  0  0
  -13.8554   14.8703  -23.8310 Cl  0  0  0  0  0  0  0  0  0  0  0  0
  -20.2309   12.8172  -17.4241 O   0  0  0  0  0  0  0  0  0  0  0  0
  -22.4135   13.9408  -14.1662 C   0  0  0  0  0  0  0  0  0  0  0  0
  -21.6759   13.5591  -15.2649 C   0  0  0  0  0  0  0  0  0  0  0  0
  -21.3000   12.2351  -15.3961 C   0  0  0  0  0  0  0  0  0  0  0  0
  -20.5494   11.8513  -16.5160 C   0  0  0  0  0  0  0  0  0  0  0  0
  -20.2077   10.5312  -16.5899 C   0  0  0  0  0  0  0  0  0  0  0  0
  -20.5884    9.6371  -15.6094 C   0  0  0  0  0  0  0  0  0  0  0  0
  -21.3071   10.0322  -14.5482 N   0  0  0  0  0  0  0  0  0  0  0  0
  -21.6607   11.3166  -14.4396 C   0  0  0  0  0  0  0  0  0  0  0  0
  -22.4088   11.7425  -13.3402 C   0  0  0  0  0  0  0  0  0  0  0  0
  -22.7836   13.0409  -13.2008 C   0  0  0  0  0  0  0  0  0  0  0  0
  -22.3099   16.2580  -14.9358 C   0  0  0  0  0  0  0  0  0  0  0  0
  -22.7939   15.2633  -14.0267 O   0  0  0  0  0  0  0  0  0  0  0  0
  -23.5216   13.4804  -12.1235 O   0  0  0  0  0  0  0  0  0  0  0  0
  -24.8091   12.9456  -11.8687 C   0  0  0  0  0  0  0  0  0  0  0  0
 33 34  1  0  0  0
 34 23  1  0  0  0
 23 24  2  0  0  0
 24 25  1  0  0  0
 25 26  2  0  0  0
 26 22  1  0  0  0
 22  1  1  0  0  0
  1  2  2  0  0  0
  2  3  1  0  0  0
  3  4  2  0  0  0
  4  8  1  0  0  0
  8  9  1  0  0  0
  9 10  2  0  0  0
  9 11  1  0  0  0
 11 14  1  0  0  0
 14 15  2  0  0  0
 15 16  1  0  0  0
 15 17  1  0  0  0
 17 18  2  0  0  0
 18 19  1  0  0  0
 19 20  2  0  0  0
 20 21  1  0  0  0
  4  5  1  0  0  0
  5  6  2  0  0  0
  6  7  1  0  0  0
 26 27  1  0  0  0
 27 28  2  0  0  0
 28 29  1  0  0  0
 29 30  2  0  0  0
 30 31  1  0  0  0
 31 32  2  0  0  0
 32 35  1  0  0  0
 35 36  1  0  0  0
 32 23  1  0  0  0
 30 25  1  0  0  0
  6  1  1  0  0  0
 20 14  1  0  0  0
  8 12  1  0  0  0
 11 13  1  0  0  0
M  END
> <minimizedAffinity>
-8.94886

> <CNNscore>
0.1410021931

> <CNNaffinity>
6.6952323914

> <CNN_VS>
0.9440424442

> <CNNaffinity_variance>
0.0595356822

$$$$
[H]c1nc2c([H])c(OC([H])([H])[H])c(OC([H])([H])[H])c([H])c2c(Oc2c([H])c([H])c(N([H])C(=O)N([H])c3c(Cl)c([H])c([H])c([H])c3Cl)c([H])c2F)c1[H]


 36 39  0  0  0  0  0  0  0  0999 V2000
  -19.3082   14.5668  -18.6696 C   0  0  0  0  0  0  0  0  0  0  0  0
  -20.0814   14.0882  -19.6871 C   0  0  0  0  0  0  0  0  0  0  0  0
  -20.9877   14.8936  -20.3323 C   0  0  0  0  0  0  0  0  0  0  0  0
  -21.1421   16.2091  -19.9690 C   0  0  0  0  0  0  0  0  0  0  0  0
  -20.3422   16.7024  -18.9180 C   0  0  0  0  0  0  0  0  0  0  0  0
  -19.4454   15.8822  -18.2900 C   0  0  0  0  0  0  0  0  0  0  0  0
  -18.7008   16.4601  -17.2959 F   0  0  0  0  0  0  0  0  0  0  0  0
  -22.0764   17.0853  -20.5771 N   0  0  0  0  0  0  0  0  0  0  0  0
  -21.8753   17.8612  -21.7237 C   0  0  0  0  0  0  0  0  0  0  0  0
  -20.8153   17.8586  -22.3598 O   0  0  0  0  0  0  0  0  0  0  0  0
  -22.9483   18.6963  -22.1796 N   0  0  0  0  0  0  0  0  0  0  0  0
  -23.0289   17.1464  -20.0856 H   0  0  0  0  0  0  0  0  0  0  0  0
  -23.8630   18.7311  -21.6734 H   0  0  0  0  0  0  0  0  0  0  0  0
  -22.7285   19.4763  -23.3428 C   0  0  0  0  0  0  0  0  0  0  0  0
  -23.0199   18.9741  -24.6029 C   0  0  0  0  0  0  0  0  0  0  0  0
  -23.6687   17.3405  -24.6919 Cl  0  0  0  0  0  0  0  0  0  0  0  0
  -22.8129   19.7178  -25.7460 C   0  0  0  0  0  0  0  0  0  0  0  0
  -22.3016   21.0046  -25.6720 C   0  0  0  0  0  0  0  0  0  0  0  0
  -22.0069   21.5180  -24.4266 C   0  0  0  0  0  0  0  0  0  0  0  0
  -22.2184   20.7642  -23.2901 C   0  0  0  0  0  0  0  0  0  0  0  0
  -21.8438   21.4180  -21.7140 Cl  0  0  0  0  0  0  0  0  0  0  0  0
  -18.3803   13.7734  -17.9996 O   0  0  0  0  0  0  0  0  0  0  0  0
  -20.8873   11.7483  -15.4987 C   0  0  0  0  0  0  0  0  0  0  0  0
  -20.0394   12.4298  -16.3435 C   0  0  0  0  0  0  0  0  0  0  0  0
  -19.1968   11.7132  -17.1729 C   0  0  0  0  0  0  0  0  0  0  0  0
  -18.3356   12.4110  -18.0309 C   0  0  0  0  0  0  0  0  0  0  0  0
  -17.5273   11.6491  -18.8253 C   0  0  0  0  0  0  0  0  0  0  0  0
  -17.5683   10.2701  -18.7752 C   0  0  0  0  0  0  0  0  0  0  0  0
  -18.4030    9.6284  -17.9444 N   0  0  0  0  0  0  0  0  0  0  0  0
  -19.2098   10.3391  -17.1504 C   0  0  0  0  0  0  0  0  0  0  0  0
  -20.0838    9.6846  -16.2801 C   0  0  0  0  0  0  0  0  0  0  0  0
  -20.9161   10.3785  -15.4605 C   0  0  0  0  0  0  0  0  0  0  0  0
  -22.1962   13.7599  -15.0379 C   0  0  0  0  0  0  0  0  0  0  0  0
  -21.7337   12.4571  -14.6654 O   0  0  0  0  0  0  0  0  0  0  0  0
  -21.7854    9.7510  -14.5951 O   0  0  0  0  0  0  0  0  0  0  0  0
  -22.9363    9.0875  -15.0887 C   0  0  0  0  0  0  0  0  0  0  0  0
 33 34  1  0  0  0
 34 23  1  0  0  0
 23 24  2  0  0  0
 24 25  1  0  0  0
 25 26  2  0  0  0
 26 22  1  0  0  0
 22  1  1  0  0  0
  1  2  2  0  0  0
  2  3  1  0  0  0
  3  4  2  0  0  0
  4  8  1  0  0  0
  8  9  1  0  0  0
  9 10  2  0  0  0
  9 11  1  0  0  0
 11 14  1  0  0  0
 14 15  2  0  0  0
 15 16  1  0  0  0
 15 17  1  0  0  0
 17 18  2  0  0  0
 18 19  1  0  0  0
 19 20  2  0  0  0
 20 21  1  0  0  0
  4  5  1  0  0  0
  5  6  2  0  0  0
  6  7  1  0  0  0
 26 27  1  0  0  0
 27 28  2  0  0  0
 28 29  1  0  0  0
 29 30  2  0  0  0
 30 31  1  0  0  0
 31 32  2  0  0  0
 32 35  1  0  0  0
 35 36  1  0  0  0
 32 23  1  0  0  0
 30 25  1  0  0  0
  6  1  1  0  0  0
 20 14  1  0  0  0
  8 12  1  0  0  0
 11 13  1  0  0  0
M  END
> <minimizedAffinity>
-7.48015

> <CNNscore>
0.1028066278

> <CNNaffinity>
6.1621508598

> <CNN_VS>
0.6335099339

> <CNNaffinity_variance>
0.0665677935

$$$$
[H]C([H])=C([H])C(=O)N([H])c1c([H])c([H])c(Oc2c([H])c([H])nc3c([H])c(OC([H])([H])C([H])([H])C([H])([H])N4C([H])([H])C([H])([H])OC([H])([H])C4([H])[H])c(OC([H])([H])[H])c([H])c23)c([H])c1[H]


 35 38  0  0  0  0  0  0  0  0999 V2000
  -18.2189   13.7628  -21.7281 C   0  0  0  0  0  0  0  0  0  0  0  0
  -18.8842   13.5038  -20.5485 C   0  0  0  0  0  0  0  0  0  0  0  0
  -18.5649   12.4248  -19.7279 C   0  0  0  0  0  0  0  0  0  0  0  0
  -19.2495   12.1909  -18.5501 C   0  0  0  0  0  0  0  0  0  0  0  0
  -18.9038   11.1129  -17.7641 C   0  0  0  0  0  0  0  0  0  0  0  0
  -17.8737   10.3113  -18.2046 C   0  0  0  0  0  0  0  0  0  0  0  0
  -17.2268   10.5675  -19.3580 N   0  0  0  0  0  0  0  0  0  0  0  0
  -17.5364   11.6085  -20.1489 C   0  0  0  0  0  0  0  0  0  0  0  0
  -16.8759   11.8745  -21.3303 C   0  0  0  0  0  0  0  0  0  0  0  0
  -17.1906   12.9433  -22.1452 C   0  0  0  0  0  0  0  0  0  0  0  0
  -18.4429   16.1815  -22.0826 C   0  0  0  0  0  0  0  0  0  0  0  0
  -18.5662   14.8450  -22.5151 O   0  0  0  0  0  0  0  0  0  0  0  0
  -20.2659   13.0686  -18.2150 O   0  0  0  0  0  0  0  0  0  0  0  0
  -20.1335   14.4130  -18.0456 C   0  0  0  0  0  0  0  0  0  0  0  0
  -21.0044   15.3015  -18.6453 C   0  0  0  0  0  0  0  0  0  0  0  0
  -20.8788   16.6596  -18.4794 C   0  0  0  0  0  0  0  0  0  0  0  0
  -19.8527   17.1903  -17.6886 C   0  0  0  0  0  0  0  0  0  0  0  0
  -18.9770   16.3254  -17.0850 C   0  0  0  0  0  0  0  0  0  0  0  0
  -19.1323   14.9516  -17.2735 C   0  0  0  0  0  0  0  0  0  0  0  0
  -19.7715   18.6034  -17.5797 N   0  0  0  0  0  0  0  0  0  0  0  0
  -19.1127   19.4636  -18.4579 C   0  0  0  0  0  0  0  0  0  0  0  0
  -18.5033   19.0425  -19.4586 O   0  0  0  0  0  0  0  0  0  0  0  0
  -20.2717   19.0360  -16.7411 H   0  0  0  0  0  0  0  0  0  0  0  0
  -19.1116   20.9010  -18.2378 C   0  0  0  0  0  0  0  0  0  0  0  0
  -19.8966   21.7719  -18.8383 C   0  0  0  0  0  0  0  0  0  0  0  0
  -16.5026   13.1866  -23.3368 O   0  0  0  0  0  0  0  0  0  0  0  0
  -15.0969   13.0208  -23.3430 C   0  0  0  0  0  0  0  0  0  0  0  0
  -14.3739   14.2255  -23.8397 C   0  0  0  0  0  0  0  0  0  0  0  0
  -15.2257   15.4747  -23.8055 C   0  0  0  0  0  0  0  0  0  0  0  0
  -15.3474   16.0952  -25.0937 N   0  0  0  0  0  0  0  0  0  0  0  0
  -14.5401   15.4554  -26.1088 C   0  0  0  0  0  0  0  0  0  0  0  0
  -15.2104   15.6901  -27.4472 C   0  0  0  0  0  0  0  0  0  0  0  0
  -16.3045   14.8196  -27.5030 O   0  0  0  0  0  0  0  0  0  0  0  0
  -16.8876   14.6487  -26.2451 C   0  0  0  0  0  0  0  0  0  0  0  0
  -16.7461   15.9625  -25.5044 C   0  0  0  0  0  0  0  0  0  0  0  0
 11 12  1  0  0  0
 12  1  1  0  0  0
  1  2  2  0  0  0
  2  3  1  0  0  0
  3  4  2  0  0  0
  4 13  1  0  0  0
 13 14  1  0  0  0
 14 15  2  0  0  0
 15 16  1  0  0  0
 16 17  2  0  0  0
 17 20  1  0  0  0
 20 21  1  0  0  0
 21 22  2  0  0  0
 21 24  1  0  0  0
 24 25  2  0  0  0
 17 18  1  0  0  0
 18 19  2  0  0  0
  4  5  1  0  0  0
  5  6  2  0  0  0
  6  7  1  0  0  0
  7  8  2  0  0  0
  8  9  1  0  0  0
  9 10  2  0  0  0
 10 26  1  0  0  0
 26 27  1  0  0  0
 27 28  1  0  0  0
 28 29  1  0  0  0
 29 30  1  0  0  0
 30 31  1  0  0  0
 31 32  1  0  0  0
 32 33  1  0  0  0
 33 34  1  0  0  0
 34 35  1  0  0  0
 10  1  1  0  0  0
 35 30  1  0  0  0
  8  3  1  0  0  0
 19 14  1  0  0  0
 20 23  1  0  0  0
M  END
> <minimizedAffinity>
-7.72165

> <CNNscore>
0.2207981050

> <CNNaffinity>
6.8090333939

> <CNN_VS>
1.5034216642

> <CNNaffinity_variance>
0.1676613688

$$$$
[H]C([H])=C([H])C(=O)N([H])c1c([H])c([H])c(Oc2c([H])c([H])nc3c([H])c(OC([H])([H])C([H])([H])C([H])([H])N4C([H])([H])C([H])([H])OC([H])([H])C4([H])[H])c(OC([H])([H])[H])c([H])c23)c([H])c1[H]


 35 38  0  0  0  0  0  0  0  0999 V2000
  -20.6036   12.8748  -17.0950 C   0  0  0  0  0  0  0  0  0  0  0  0
  -19.6018   13.1143  -18.0117 C   0  0  0  0  0  0  0  0  0  0  0  0
  -18.7187   12.1238  -18.4344 C   0  0  0  0  0  0  0  0  0  0  0  0
  -17.7243   12.3937  -19.3558 C   0  0  0  0  0  0  0  0  0  0  0  0
  -16.8698   11.3869  -19.7501 C   0  0  0  0  0  0  0  0  0  0  0  0
  -17.0576   10.1412  -19.1928 C   0  0  0  0  0  0  0  0  0  0  0  0
  -18.0371    9.9117  -18.2970 N   0  0  0  0  0  0  0  0  0  0  0  0
  -18.8880   10.8684  -17.8897 C   0  0  0  0  0  0  0  0  0  0  0  0
  -19.8926   10.6372  -16.9733 C   0  0  0  0  0  0  0  0  0  0  0  0
  -20.7690   11.6172  -16.5529 C   0  0  0  0  0  0  0  0  0  0  0  0
  -21.0196   15.1861  -16.3800 C   0  0  0  0  0  0  0  0  0  0  0  0
  -21.4605   13.8856  -16.7010 O   0  0  0  0  0  0  0  0  0  0  0  0
  -17.6371   13.6860  -19.8439 O   0  0  0  0  0  0  0  0  0  0  0  0
  -17.3565   14.0343  -21.1299 C   0  0  0  0  0  0  0  0  0  0  0  0
  -16.7900   15.2562  -21.4355 C   0  0  0  0  0  0  0  0  0  0  0  0
  -16.5030   15.6158  -22.7301 C   0  0  0  0  0  0  0  0  0  0  0  0
  -16.7790   14.7448  -23.7910 C   0  0  0  0  0  0  0  0  0  0  0  0
  -17.3420   13.5272  -23.5090 C   0  0  0  0  0  0  0  0  0  0  0  0
  -17.6211   13.1924  -22.1834 C   0  0  0  0  0  0  0  0  0  0  0  0
  -16.4754   15.1918  -25.1037 N   0  0  0  0  0  0  0  0  0  0  0  0
  -15.2449   15.0810  -25.7507 C   0  0  0  0  0  0  0  0  0  0  0  0
  -14.2565   14.5604  -25.2008 O   0  0  0  0  0  0  0  0  0  0  0  0
  -17.2782   15.6519  -25.6369 H   0  0  0  0  0  0  0  0  0  0  0  0
  -15.0653   15.5737  -27.1070 C   0  0  0  0  0  0  0  0  0  0  0  0
  -15.9919   15.6060  -28.0428 C   0  0  0  0  0  0  0  0  0  0  0  0
  -21.7771   11.3517  -15.6224 O   0  0  0  0  0  0  0  0  0  0  0  0
  -21.5422   11.6883  -14.2679 C   0  0  0  0  0  0  0  0  0  0  0  0
  -22.7288   11.4511  -13.3980 C   0  0  0  0  0  0  0  0  0  0  0  0
  -24.0204   11.3674  -14.1802 C   0  0  0  0  0  0  0  0  0  0  0  0
  -25.1675   11.1971  -13.3350 N   0  0  0  0  0  0  0  0  0  0  0  0
  -25.7066    9.8558  -13.3760 C   0  0  0  0  0  0  0  0  0  0  0  0
  -26.3921    9.5933  -12.0505 C   0  0  0  0  0  0  0  0  0  0  0  0
  -25.3770    9.3579  -11.1166 O   0  0  0  0  0  0  0  0  0  0  0  0
  -24.2458   10.1328  -11.3837 C   0  0  0  0  0  0  0  0  0  0  0  0
  -24.7299   11.4470  -11.9608 C   0  0  0  0  0  0  0  0  0  0  0  0
 11 12  1  0  0  0
 12  1  1  0  0  0
  1  2  2  0  0  0
  2  3  1  0  0  0
  3  4  2  0  0  0
  4 13  1  0  0  0
 13 14  1  0  0  0
 14 15  2  0  0  0
 15 16  1  0  0  0
 16 17  2  0  0  0
 17 20  1  0  0  0
 20 21  1  0  0  0
 21 22  2  0  0  0
 21 24  1  0  0  0
 24 25  2  0  0  0
 17 18  1  0  0  0
 18 19  2  0  0  0
  4  5  1  0  0  0
  5  6  2  0  0  0
  6  7  1  0  0  0
  7  8  2  0  0  0
  8  9  1  0  0  0
  9 10  2  0  0  0
 10 26  1  0  0  0
 26 27  1  0  0  0
 27 28  1  0  0  0
 28 29  1  0  0  0
 29 30  1  0  0  0
 30 31  1  0  0  0
 31 32  1  0  0  0
 32 33  1  0  0  0
 33 34  1  0  0  0
 34 35  1  0  0  0
 10  1  1  0  0  0
 35 30  1  0  0  0
  8  3  1  0  0  0
 19 14  1  0  0  0
 20 23  1  0  0  0
M  END
> <minimizedAffinity>
-7.08597

> <CNNscore>
0.2201918662

> <CNNaffinity>
6.1338205338

> <CNN_VS>
1.3506174088

> <CNNaffinity_variance>
0.0850382298

$$$$
[H]C([H])=C([H])C(=O)N([H])c1c([H])c([H])c(Oc2c([H])c([H])nc3c([H])c(OC([H])([H])C([H])([H])C([H])([H])N4C([H])([H])C([H])([H])OC([H])([H])C4([H])[H])c(OC([H])([H])[H])c([H])c23)c([H])c1[H]


 35 38  0  0  0  0  0  0  0  0999 V2000
  -17.8996   11.2341  -18.6630 C   0  0  0  0  0  0  0  0  0  0  0  0
  -18.0934   12.5886  -18.8334 C   0  0  0  0  0  0  0  0  0  0  0  0
  -19.0669   13.3010  -18.1372 C   0  0  0  0  0  0  0  0  0  0  0  0
  -19.2373   14.6593  -18.3285 C   0  0  0  0  0  0  0  0  0  0  0  0
  -20.2111   15.3298  -17.6205 C   0  0  0  0  0  0  0  0  0  0  0  0
  -20.9769   14.5942  -16.7429 C   0  0  0  0  0  0  0  0  0  0  0  0
  -20.7847   13.2710  -16.5800 N   0  0  0  0  0  0  0  0  0  0  0  0
  -19.8456   12.5850  -17.2527 C   0  0  0  0  0  0  0  0  0  0  0  0
  -19.6453   11.2302  -17.0882 C   0  0  0  0  0  0  0  0  0  0  0  0
  -18.6811   10.5221  -17.7769 C   0  0  0  0  0  0  0  0  0  0  0  0
  -16.8102   10.6278  -20.7777 C   0  0  0  0  0  0  0  0  0  0  0  0
  -16.9218   10.5630  -19.3734 O   0  0  0  0  0  0  0  0  0  0  0  0
  -18.4047   15.2873  -19.2386 O   0  0  0  0  0  0  0  0  0  0  0  0
  -18.6942   16.4235  -19.9306 C   0  0  0  0  0  0  0  0  0  0  0  0
  -18.0059   17.5987  -19.7016 C   0  0  0  0  0  0  0  0  0  0  0  0
  -18.2909   18.7499  -20.3955 C   0  0  0  0  0  0  0  0  0  0  0  0
  -19.2991   18.7668  -21.3669 C   0  0  0  0  0  0  0  0  0  0  0  0
  -19.9948   17.6107  -21.6089 C   0  0  0  0  0  0  0  0  0  0  0  0
  -19.6806   16.4587  -20.8870 C   0  0  0  0  0  0  0  0  0  0  0  0
  -19.5527   19.9968  -22.0287 N   0  0  0  0  0  0  0  0  0  0  0  0
  -19.2542   20.2973  -23.3575 C   0  0  0  0  0  0  0  0  0  0  0  0
  -18.7058   19.4723  -24.1118 O   0  0  0  0  0  0  0  0  0  0  0  0
  -20.0218   20.7548  -21.4405 H   0  0  0  0  0  0  0  0  0  0  0  0
  -19.5750   21.5989  -23.9209 C   0  0  0  0  0  0  0  0  0  0  0  0
  -19.8680   22.6838  -23.2333 C   0  0  0  0  0  0  0  0  0  0  0  0
  -18.5024    9.1492  -17.5883 O   0  0  0  0  0  0  0  0  0  0  0  0
  -18.5386    8.6457  -16.2660 C   0  0  0  0  0  0  0  0  0  0  0  0
  -19.7954    7.9045  -15.9628 C   0  0  0  0  0  0  0  0  0  0  0  0
  -20.1856    7.9863  -14.5039 C   0  0  0  0  0  0  0  0  0  0  0  0
  -21.5550    8.3735  -14.3196 N   0  0  0  0  0  0  0  0  0  0  0  0
  -22.0971    9.0928  -15.4511 C   0  0  0  0  0  0  0  0  0  0  0  0
  -23.5930    8.8536  -15.4762 C   0  0  0  0  0  0  0  0  0  0  0  0
  -23.7812    7.5584  -15.9711 O   0  0  0  0  0  0  0  0  0  0  0  0
  -22.7598    6.6992  -15.5588 C   0  0  0  0  0  0  0  0  0  0  0  0
  -22.3340    7.1428  -14.1744 C   0  0  0  0  0  0  0  0  0  0  0  0
 11 12  1  0  0  0
 12  1  1  0  0  0
  1  2  2  0  0  0
  2  3  1  0  0  0
  3  4  2  0  0  0
  4 13  1  0  0  0
 13 14  1  0  0  0
 14 15  2  0  0  0
 15 16  1  0  0  0
 16 17  2  0  0  0
 17 20  1  0  0  0
 20 21  1  0  0  0
 21 22  2  0  0  0
 21 24  1  0  0  0
 24 25  2  0  0  0
 17 18  1  0  0  0
 18 19  2  0  0  0
  4  5  1  0  0  0
  5  6  2  0  0  0
  6  7  1  0  0  0
  7  8  2  0  0  0
  8  9  1  0  0  0
  9 10  2  0  0  0
 10 26  1  0  0  0
 26 27  1  0  0  0
 27 28  1  0  0  0
 28 29  1  0  0  0
 29 30  1  0  0  0
 30 31  1  0  0  0
 31 32  1  0  0  0
 32 33  1  0  0  0
 33 34  1  0  0  0
 34 35  1  0  0  0
 10  1  1  0  0  0
 35 30  1  0  0  0
  8  3  1  0  0  0
 19 14  1  0  0  0
 20 23  1  0  0  0
M  END
> <minimizedAffinity>
-6.49378

> <CNNscore>
0.1965797693

> <CNNaffinity>
6.3026452065

> <CNN_VS>
1.2389725447

> <CNNaffinity_variance>
0.0743808299

$$$$
[H]C([H])=C([H])C(=O)N([H])c1c([H])c([H])c(Oc2c([H])c([H])nc3c([H])c(OC([H])([H])C([H])([H])C([H])([H])N4C([H])([H])C([H])([H])OC([H])([H])C4([H])[H])c(OC([H])([H])[H])c([H])c23)c([H])c1[H]


 35 38  0  0  0  0  0  0  0  0999 V2000
  -20.3803   13.0044  -16.8651 C   0  0  0  0  0  0  0  0  0  0  0  0
  -19.5112   13.1645  -17.9235 C   0  0  0  0  0  0  0  0  0  0  0  0
  -18.7296   12.1227  -18.4172 C   0  0  0  0  0  0  0  0  0  0  0  0
  -17.8675   12.3133  -19.4806 C   0  0  0  0  0  0  0  0  0  0  0  0
  -17.1108   11.2576  -19.9414 C   0  0  0  0  0  0  0  0  0  0  0  0
  -17.2584   10.0455  -19.3035 C   0  0  0  0  0  0  0  0  0  0  0  0
  -18.1082    9.8937  -18.2694 N   0  0  0  0  0  0  0  0  0  0  0  0
  -18.8611   10.8997  -17.7939 C   0  0  0  0  0  0  0  0  0  0  0  0
  -19.7328   10.7480  -16.7358 C   0  0  0  0  0  0  0  0  0  0  0  0
  -20.5084   11.7790  -16.2449 C   0  0  0  0  0  0  0  0  0  0  0  0
  -21.9715   14.8353  -17.2421 C   0  0  0  0  0  0  0  0  0  0  0  0
  -21.1393   14.0642  -16.4046 O   0  0  0  0  0  0  0  0  0  0  0  0
  -17.8081   13.5787  -20.0382 O   0  0  0  0  0  0  0  0  0  0  0  0
  -17.5847   13.8607  -21.3513 C   0  0  0  0  0  0  0  0  0  0  0  0
  -16.5186   13.3077  -22.0333 C   0  0  0  0  0  0  0  0  0  0  0  0
  -16.2859   13.5862  -23.3584 C   0  0  0  0  0  0  0  0  0  0  0  0
  -17.1319   14.4487  -24.0659 C   0  0  0  0  0  0  0  0  0  0  0  0
  -18.1956   15.0088  -23.4071 C   0  0  0  0  0  0  0  0  0  0  0  0
  -18.4042   14.7052  -22.0612 C   0  0  0  0  0  0  0  0  0  0  0  0
  -16.8179   14.7070  -25.4260 N   0  0  0  0  0  0  0  0  0  0  0  0
  -16.9659   13.8193  -26.4914 C   0  0  0  0  0  0  0  0  0  0  0  0
  -17.4015   12.6641  -26.3301 O   0  0  0  0  0  0  0  0  0  0  0  0
  -16.4362   15.6813  -25.6396 H   0  0  0  0  0  0  0  0  0  0  0  0
  -16.6141   14.2114  -27.8468 C   0  0  0  0  0  0  0  0  0  0  0  0
  -16.4298   15.4462  -28.2672 C   0  0  0  0  0  0  0  0  0  0  0  0
  -21.3827   11.5938  -15.1708 O   0  0  0  0  0  0  0  0  0  0  0  0
  -20.8334   11.5044  -13.8694 C   0  0  0  0  0  0  0  0  0  0  0  0
  -21.7521   12.0218  -12.8162 C   0  0  0  0  0  0  0  0  0  0  0  0
  -22.7642   13.0078  -13.3554 C   0  0  0  0  0  0  0  0  0  0  0  0
  -23.7031   13.4360  -12.3583 N   0  0  0  0  0  0  0  0  0  0  0  0
  -23.6435   14.8572  -12.0977 C   0  0  0  0  0  0  0  0  0  0  0  0
  -25.0120   15.2962  -11.6179 C   0  0  0  0  0  0  0  0  0  0  0  0
  -25.8332   15.3484  -12.7496 O   0  0  0  0  0  0  0  0  0  0  0  0
  -25.5018   14.3505  -13.6693 C   0  0  0  0  0  0  0  0  0  0  0  0
  -25.0414   13.1455  -12.8751 C   0  0  0  0  0  0  0  0  0  0  0  0
 11 12  1  0  0  0
 12  1  1  0  0  0
  1  2  2  0  0  0
  2  3  1  0  0  0
  3  4  2  0  0  0
  4 13  1  0  0  0
 13 14  1  0  0  0
 14 15  2  0  0  0
 15 16  1  0  0  0
 16 17  2  0  0  0
 17 20  1  0  0  0
 20 21  1  0  0  0
 21 22  2  0  0  0
 21 24  1  0  0  0
 24 25  2  0  0  0
 17 18  1  0  0  0
 18 19  2  0  0  0
  4  5  1  0  0  0
  5  6  2  0  0  0
  6  7  1  0  0  0
  7  8  2  0  0  0
  8  9  1  0  0  0
  9 10  2  0  0  0
 10 26  1  0  0  0
 26 27  1  0  0  0
 27 28  1  0  0  0
 28 29  1  0  0  0
 29 30  1  0  0  0
 30 31  1  0  0  0
 31 32  1  0  0  0
 32 33  1  0  0  0
 33 34  1  0  0  0
 34 35  1  0  0  0
 10  1  1  0  0  0
 35 30  1  0  0  0
  8  3  1  0  0  0
 19 14  1  0  0  0
 20 23  1  0  0  0
M  END
> <minimizedAffinity>
-6.96064

> <CNNscore>
0.1914364845

> <CNNaffinity>
6.1222124100

> <CNN_VS>
1.1720148325

> <CNNaffinity_variance>
0.0638025478

$$$$
[H]C([H])=C([H])C(=O)N([H])c1c([H])c([H])c(Oc2c([H])c([H])nc3c([H])c(OC([H])([H])C([H])([H])C([H])([H])N4C([H])([H])C([H])([H])OC([H])([H])C4([H])[H])c(OC([H])([H])[H])c([H])c23)c([H])c1[H]


 35 38  0  0  0  0  0  0  0  0999 V2000
  -20.6243   12.9798  -17.1928 C   0  0  0  0  0  0  0  0  0  0  0  0
  -19.6085   13.0959  -18.1178 C   0  0  0  0  0  0  0  0  0  0  0  0
  -18.7399   12.0483  -18.4143 C   0  0  0  0  0  0  0  0  0  0  0  0
  -17.7308   12.1942  -19.3475 C   0  0  0  0  0  0  0  0  0  0  0  0
  -16.8915   11.1341  -19.6143 C   0  0  0  0  0  0  0  0  0  0  0  0
  -17.1090    9.9632  -18.9218 C   0  0  0  0  0  0  0  0  0  0  0  0
  -18.1022    9.8544  -18.0184 N   0  0  0  0  0  0  0  0  0  0  0  0
  -18.9389   10.8661  -17.7330 C   0  0  0  0  0  0  0  0  0  0  0  0
  -19.9575   10.7582  -16.8092 C   0  0  0  0  0  0  0  0  0  0  0  0
  -20.8196   11.7950  -16.5138 C   0  0  0  0  0  0  0  0  0  0  0  0
  -20.9967   15.3403  -16.6310 C   0  0  0  0  0  0  0  0  0  0  0  0
  -21.4660   14.0439  -16.9268 O   0  0  0  0  0  0  0  0  0  0  0  0
  -17.6138   13.4209  -19.9778 O   0  0  0  0  0  0  0  0  0  0  0  0
  -17.6075   13.6275  -21.3235 C   0  0  0  0  0  0  0  0  0  0  0  0
  -17.0660   12.6984  -22.1901 C   0  0  0  0  0  0  0  0  0  0  0  0
  -17.0559   12.8983  -23.5494 C   0  0  0  0  0  0  0  0  0  0  0  0
  -17.6004   14.0629  -24.1038 C   0  0  0  0  0  0  0  0  0  0  0  0
  -18.1423   14.9982  -23.2607 C   0  0  0  0  0  0  0  0  0  0  0  0
  -18.1369   14.7646  -21.8851 C   0  0  0  0  0  0  0  0  0  0  0  0
  -17.5358   14.2112  -25.5141 N   0  0  0  0  0  0  0  0  0  0  0  0
  -16.4141   14.5811  -26.2558 C   0  0  0  0  0  0  0  0  0  0  0  0
  -15.3209   14.8321  -25.7152 O   0  0  0  0  0  0  0  0  0  0  0  0
  -18.4405   14.0129  -26.0458 H   0  0  0  0  0  0  0  0  0  0  0  0
  -16.4770   14.6893  -27.7046 C   0  0  0  0  0  0  0  0  0  0  0  0
  -16.0024   15.6864  -28.4230 C   0  0  0  0  0  0  0  0  0  0  0  0
  -21.8424   11.6548  -15.5722 O   0  0  0  0  0  0  0  0  0  0  0  0
  -22.4729   10.3933  -15.4528 C   0  0  0  0  0  0  0  0  0  0  0  0
  -22.7207   10.0015  -14.0365 C   0  0  0  0  0  0  0  0  0  0  0  0
  -21.6121    9.1478  -13.4628 C   0  0  0  0  0  0  0  0  0  0  0  0
  -20.5513    9.9294  -12.8945 N   0  0  0  0  0  0  0  0  0  0  0  0
  -20.5139    9.8677  -11.4501 C   0  0  0  0  0  0  0  0  0  0  0  0
  -19.0820   10.1045  -11.0150 C   0  0  0  0  0  0  0  0  0  0  0  0
  -18.3864    8.9176  -11.2705 O   0  0  0  0  0  0  0  0  0  0  0  0
  -18.8629    8.2820  -12.4195 C   0  0  0  0  0  0  0  0  0  0  0  0
  -19.2922    9.3670  -13.3854 C   0  0  0  0  0  0  0  0  0  0  0  0
 11 12  1  0  0  0
 12  1  1  0  0  0
  1  2  2  0  0  0
  2  3  1  0  0  0
  3  4  2  0  0  0
  4 13  1  0  0  0
 13 14  1  0  0  0
 14 15  2  0  0  0
 15 16  1  0  0  0
 16 17  2  0  0  0
 17 20  1  0  0  0
 20 21  1  0  0  0
 21 22  2  0  0  0
 21 24  1  0  0  0
 24 25  2  0  0  0
 17 18  1  0  0  0
 18 19  2  0  0  0
  4  5  1  0  0  0
  5  6  2  0  0  0
  6  7  1  0  0  0
  7  8  2  0  0  0
  8  9  1  0  0  0
  9 10  2  0  0  0
 10 26  1  0  0  0
 26 27  1  0  0  0
 27 28  1  0  0  0
 28 29  1  0  0  0
 29 30  1  0  0  0
 30 31  1  0  0  0
 31 32  1  0  0  0
 32 33  1  0  0  0
 33 34  1  0  0  0
 34 35  1  0  0  0
 10  1  1  0  0  0
 35 30  1  0  0  0
  8  3  1  0  0  0
 19 14  1  0  0  0
 20 23  1  0  0  0
M  END
> <minimizedAffinity>
-8.07929

> <CNNscore>
0.1882760972

> <CNNaffinity>
6.2440223694

> <CNN_VS>
1.1756001711

> <CNNaffinity_variance>
0.1132221669

$$$$
[H]C([H])=C([H])C(=O)N([H])c1c([H])c([H])c(Oc2c([H])c([H])nc3c([H])c(OC([H])([H])C([H])([H])C([H])([H])N4C([H])([H])C([H])([H])OC([H])([H])C4([H])[H])c(OC([H])([H])[H])c([H])c23)c([H])c1[H]


 35 38  0  0  0  0  0  0  0  0999 V2000
  -18.7411   16.5724  -22.2981 C   0  0  0  0  0  0  0  0  0  0  0  0
  -18.3229   15.2653  -22.4317 C   0  0  0  0  0  0  0  0  0  0  0  0
  -17.0567   14.9268  -22.9029 C   0  0  0  0  0  0  0  0  0  0  0  0
  -16.6651   13.6069  -23.0254 C   0  0  0  0  0  0  0  0  0  0  0  0
  -15.4035   13.3116  -23.4949 C   0  0  0  0  0  0  0  0  0  0  0  0
  -14.5852   14.3701  -23.8230 C   0  0  0  0  0  0  0  0  0  0  0  0
  -14.9980   15.6455  -23.6915 N   0  0  0  0  0  0  0  0  0  0  0  0
  -16.2200   15.9705  -23.2374 C   0  0  0  0  0  0  0  0  0  0  0  0
  -16.6461   17.2753  -23.1008 C   0  0  0  0  0  0  0  0  0  0  0  0
  -17.9004   17.6132  -22.6340 C   0  0  0  0  0  0  0  0  0  0  0  0
  -20.4406   16.5311  -20.5272 C   0  0  0  0  0  0  0  0  0  0  0  0
  -20.0067   16.8670  -21.8262 O   0  0  0  0  0  0  0  0  0  0  0  0
  -17.5781   12.6318  -22.6629 O   0  0  0  0  0  0  0  0  0  0  0  0
  -17.5775   11.9357  -21.4928 C   0  0  0  0  0  0  0  0  0  0  0  0
  -16.9010   10.7380  -21.3700 C   0  0  0  0  0  0  0  0  0  0  0  0
  -16.8945   10.0292  -20.1930 C   0  0  0  0  0  0  0  0  0  0  0  0
  -17.5811   10.5049  -19.0695 C   0  0  0  0  0  0  0  0  0  0  0  0
  -18.2597   11.6917  -19.1706 C   0  0  0  0  0  0  0  0  0  0  0  0
  -18.2462   12.3871  -20.3802 C   0  0  0  0  0  0  0  0  0  0  0  0
  -17.5481    9.7093  -17.8942 N   0  0  0  0  0  0  0  0  0  0  0  0
  -18.6255    9.4322  -17.0532 C   0  0  0  0  0  0  0  0  0  0  0  0
  -19.7638    9.8882  -17.2695 O   0  0  0  0  0  0  0  0  0  0  0  0
  -16.6003    9.2851  -17.6448 H   0  0  0  0  0  0  0  0  0  0  0  0
  -18.4611    8.5909  -15.8785 C   0  0  0  0  0  0  0  0  0  0  0  0
  -19.3343    8.4545  -14.9016 C   0  0  0  0  0  0  0  0  0  0  0  0
  -18.3031   18.9452  -22.5067 O   0  0  0  0  0  0  0  0  0  0  0  0
  -19.2251   19.4579  -23.4502 C   0  0  0  0  0  0  0  0  0  0  0  0
  -20.2618   20.3313  -22.8311 C   0  0  0  0  0  0  0  0  0  0  0  0
  -21.6640   19.7947  -23.0132 C   0  0  0  0  0  0  0  0  0  0  0  0
  -21.8881   19.2715  -24.3305 N   0  0  0  0  0  0  0  0  0  0  0  0
  -22.7935   18.1439  -24.3453 C   0  0  0  0  0  0  0  0  0  0  0  0
  -23.4722   18.1150  -25.6996 C   0  0  0  0  0  0  0  0  0  0  0  0
  -24.4369   19.1285  -25.6836 O   0  0  0  0  0  0  0  0  0  0  0  0
  -24.0107   20.2293  -24.9367 C   0  0  0  0  0  0  0  0  0  0  0  0
  -22.5105   20.3380  -25.1164 C   0  0  0  0  0  0  0  0  0  0  0  0
 11 12  1  0  0  0
 12  1  1  0  0  0
  1  2  2  0  0  0
  2  3  1  0  0  0
  3  4  2  0  0  0
  4 13  1  0  0  0
 13 14  1  0  0  0
 14 15  2  0  0  0
 15 16  1  0  0  0
 16 17  2  0  0  0
 17 20  1  0  0  0
 20 21  1  0  0  0
 21 22  2  0  0  0
 21 24  1  0  0  0
 24 25  2  0  0  0
 17 18  1  0  0  0
 18 19  2  0  0  0
  4  5  1  0  0  0
  5  6  2  0  0  0
  6  7  1  0  0  0
  7  8  2  0  0  0
  8  9  1  0  0  0
  9 10  2  0  0  0
 10 26  1  0  0  0
 26 27  1  0  0  0
 27 28  1  0  0  0
 28 29  1  0  0  0
 29 30  1  0  0  0
 30 31  1  0  0  0
 31 32  1  0  0  0
 32 33  1  0  0  0
 33 34  1  0  0  0
 34 35  1  0  0  0
 10  1  1  0  0  0
 35 30  1  0  0  0
  8  3  1  0  0  0
 19 14  1  0  0  0
 20 23  1  0  0  0
M  END
> <minimizedAffinity>
-8.06347

> <CNNscore>
0.1828772426

> <CNNaffinity>
6.2022247314

> <CNN_VS>
1.1342457533

> <CNNaffinity_variance>
0.3084552586

$$$$
[H]C([H])=C([H])C(=O)N([H])c1c([H])c([H])c(Oc2c([H])c([H])nc3c([H])c(OC([H])([H])C([H])([H])C([H])([H])N4C([H])([H])C([H])([H])OC([H])([H])C4([H])[H])c(OC([H])([H])[H])c([H])c23)c([H])c1[H]


 35 38  0  0  0  0  0  0  0  0999 V2000
  -18.7732   13.1214  -17.9574 C   0  0  0  0  0  0  0  0  0  0  0  0
  -18.3672   13.9599  -18.9739 C   0  0  0  0  0  0  0  0  0  0  0  0
  -17.8352   13.4859  -20.1706 C   0  0  0  0  0  0  0  0  0  0  0  0
  -17.4374   14.3512  -21.1724 C   0  0  0  0  0  0  0  0  0  0  0  0
  -16.9161   13.8440  -22.3430 C   0  0  0  0  0  0  0  0  0  0  0  0
  -16.8181   12.4743  -22.4525 C   0  0  0  0  0  0  0  0  0  0  0  0
  -17.2153   11.6588  -21.4567 N   0  0  0  0  0  0  0  0  0  0  0  0
  -17.7278   12.1175  -20.3026 C   0  0  0  0  0  0  0  0  0  0  0  0
  -18.1362   11.2857  -19.2809 C   0  0  0  0  0  0  0  0  0  0  0  0
  -18.6638   11.7531  -18.0941 C   0  0  0  0  0  0  0  0  0  0  0  0
  -20.6281   14.0815  -16.6676 C   0  0  0  0  0  0  0  0  0  0  0  0
  -19.2967   13.6316  -16.7840 O   0  0  0  0  0  0  0  0  0  0  0  0
  -17.5866   15.7080  -20.9433 O   0  0  0  0  0  0  0  0  0  0  0  0
  -18.4521   16.5349  -21.5921 C   0  0  0  0  0  0  0  0  0  0  0  0
  -18.0988   17.1625  -22.7704 C   0  0  0  0  0  0  0  0  0  0  0  0
  -18.9659   17.9980  -23.4322 C   0  0  0  0  0  0  0  0  0  0  0  0
  -20.2486   18.2413  -22.9265 C   0  0  0  0  0  0  0  0  0  0  0  0
  -20.6187   17.6284  -21.7575 C   0  0  0  0  0  0  0  0  0  0  0  0
  -19.7145   16.7856  -21.1102 C   0  0  0  0  0  0  0  0  0  0  0  0
  -21.0825   19.1320  -23.6520 N   0  0  0  0  0  0  0  0  0  0  0  0
  -22.1775   18.7813  -24.4412 C   0  0  0  0  0  0  0  0  0  0  0  0
  -22.5298   17.5962  -24.5891 O   0  0  0  0  0  0  0  0  0  0  0  0
  -20.8378   20.1686  -23.5730 H   0  0  0  0  0  0  0  0  0  0  0  0
  -22.9597   19.7957  -25.1296 C   0  0  0  0  0  0  0  0  0  0  0  0
  -22.4812   20.7177  -25.9398 C   0  0  0  0  0  0  0  0  0  0  0  0
  -19.0688   10.8846  -17.0772 O   0  0  0  0  0  0  0  0  0  0  0  0
  -19.0853    9.4961  -17.3511 C   0  0  0  0  0  0  0  0  0  0  0  0
  -18.4543    8.6853  -16.2716 C   0  0  0  0  0  0  0  0  0  0  0  0
  -19.4410    8.2572  -15.2084 C   0  0  0  0  0  0  0  0  0  0  0  0
  -20.6825    7.7965  -15.7610 N   0  0  0  0  0  0  0  0  0  0  0  0
  -20.9474    6.4039  -15.4746 C   0  0  0  0  0  0  0  0  0  0  0  0
  -22.4503    6.2118  -15.4688 C   0  0  0  0  0  0  0  0  0  0  0  0
  -22.9152    6.7424  -14.2604 O   0  0  0  0  0  0  0  0  0  0  0  0
  -22.1694    7.8572  -13.8700 C   0  0  0  0  0  0  0  0  0  0  0  0
  -21.7489    8.5787  -15.1338 C   0  0  0  0  0  0  0  0  0  0  0  0
 11 12  1  0  0  0
 12  1  1  0  0  0
  1  2  2  0  0  0
  2  3  1  0  0  0
  3  4  2  0  0  0
  4 13  1  0  0  0
 13 14  1  0  0  0
 14 15  2  0  0  0
 15 16  1  0  0  0
 16 17  2  0  0  0
 17 20  1  0  0  0
 20 21  1  0  0  0
 21 22  2  0  0  0
 21 24  1  0  0  0
 24 25  2  0  0  0
 17 18  1  0  0  0
 18 19  2  0  0  0
  4  5  1  0  0  0
  5  6  2  0  0  0
  6  7  1  0  0  0
  7  8  2  0  0  0
  8  9  1  0  0  0
  9 10  2  0  0  0
 10 26  1  0  0  0
 26 27  1  0  0  0
 27 28  1  0  0  0
 28 29  1  0  0  0
 29 30  1  0  0  0
 30 31  1  0  0  0
 31 32  1  0  0  0
 32 33  1  0  0  0
 33 34  1  0  0  0
 34 35  1  0  0  0
 10  1  1  0  0  0
 35 30  1  0  0  0
  8  3  1  0  0  0
 19 14  1  0  0  0
 20 23  1  0  0  0
M  END
> <minimizedAffinity>
-6.94337

> <CNNscore>
0.1788506508

> <CNNaffinity>
6.2285742760

> <CNN_VS>
1.1139845848

> <CNNaffinity_variance>
0.1155542582

$$$$
[H]C([H])=C([H])C(=O)N([H])c1c([H])c([H])c(Oc2c([H])c([H])nc3c([H])c(OC([H])([H])C([H])([H])C([H])([H])N4C([H])([H])C([H])([H])OC([H])([H])C4([H])[H])c(OC([H])([H])[H])c([H])c23)c([H])c1[H]


 35 38  0  0  0  0  0  0  0  0999 V2000
  -20.6355   12.8837  -16.7658 C   0  0  0  0  0  0  0  0  0  0  0  0
  -19.6943   13.1599  -17.7349 C   0  0  0  0  0  0  0  0  0  0  0  0
  -18.8168   12.1960  -18.2254 C   0  0  0  0  0  0  0  0  0  0  0  0
  -17.8839   12.5025  -19.1982 C   0  0  0  0  0  0  0  0  0  0  0  0
  -17.0331   11.5212  -19.6591 C   0  0  0  0  0  0  0  0  0  0  0  0
  -17.1619   10.2627  -19.1136 C   0  0  0  0  0  0  0  0  0  0  0  0
  -18.0824    9.9974  -18.1666 N   0  0  0  0  0  0  0  0  0  0  0  0
  -18.9277   10.9285  -17.6939 C   0  0  0  0  0  0  0  0  0  0  0  0
  -19.8719   10.6605  -16.7247 C   0  0  0  0  0  0  0  0  0  0  0  0
  -20.7426   11.6141  -16.2371 C   0  0  0  0  0  0  0  0  0  0  0  0
  -21.8328   15.0057  -17.0654 C   0  0  0  0  0  0  0  0  0  0  0  0
  -21.4888   13.8690  -16.3050 O   0  0  0  0  0  0  0  0  0  0  0  0
  -17.8525   13.8041  -19.6679 O   0  0  0  0  0  0  0  0  0  0  0  0
  -17.5231   14.1867  -20.9324 C   0  0  0  0  0  0  0  0  0  0  0  0
  -16.8001   15.3394  -21.1684 C   0  0  0  0  0  0  0  0  0  0  0  0
  -16.4628   15.7329  -22.4409 C   0  0  0  0  0  0  0  0  0  0  0  0
  -16.8462   14.9687  -23.5496 C   0  0  0  0  0  0  0  0  0  0  0  0
  -17.5652   13.8211  -23.3370 C   0  0  0  0  0  0  0  0  0  0  0  0
  -17.8913   13.4494  -22.0322 C   0  0  0  0  0  0  0  0  0  0  0  0
  -16.4810   15.4475  -24.8351 N   0  0  0  0  0  0  0  0  0  0  0  0
  -15.3520   15.0770  -25.5652 C   0  0  0  0  0  0  0  0  0  0  0  0
  -14.5231   14.2584  -25.1255 O   0  0  0  0  0  0  0  0  0  0  0  0
  -17.1474   16.1567  -25.2752 H   0  0  0  0  0  0  0  0  0  0  0  0
  -15.0952   15.6371  -26.8823 C   0  0  0  0  0  0  0  0  0  0  0  0
  -15.8309   15.4429  -27.9577 C   0  0  0  0  0  0  0  0  0  0  0  0
  -21.6888   11.3116  -15.2544 O   0  0  0  0  0  0  0  0  0  0  0  0
  -21.3688   11.6014  -13.9064 C   0  0  0  0  0  0  0  0  0  0  0  0
  -21.0628   10.3805  -13.1085 C   0  0  0  0  0  0  0  0  0  0  0  0
  -19.7758   10.5016  -12.3237 C   0  0  0  0  0  0  0  0  0  0  0  0
  -19.7057    9.5733  -11.2317 N   0  0  0  0  0  0  0  0  0  0  0  0
  -18.5648    8.6883  -11.3132 C   0  0  0  0  0  0  0  0  0  0  0  0
  -18.2006    8.2738   -9.9022 C   0  0  0  0  0  0  0  0  0  0  0  0
  -17.5477    9.3668   -9.3217 O   0  0  0  0  0  0  0  0  0  0  0  0
  -18.0763   10.5782   -9.7738 C   0  0  0  0  0  0  0  0  0  0  0  0
  -19.5572   10.3607  -10.0068 C   0  0  0  0  0  0  0  0  0  0  0  0
 11 12  1  0  0  0
 12  1  1  0  0  0
  1  2  2  0  0  0
  2  3  1  0  0  0
  3  4  2  0  0  0
  4 13  1  0  0  0
 13 14  1  0  0  0
 14 15  2  0  0  0
 15 16  1  0  0  0
 16 17  2  0  0  0
 17 20  1  0  0  0
 20 21  1  0  0  0
 21 22  2  0  0  0
 21 24  1  0  0  0
 24 25  2  0  0  0
 17 18  1  0  0  0
 18 19  2  0  0  0
  4  5  1  0  0  0
  5  6  2  0  0  0
  6  7  1  0  0  0
  7  8  2  0  0  0
  8  9  1  0  0  0
  9 10  2  0  0  0
 10 26  1  0  0  0
 26 27  1  0  0  0
 27 28  1  0  0  0
 28 29  1  0  0  0
 29 30  1  0  0  0
 30 31  1  0  0  0
 31 32  1  0  0  0
 32 33  1  0  0  0
 33 34  1  0  0  0
 34 35  1  0  0  0
 10  1  1  0  0  0
 35 30  1  0  0  0
  8  3  1  0  0  0
 19 14  1  0  0  0
 20 23  1  0  0  0
M  END
> <minimizedAffinity>
-8.08099

> <CNNscore>
0.1688649505

> <CNNaffinity>
6.0449438095

> <CNN_VS>
1.0207791328

> <CNNaffinity_variance>
0.1253175884

$$$$
[H]C([H])=C([H])C(=O)N([H])c1c([H])c([H])c(Oc2c([H])c([H])nc3c([H])c(OC([H])([H])C([H])([H])C([H])([H])N4C([H])([H])C([H])([H])OC([H])([H])C4([H])[H])c(OC([H])([H])[H])c([H])c23)c([H])c1[H]


 35 38  0  0  0  0  0  0  0  0999 V2000
  -18.2603   12.8280  -20.4347 C   0  0  0  0  0  0  0  0  0  0  0  0
  -18.5941   14.1651  -20.3890 C   0  0  0  0  0  0  0  0  0  0  0  0
  -18.6480   14.8850  -19.1980 C   0  0  0  0  0  0  0  0  0  0  0  0
  -18.9852   16.2254  -19.1836 C   0  0  0  0  0  0  0  0  0  0  0  0
  -19.0273   16.9042  -17.9849 C   0  0  0  0  0  0  0  0  0  0  0  0
  -18.7246   16.1947  -16.8435 C   0  0  0  0  0  0  0  0  0  0  0  0
  -18.3996   14.8884  -16.8926 N   0  0  0  0  0  0  0  0  0  0  0  0
  -18.3486   14.1951  -18.0422 C   0  0  0  0  0  0  0  0  0  0  0  0
  -18.0156   12.8576  -18.0966 C   0  0  0  0  0  0  0  0  0  0  0  0
  -17.9614   12.1422  -19.2758 C   0  0  0  0  0  0  0  0  0  0  0  0
  -17.3229   12.4792  -22.6765 C   0  0  0  0  0  0  0  0  0  0  0  0
  -18.2178   12.1487  -21.6380 O   0  0  0  0  0  0  0  0  0  0  0  0
  -19.2683   16.8277  -20.3972 O   0  0  0  0  0  0  0  0  0  0  0  0
  -18.4671   16.8163  -21.4980 C   0  0  0  0  0  0  0  0  0  0  0  0
  -18.9905   16.6515  -22.7654 C   0  0  0  0  0  0  0  0  0  0  0  0
  -18.1897   16.6394  -23.8818 C   0  0  0  0  0  0  0  0  0  0  0  0
  -16.8031   16.7954  -23.7674 C   0  0  0  0  0  0  0  0  0  0  0  0
  -16.2634   16.9597  -22.5180 C   0  0  0  0  0  0  0  0  0  0  0  0
  -17.1043   16.9675  -21.4046 C   0  0  0  0  0  0  0  0  0  0  0  0
  -16.0365   16.7512  -24.9614 N   0  0  0  0  0  0  0  0  0  0  0  0
  -15.9355   15.6722  -25.8393 C   0  0  0  0  0  0  0  0  0  0  0  0
  -16.5341   14.5996  -25.6356 O   0  0  0  0  0  0  0  0  0  0  0  0
  -15.4931   17.6391  -25.1999 H   0  0  0  0  0  0  0  0  0  0  0  0
  -15.1191   15.7577  -27.0396 C   0  0  0  0  0  0  0  0  0  0  0  0
  -15.5281   15.5111  -28.2673 C   0  0  0  0  0  0  0  0  0  0  0  0
  -17.6206   10.7872  -19.2984 O   0  0  0  0  0  0  0  0  0  0  0  0
  -17.5164   10.1034  -18.0635 C   0  0  0  0  0  0  0  0  0  0  0  0
  -18.7594    9.3639  -17.7043 C   0  0  0  0  0  0  0  0  0  0  0  0
  -18.9381    9.2105  -16.2105 C   0  0  0  0  0  0  0  0  0  0  0  0
  -20.2842    9.4692  -15.7861 N   0  0  0  0  0  0  0  0  0  0  0  0
  -20.4248    9.5181  -14.3476 C   0  0  0  0  0  0  0  0  0  0  0  0
  -21.6008   10.4188  -14.0292 C   0  0  0  0  0  0  0  0  0  0  0  0
  -21.1590   11.7329  -14.2182 O   0  0  0  0  0  0  0  0  0  0  0  0
  -20.2444   11.8193  -15.2706 C   0  0  0  0  0  0  0  0  0  0  0  0
  -20.6520   10.7884  -16.3029 C   0  0  0  0  0  0  0  0  0  0  0  0
 11 12  1  0  0  0
 12  1  1  0  0  0
  1  2  2  0  0  0
  2  3  1  0  0  0
  3  4  2  0  0  0
  4 13  1  0  0  0
 13 14  1  0  0  0
 14 15  2  0  0  0
 15 16  1  0  0  0
 16 17  2  0  0  0
 17 20  1  0  0  0
 20 21  1  0  0  0
 21 22  2  0  0  0
 21 24  1  0  0  0
 24 25  2  0  0  0
 17 18  1  0  0  0
 18 19  2  0  0  0
  4  5  1  0  0  0
  5  6  2  0  0  0
  6  7  1  0  0  0
  7  8  2  0  0  0
  8  9  1  0  0  0
  9 10  2  0  0  0
 10 26  1  0  0  0
 26 27  1  0  0  0
 27 28  1  0  0  0
 28 29  1  0  0  0
 29 30  1  0  0  0
 30 31  1  0  0  0
 31 32  1  0  0  0
 32 33  1  0  0  0
 33 34  1  0  0  0
 34 35  1  0  0  0
 10  1  1  0  0  0
 35 30  1  0  0  0
  8  3  1  0  0  0
 19 14  1  0  0  0
 20 23  1  0  0  0
M  END
> <minimizedAffinity>
-7.43078

> <CNNscore>
0.1575472355

> <CNNaffinity>
6.4497084618

> <CNN_VS>
1.0161337852

> <CNNaffinity_variance>
0.2681695521

$$$$
